
 OpenBabel10152418293D

 38 41  0  0  0  0  0  0  0  0999 V2000
    0.8620  -11.6400  -25.6420 C   0  0  0  0  0  0  0  0  0  0  0  0
    1.1140  -11.9470  -24.3050 C   0  0  0  0  0  3  0  0  0  0  0  0
    2.4250  -12.0390  -23.8500 C   0  0  0  0  0  3  0  0  0  0  0  0
    3.4810  -11.7850  -24.7220 C   0  0  0  0  0  3  0  0  0  0  0  0
    3.2550  -11.3590  -26.0400 C   0  0  0  0  0  0  0  0  0  0  0  0
    1.9260  -11.2880  -26.4860 C   0  0  0  0  0  3  0  0  0  0  0  0
   -1.5900  -11.0580  -25.6250 C   0  0  0  0  0  0  0  0  0  0  0  0
   -2.7090  -11.3600  -26.0310 O   0  0  0  0  0  0  0  0  0  0  0  0
   -0.4710  -11.7250  -26.0770 N   0  0  0  0  0  0  0  0  0  0  0  0
   -0.6580  -12.2690  -26.9130 H   0  0  0  0  0  0  0  0  0  0  0  0
   -1.3250   -7.6400  -23.0840 C   0  0  0  0  0  0  0  0  0  0  0  0
   -1.4460   -8.9120  -22.5260 C   0  0  0  0  0  3  0  0  0  0  0  0
   -1.4930  -10.0280  -23.3600 C   0  0  0  0  0  0  0  0  0  0  0  0
   -1.6050  -11.2400  -22.7940 F   0  0  0  0  0  0  0  0  0  0  0  0
   -1.4470   -9.8900  -24.7460 C   0  0  0  0  0  0  0  0  0  0  0  0
   -1.2740   -8.6270  -25.2950 C   0  0  0  0  0  0  0  0  0  0  0  0
   -1.2300   -8.4520  -26.6230 F   0  0  0  0  0  0  0  0  0  0  0  0
   -1.2110   -7.5050  -24.4710 C   0  0  0  0  0  3  0  0  0  0  0  0
   -0.5470   -5.4000  -22.9610 C   0  0  0  0  0  1  0  0  0  0  0  0
   -1.2980   -6.4640  -22.3870 O   0  0  0  0  0  0  0  0  0  0  0  0
    4.4070  -11.0310  -26.9780 C   0  0  0  0  0  2  0  0  0  0  0  0
    4.6260   -9.5990  -27.0940 N   0  0  0  0  0  0  0  0  0  0  0  0
    5.5010   -9.2140  -26.7840 H   0  0  0  0  0  0  0  0  0  0  0  0
    3.7790   -8.8590  -27.9080 C   0  0  0  0  0  0  0  0  0  0  0  0
    4.0760   -8.8380  -29.2200 N   0  0  0  0  0  0  0  0  0  0  0  0
    3.4930   -7.8930  -29.9540 C   0  0  0  0  0  3  0  0  0  0  0  0
    2.7180   -6.9150  -29.4830 N   0  0  0  0  0  0  0  0  0  0  0  0
    2.3860   -6.9560  -28.1790 C   0  0  0  0  0  0  0  0  0  0  0  0
    1.6110   -5.9510  -27.5900 C   0  0  0  0  0  0  0  0  0  0  0  0
    1.1640   -6.0060  -26.2630 C   0  0  0  0  0  3  0  0  0  0  0  0
    1.5500   -7.0650  -25.4590 C   0  0  0  0  0  3  0  0  0  0  0  0
    2.4080   -8.0280  -25.9810 C   0  0  0  0  0  3  0  0  0  0  0  0
    2.8390   -7.9810  -27.3360 C   0  0  0  0  0  0  0  0  0  0  0  0
    1.3260   -4.6990  -28.3220 C   0  0  0  0  0  0  0  0  0  0  0  0
    0.4750   -4.8410  -29.3900 N   0  0  0  0  0  0  0  0  0  0  0  0
    1.8960   -3.6610  -28.0670 O   0  0  0  0  0  0  0  0  0  0  0  0
    0.2770   -4.0240  -29.9510 H   0  0  0  0  0  0  0  0  0  0  0  0
    0.0230   -5.7130  -29.6180 H   0  0  0  0  0  0  0  0  0  0  0  0
  1  2  1  0  0  0  0
  2  3  2  0  0  0  0
  4  3  1  0  0  0  0
  5  4  2  0  0  0  0
  6  5  1  0  0  0  0
  6  1  2  0  0  0  0
  7 15  1  0  0  0  0
  8  7  2  0  0  0  0
  9  1  1  0  0  0  0
  9  7  1  0  0  0  0
 10  9  1  0  0  0  0
 11 12  1  0  0  0  0
 11 20  1  0  0  0  0
 13 14  1  0  0  0  0
 13 12  2  0  0  0  0
 15 13  1  0  0  0  0
 16 15  2  0  0  0  0
 16 18  1  0  0  0  0
 17 16  1  0  0  0  0
 18 11  2  0  0  0  0
 19 20  1  0  0  0  0
 21  5  1  0  0  0  0
 22 21  1  0  0  0  0
 22 23  1  0  0  0  0
 24 33  1  0  0  0  0
 24 22  1  0  0  0  0
 25 24  2  0  0  0  0
 26 27  2  0  0  0  0
 26 25  1  0  0  0  0
 27 28  1  0  0  0  0
 28 29  2  0  0  0  0
 28 33  1  0  0  0  0
 29 30  1  0  0  0  0
 30 31  2  0  0  0  0
 32 31  1  0  0  0  0
 33 32  2  0  0  0  0
 34 36  2  0  0  0  0
 34 29  1  0  0  0  0
 35 34  1  0  0  0  0
 37 35  1  0  0  0  0
 38 35  1  0  0  0  0
M  END
>  <minimizedAffinity>
-8.25853157

$$$$
