
 OpenBabel10152418293D

 38 41  0  0  0  0  0  0  0  0999 V2000
    3.2240   -9.8490  -26.6520 C   0  0  0  0  0  0  0  0  0  0  0  0
    2.6630  -10.4490  -27.7790 C   0  0  0  0  0  3  0  0  0  0  0  0
    1.8350  -11.5570  -27.6350 C   0  0  0  0  0  3  0  0  0  0  0  0
    1.5370  -12.0390  -26.3620 C   0  0  0  0  0  3  0  0  0  0  0  0
    1.9920  -11.3830  -25.2070 C   0  0  0  0  0  0  0  0  0  0  0  0
    2.8390  -10.2780  -25.3730 C   0  0  0  0  0  3  0  0  0  0  0  0
    4.0030   -7.5290  -27.2540 C   0  0  0  0  0  0  0  0  0  0  0  0
    4.9670   -6.8220  -27.5370 O   0  0  0  0  0  0  0  0  0  0  0  0
    4.1790   -8.8420  -26.8720 N   0  0  0  0  0  0  0  0  0  0  0  0
    5.1420   -9.0460  -26.6230 H   0  0  0  0  0  0  0  0  0  0  0  0
    0.1890   -5.6250  -27.0660 C   0  0  0  0  0  0  0  0  0  0  0  0
    0.8660   -5.7050  -28.2830 C   0  0  0  0  0  3  0  0  0  0  0  0
    2.0940   -6.3620  -28.3450 C   0  0  0  0  0  0  0  0  0  0  0  0
    2.7200   -6.4270  -29.5310 F   0  0  0  0  0  0  0  0  0  0  0  0
    2.6680   -6.9190  -27.2040 C   0  0  0  0  0  0  0  0  0  0  0  0
    1.9660   -6.8830  -26.0070 C   0  0  0  0  0  0  0  0  0  0  0  0
    2.4870   -7.4030  -24.8870 F   0  0  0  0  0  0  0  0  0  0  0  0
    0.7320   -6.2420  -25.9350 C   0  0  0  0  0  3  0  0  0  0  0  0
   -0.9420   -3.7110  -26.2300 C   0  0  0  0  0  1  0  0  0  0  0  0
   -1.0020   -4.9880  -26.8580 O   0  0  0  0  0  0  0  0  0  0  0  0
    1.6240  -11.8790  -23.8160 C   0  0  0  0  0  2  0  0  0  0  0  0
    0.1890  -12.0310  -23.6530 N   0  0  0  0  0  0  0  0  0  0  0  0
   -0.2390  -12.9060  -23.9020 H   0  0  0  0  0  0  0  0  0  0  0  0
   -0.4950  -11.1110  -22.8710 C   0  0  0  0  0  0  0  0  0  0  0  0
   -0.8210  -11.5050  -21.6270 N   0  0  0  0  0  0  0  0  0  0  0  0
   -1.7430  -10.7860  -20.9900 C   0  0  0  0  0  3  0  0  0  0  0  0
   -2.4310   -9.7710  -21.5120 N   0  0  0  0  0  0  0  0  0  0  0  0
   -2.0800   -9.3470  -22.7410 C   0  0  0  0  0  0  0  0  0  0  0  0
   -2.7720   -8.3150  -23.3840 C   0  0  0  0  0  0  0  0  0  0  0  0
   -2.3790   -7.7820  -24.6190 C   0  0  0  0  0  3  0  0  0  0  0  0
   -1.2940   -8.3290  -25.2820 C   0  0  0  0  0  3  0  0  0  0  0  0
   -0.6460   -9.4260  -24.7220 C   0  0  0  0  0  3  0  0  0  0  0  0
   -1.0340   -9.9490  -23.4560 C   0  0  0  0  0  0  0  0  0  0  0  0
   -4.0490   -7.8160  -22.8350 C   0  0  0  0  0  0  0  0  0  0  0  0
   -3.9860   -7.3880  -21.5320 N   0  0  0  0  0  0  0  0  0  0  0  0
   -5.0890   -7.8920  -23.4530 O   0  0  0  0  0  0  0  0  0  0  0  0
   -4.8390   -7.0740  -21.0930 H   0  0  0  0  0  0  0  0  0  0  0  0
   -3.1230   -7.3520  -21.0100 H   0  0  0  0  0  0  0  0  0  0  0  0
  1  6  1  0  0  0  0
  2  3  1  0  0  0  0
  2  1  2  0  0  0  0
  3  4  2  0  0  0  0
  4  5  1  0  0  0  0
  5 21  1  0  0  0  0
  6  5  2  0  0  0  0
  7 15  1  0  0  0  0
  7  9  1  0  0  0  0
  8  7  2  0  0  0  0
  9  1  1  0  0  0  0
  9 10  1  0  0  0  0
 11 20  1  0  0  0  0
 11 18  1  0  0  0  0
 12 11  2  0  0  0  0
 13 12  1  0  0  0  0
 13 15  2  0  0  0  0
 14 13  1  0  0  0  0
 15 16  1  0  0  0  0
 16 18  2  0  0  0  0
 16 17  1  0  0  0  0
 20 19  1  0  0  0  0
 21 22  1  0  0  0  0
 22 24  1  0  0  0  0
 23 22  1  0  0  0  0
 24 25  1  0  0  0  0
 25 26  2  0  0  0  0
 27 26  1  0  0  0  0
 28 27  2  0  0  0  0
 29 34  1  0  0  0  0
 29 28  1  0  0  0  0
 30 29  2  0  0  0  0
 31 32  2  0  0  0  0
 31 30  1  0  0  0  0
 32 33  1  0  0  0  0
 33 24  2  0  0  0  0
 33 28  1  0  0  0  0
 34 35  1  0  0  0  0
 35 37  1  0  0  0  0
 35 38  1  0  0  0  0
 36 34  2  0  0  0  0
M  END
>  <minimizedAffinity>
-6.62372684

$$$$
