
 OpenBabel10152418293D

 38 41  0  0  0  0  0  0  0  0999 V2000
    1.9870   -6.1880  -28.6300 C   0  0  0  0  0  0  0  0  0  0  0  0
    1.6200   -4.9060  -28.2220 C   0  0  0  0  0  3  0  0  0  0  0  0
    0.5220   -4.7300  -27.3880 C   0  0  0  0  0  3  0  0  0  0  0  0
   -0.1860   -5.8410  -26.9310 C   0  0  0  0  0  3  0  0  0  0  0  0
    0.2320   -7.1470  -27.2300 C   0  0  0  0  0  0  0  0  0  0  0  0
    1.3330   -7.3030  -28.0850 C   0  0  0  0  0  3  0  0  0  0  0  0
    4.0710   -7.1500  -29.6710 C   0  0  0  0  0  0  0  0  0  0  0  0
    4.9420   -7.0020  -30.5240 O   0  0  0  0  0  0  0  0  0  0  0  0
    2.9990   -6.2860  -29.6010 N   0  0  0  0  0  0  0  0  0  0  0  0
    2.8990   -5.7250  -30.4400 H   0  0  0  0  0  0  0  0  0  0  0  0
    4.3630  -10.6140  -27.1970 C   0  0  0  0  0  0  0  0  0  0  0  0
    4.5450   -9.3480  -26.6420 C   0  0  0  0  0  3  0  0  0  0  0  0
    4.4100   -8.2180  -27.4480 C   0  0  0  0  0  0  0  0  0  0  0  0
    4.5870   -7.0120  -26.8850 F   0  0  0  0  0  0  0  0  0  0  0  0
    4.1220   -8.3350  -28.8060 C   0  0  0  0  0  0  0  0  0  0  0  0
    3.8890   -9.5950  -29.3410 C   0  0  0  0  0  0  0  0  0  0  0  0
    3.6140   -9.7500  -30.6440 F   0  0  0  0  0  0  0  0  0  0  0  0
    4.0060  -10.7310  -28.5440 C   0  0  0  0  0  3  0  0  0  0  0  0
    3.6250  -12.0120  -25.4250 C   0  0  0  0  0  1  0  0  0  0  0  0
    4.4940  -11.8010  -26.5320 O   0  0  0  0  0  0  0  0  0  0  0  0
   -0.5090   -8.3610  -26.6880 C   0  0  0  0  0  2  0  0  0  0  0  0
   -0.9220   -8.1770  -25.3070 N   0  0  0  0  0  0  0  0  0  0  0  0
   -1.6400   -7.5040  -25.1000 H   0  0  0  0  0  0  0  0  0  0  0  0
   -0.5630   -9.1360  -24.3710 C   0  0  0  0  0  0  0  0  0  0  0  0
    0.0080  -10.2560  -24.8480 N   0  0  0  0  0  0  0  0  0  0  0  0
    0.0570  -11.3040  -24.0280 C   0  0  0  0  0  3  0  0  0  0  0  0
   -0.4940  -11.3640  -22.8150 N   0  0  0  0  0  0  0  0  0  0  0  0
   -1.0310  -10.2340  -22.3180 C   0  0  0  0  0  0  0  0  0  0  0  0
   -1.6650  -10.2130  -21.0710 C   0  0  0  0  0  0  0  0  0  0  0  0
   -2.1500   -9.0400  -20.4780 C   0  0  0  0  0  3  0  0  0  0  0  0
   -2.0650   -7.8430  -21.1680 C   0  0  0  0  0  3  0  0  0  0  0  0
   -1.5360   -7.8450  -22.4550 C   0  0  0  0  0  3  0  0  0  0  0  0
   -1.0230   -9.0340  -23.0440 C   0  0  0  0  0  0  0  0  0  0  0  0
   -1.9690  -11.4750  -20.3650 C   0  0  0  0  0  0  0  0  0  0  0  0
   -0.9010  -12.0390  -19.7130 N   0  0  0  0  0  0  0  0  0  0  0  0
   -3.0460  -12.0220  -20.4600 O   0  0  0  0  0  0  0  0  0  0  0  0
   -1.0420  -12.9240  -19.2460 H   0  0  0  0  0  0  0  0  0  0  0  0
    0.0040  -11.5950  -19.6590 H   0  0  0  0  0  0  0  0  0  0  0  0
  1  2  2  0  0  0  0
  1  6  1  0  0  0  0
  2  3  1  0  0  0  0
  3  4  2  0  0  0  0
  5  4  1  0  0  0  0
  5 21  1  0  0  0  0
  6  5  2  0  0  0  0
  7  9  1  0  0  0  0
  7 15  1  0  0  0  0
  8  7  2  0  0  0  0
  9  1  1  0  0  0  0
 10  9  1  0  0  0  0
 11 12  1  0  0  0  0
 11 20  1  0  0  0  0
 13 14  1  0  0  0  0
 13 12  2  0  0  0  0
 15 13  1  0  0  0  0
 16 15  2  0  0  0  0
 16 18  1  0  0  0  0
 17 16  1  0  0  0  0
 18 11  2  0  0  0  0
 20 19  1  0  0  0  0
 21 22  1  0  0  0  0
 22 23  1  0  0  0  0
 22 24  1  0  0  0  0
 24 33  1  0  0  0  0
 25 24  2  0  0  0  0
 25 26  1  0  0  0  0
 26 27  2  0  0  0  0
 27 28  1  0  0  0  0
 28 29  1  0  0  0  0
 29 30  2  0  0  0  0
 29 34  1  0  0  0  0
 31 30  1  0  0  0  0
 32 31  2  0  0  0  0
 33 32  1  0  0  0  0
 33 28  2  0  0  0  0
 34 35  1  0  0  0  0
 35 38  1  0  0  0  0
 35 37  1  0  0  0  0
 36 34  2  0  0  0  0
M  END
>  <minimizedAffinity>
-9.31948566

$$$$
