
 OpenBabel10152418293D

 38 41  0  0  0  0  0  0  0  0999 V2000
    1.9870   -6.1880  -28.6300 C   0  0  0  0  0  0  0  0  0  0  0  0
    1.6200   -4.9060  -28.2220 C   0  0  0  0  0  3  0  0  0  0  0  0
    0.5220   -4.7300  -27.3880 C   0  0  0  0  0  3  0  0  0  0  0  0
   -0.1860   -5.8410  -26.9310 C   0  0  0  0  0  3  0  0  0  0  0  0
    0.2320   -7.1470  -27.2300 C   0  0  0  0  0  0  0  0  0  0  0  0
    1.3330   -7.3030  -28.0850 C   0  0  0  0  0  3  0  0  0  0  0  0
    4.0710   -7.1500  -29.6710 C   0  0  0  0  0  0  0  0  0  0  0  0
    4.9420   -7.0020  -30.5240 O   0  0  0  0  0  0  0  0  0  0  0  0
    2.9990   -6.2860  -29.6010 N   0  0  0  0  0  0  0  0  0  0  0  0
    2.8990   -5.7250  -30.4400 H   0  0  0  0  0  0  0  0  0  0  0  0
    4.3630  -10.6140  -27.1970 C   0  0  0  0  0  0  0  0  0  0  0  0
    4.5450   -9.3480  -26.6420 C   0  0  0  0  0  3  0  0  0  0  0  0
    4.4100   -8.2180  -27.4480 C   0  0  0  0  0  0  0  0  0  0  0  0
    4.5870   -7.0120  -26.8850 F   0  0  0  0  0  0  0  0  0  0  0  0
    4.1220   -8.3350  -28.8060 C   0  0  0  0  0  0  0  0  0  0  0  0
    3.8890   -9.5950  -29.3410 C   0  0  0  0  0  0  0  0  0  0  0  0
    3.6140   -9.7500  -30.6440 F   0  0  0  0  0  0  0  0  0  0  0  0
    4.0060  -10.7310  -28.5440 C   0  0  0  0  0  3  0  0  0  0  0  0
    3.6250  -12.0120  -25.4250 C   0  0  0  0  0  1  0  0  0  0  0  0
    4.4940  -11.8010  -26.5320 O   0  0  0  0  0  0  0  0  0  0  0  0
   -0.5090   -8.3610  -26.6880 C   0  0  0  0  0  2  0  0  0  0  0  0
   -0.9220   -8.1770  -25.3070 N   0  0  0  0  0  0  0  0  0  0  0  0
   -1.6400   -7.5040  -25.1000 H   0  0  0  0  0  0  0  0  0  0  0  0
   -0.5630   -9.1360  -24.3710 C   0  0  0  0  0  0  0  0  0  0  0  0
    0.0080  -10.2560  -24.8480 N   0  0  0  0  0  0  0  0  0  0  0  0
    0.0570  -11.3040  -24.0280 C   0  0  0  0  0  3  0  0  0  0  0  0
   -0.4940  -11.3640  -22.8150 N   0  0  0  0  0  0  0  0  0  0  0  0
   -1.0310  -10.2340  -22.3180 C   0  0  0  0  0  0  0  0  0  0  0  0
   -1.6650  -10.2130  -21.0710 C   0  0  0  0  0  0  0  0  0  0  0  0
   -2.1500   -9.0400  -20.4780 C   0  0  0  0  0  3  0  0  0  0  0  0
   -2.0650   -7.8430  -21.1680 C   0  0  0  0  0  3  0  0  0  0  0  0
   -1.5360   -7.8450  -22.4550 C   0  0  0  0  0  3  0  0  0  0  0  0
   -1.0230   -9.0340  -23.0440 C   0  0  0  0  0  0  0  0  0  0  0  0
   -1.9690  -11.4750  -20.3650 C   0  0  0  0  0  0  0  0  0  0  0  0
   -0.9010  -12.0390  -19.7130 N   0  0  0  0  0  0  0  0  0  0  0  0
   -3.0460  -12.0220  -20.4600 O   0  0  0  0  0  0  0  0  0  0  0  0
   -1.0420  -12.9240  -19.2460 H   0  0  0  0  0  0  0  0  0  0  0  0
    0.0040  -11.5950  -19.6590 H   0  0  0  0  0  0  0  0  0  0  0  0
  1  2  2  0  0  0  0
  1  6  1  0  0  0  0
  2  3  1  0  0  0  0
  3  4  2  0  0  0  0
  5  4  1  0  0  0  0
  5 21  1  0  0  0  0
  6  5  2  0  0  0  0
  7  9  1  0  0  0  0
  7 15  1  0  0  0  0
  8  7  2  0  0  0  0
  9  1  1  0  0  0  0
 10  9  1  0  0  0  0
 11 12  1  0  0  0  0
 11 20  1  0  0  0  0
 13 14  1  0  0  0  0
 13 12  2  0  0  0  0
 15 13  1  0  0  0  0
 16 15  2  0  0  0  0
 16 18  1  0  0  0  0
 17 16  1  0  0  0  0
 18 11  2  0  0  0  0
 20 19  1  0  0  0  0
 21 22  1  0  0  0  0
 22 23  1  0  0  0  0
 22 24  1  0  0  0  0
 24 33  1  0  0  0  0
 25 24  2  0  0  0  0
 25 26  1  0  0  0  0
 26 27  2  0  0  0  0
 27 28  1  0  0  0  0
 28 29  1  0  0  0  0
 29 30  2  0  0  0  0
 29 34  1  0  0  0  0
 31 30  1  0  0  0  0
 32 31  2  0  0  0  0
 33 32  1  0  0  0  0
 33 28  2  0  0  0  0
 34 35  1  0  0  0  0
 35 38  1  0  0  0  0
 35 37  1  0  0  0  0
 36 34  2  0  0  0  0
M  END
>  <minimizedAffinity>
-9.31948566

$$$$

 OpenBabel10152418293D

 38 41  0  0  0  0  0  0  0  0999 V2000
    1.4520  -11.4720  -25.1140 C   0  0  0  0  0  0  0  0  0  0  0  0
    0.7740  -11.9300  -26.2430 C   0  0  0  0  0  3  0  0  0  0  0  0
   -0.6040  -11.7680  -26.3370 C   0  0  0  0  0  3  0  0  0  0  0  0
   -1.2960  -11.1140  -25.3190 C   0  0  0  0  0  3  0  0  0  0  0  0
   -0.6240  -10.5410  -24.2290 C   0  0  0  0  0  0  0  0  0  0  0  0
    0.7640  -10.7280  -24.1440 C   0  0  0  0  0  3  0  0  0  0  0  0
    3.8680  -11.5000  -25.8340 C   0  0  0  0  0  0  0  0  0  0  0  0
    4.9740  -12.0010  -25.6570 O   0  0  0  0  0  0  0  0  0  0  0  0
    2.8120  -11.8120  -25.0030 N   0  0  0  0  0  0  0  0  0  0  0  0
    3.1150  -12.2620  -24.1460 H   0  0  0  0  0  0  0  0  0  0  0  0
    3.5670   -8.4520  -28.8050 C   0  0  0  0  0  0  0  0  0  0  0  0
    3.9020   -9.7530  -29.1770 C   0  0  0  0  0  3  0  0  0  0  0  0
    3.9610  -10.7530  -28.2070 C   0  0  0  0  0  0  0  0  0  0  0  0
    4.2830  -11.9970  -28.5950 F   0  0  0  0  0  0  0  0  0  0  0  0
    3.7150  -10.4660  -26.8650 C   0  0  0  0  0  0  0  0  0  0  0  0
    3.3300   -9.1820  -26.5080 C   0  0  0  0  0  0  0  0  0  0  0  0
    3.0890   -8.8650  -25.2280 F   0  0  0  0  0  0  0  0  0  0  0  0
    3.2530   -8.1770  -27.4700 C   0  0  0  0  0  3  0  0  0  0  0  0
    4.5340   -7.2630  -30.6190 C   0  0  0  0  0  1  0  0  0  0  0  0
    3.5030   -7.3750  -29.6440 O   0  0  0  0  0  0  0  0  0  0  0  0
   -1.3730   -9.7810  -23.1430 C   0  0  0  0  0  2  0  0  0  0  0  0
   -2.0260   -8.5920  -23.6620 N   0  0  0  0  0  0  0  0  0  0  0  0
   -3.0310   -8.5600  -23.6850 H   0  0  0  0  0  0  0  0  0  0  0  0
   -1.2810   -7.4300  -23.8020 C   0  0  0  0  0  0  0  0  0  0  0  0
   -1.2760   -6.5890  -22.7530 N   0  0  0  0  0  0  0  0  0  0  0  0
   -0.8540   -5.3470  -22.9770 C   0  0  0  0  0  3  0  0  0  0  0  0
   -0.5260   -4.8440  -24.1680 N   0  0  0  0  0  0  0  0  0  0  0  0
   -0.4910   -5.6910  -25.2140 C   0  0  0  0  0  0  0  0  0  0  0  0
   -0.1970   -5.2450  -26.5070 C   0  0  0  0  0  0  0  0  0  0  0  0
   -0.0550   -6.1070  -27.6020 C   0  0  0  0  0  3  0  0  0  0  0  0
   -0.2760   -7.4630  -27.4320 C   0  0  0  0  0  3  0  0  0  0  0  0
   -0.6740   -7.9290  -26.1830 C   0  0  0  0  0  3  0  0  0  0  0  0
   -0.7920   -7.0530  -25.0680 C   0  0  0  0  0  0  0  0  0  0  0  0
   -0.1430   -3.7980  -26.8050 C   0  0  0  0  0  0  0  0  0  0  0  0
   -1.1440   -3.0560  -26.2280 N   0  0  0  0  0  0  0  0  0  0  0  0
    0.6520   -3.3330  -27.5910 O   0  0  0  0  0  0  0  0  0  0  0  0
   -1.1800   -2.0670  -26.4310 H   0  0  0  0  0  0  0  0  0  0  0  0
   -1.8230   -3.4520  -25.5950 H   0  0  0  0  0  0  0  0  0  0  0  0
  1  9  1  0  0  0  0
  1  6  1  0  0  0  0
  2  1  2  0  0  0  0
  3  2  1  0  0  0  0
  3  4  2  0  0  0  0
  4  5  1  0  0  0  0
  5  6  2  0  0  0  0
  5 21  1  0  0  0  0
  7  8  2  0  0  0  0
  7  9  1  0  0  0  0
  9 10  1  0  0  0  0
 11 18  1  0  0  0  0
 12 11  2  0  0  0  0
 12 13  1  0  0  0  0
 13 15  2  0  0  0  0
 14 13  1  0  0  0  0
 15 16  1  0  0  0  0
 15  7  1  0  0  0  0
 16 17  1  0  0  0  0
 18 16  2  0  0  0  0
 19 20  1  0  0  0  0
 20 11  1  0  0  0  0
 22 21  1  0  0  0  0
 23 22  1  0  0  0  0
 24 22  1  0  0  0  0
 24 25  1  0  0  0  0
 26 25  2  0  0  0  0
 27 26  1  0  0  0  0
 28 33  1  0  0  0  0
 28 27  2  0  0  0  0
 29 28  1  0  0  0  0
 30 31  1  0  0  0  0
 30 29  2  0  0  0  0
 31 32  2  0  0  0  0
 32 33  1  0  0  0  0
 33 24  2  0  0  0  0
 34 29  1  0  0  0  0
 34 35  1  0  0  0  0
 35 38  1  0  0  0  0
 36 34  2  0  0  0  0
 37 35  1  0  0  0  0
M  END
>  <minimizedAffinity>
-9.12669754

$$$$

 OpenBabel10152418293D

 38 41  0  0  0  0  0  0  0  0999 V2000
    0.8620  -11.6400  -25.6420 C   0  0  0  0  0  0  0  0  0  0  0  0
    1.1140  -11.9470  -24.3050 C   0  0  0  0  0  3  0  0  0  0  0  0
    2.4250  -12.0390  -23.8500 C   0  0  0  0  0  3  0  0  0  0  0  0
    3.4810  -11.7850  -24.7220 C   0  0  0  0  0  3  0  0  0  0  0  0
    3.2550  -11.3590  -26.0400 C   0  0  0  0  0  0  0  0  0  0  0  0
    1.9260  -11.2880  -26.4860 C   0  0  0  0  0  3  0  0  0  0  0  0
   -1.5900  -11.0580  -25.6250 C   0  0  0  0  0  0  0  0  0  0  0  0
   -2.7090  -11.3600  -26.0310 O   0  0  0  0  0  0  0  0  0  0  0  0
   -0.4710  -11.7250  -26.0770 N   0  0  0  0  0  0  0  0  0  0  0  0
   -0.6580  -12.2690  -26.9130 H   0  0  0  0  0  0  0  0  0  0  0  0
   -1.3250   -7.6400  -23.0840 C   0  0  0  0  0  0  0  0  0  0  0  0
   -1.4460   -8.9120  -22.5260 C   0  0  0  0  0  3  0  0  0  0  0  0
   -1.4930  -10.0280  -23.3600 C   0  0  0  0  0  0  0  0  0  0  0  0
   -1.6050  -11.2400  -22.7940 F   0  0  0  0  0  0  0  0  0  0  0  0
   -1.4470   -9.8900  -24.7460 C   0  0  0  0  0  0  0  0  0  0  0  0
   -1.2740   -8.6270  -25.2950 C   0  0  0  0  0  0  0  0  0  0  0  0
   -1.2300   -8.4520  -26.6230 F   0  0  0  0  0  0  0  0  0  0  0  0
   -1.2110   -7.5050  -24.4710 C   0  0  0  0  0  3  0  0  0  0  0  0
   -0.5470   -5.4000  -22.9610 C   0  0  0  0  0  1  0  0  0  0  0  0
   -1.2980   -6.4640  -22.3870 O   0  0  0  0  0  0  0  0  0  0  0  0
    4.4070  -11.0310  -26.9780 C   0  0  0  0  0  2  0  0  0  0  0  0
    4.6260   -9.5990  -27.0940 N   0  0  0  0  0  0  0  0  0  0  0  0
    5.5010   -9.2140  -26.7840 H   0  0  0  0  0  0  0  0  0  0  0  0
    3.7790   -8.8590  -27.9080 C   0  0  0  0  0  0  0  0  0  0  0  0
    4.0760   -8.8380  -29.2200 N   0  0  0  0  0  0  0  0  0  0  0  0
    3.4930   -7.8930  -29.9540 C   0  0  0  0  0  3  0  0  0  0  0  0
    2.7180   -6.9150  -29.4830 N   0  0  0  0  0  0  0  0  0  0  0  0
    2.3860   -6.9560  -28.1790 C   0  0  0  0  0  0  0  0  0  0  0  0
    1.6110   -5.9510  -27.5900 C   0  0  0  0  0  0  0  0  0  0  0  0
    1.1640   -6.0060  -26.2630 C   0  0  0  0  0  3  0  0  0  0  0  0
    1.5500   -7.0650  -25.4590 C   0  0  0  0  0  3  0  0  0  0  0  0
    2.4080   -8.0280  -25.9810 C   0  0  0  0  0  3  0  0  0  0  0  0
    2.8390   -7.9810  -27.3360 C   0  0  0  0  0  0  0  0  0  0  0  0
    1.3260   -4.6990  -28.3220 C   0  0  0  0  0  0  0  0  0  0  0  0
    0.4750   -4.8410  -29.3900 N   0  0  0  0  0  0  0  0  0  0  0  0
    1.8960   -3.6610  -28.0670 O   0  0  0  0  0  0  0  0  0  0  0  0
    0.2770   -4.0240  -29.9510 H   0  0  0  0  0  0  0  0  0  0  0  0
    0.0230   -5.7130  -29.6180 H   0  0  0  0  0  0  0  0  0  0  0  0
  1  2  1  0  0  0  0
  2  3  2  0  0  0  0
  4  3  1  0  0  0  0
  5  4  2  0  0  0  0
  6  5  1  0  0  0  0
  6  1  2  0  0  0  0
  7 15  1  0  0  0  0
  8  7  2  0  0  0  0
  9  1  1  0  0  0  0
  9  7  1  0  0  0  0
 10  9  1  0  0  0  0
 11 12  1  0  0  0  0
 11 20  1  0  0  0  0
 13 14  1  0  0  0  0
 13 12  2  0  0  0  0
 15 13  1  0  0  0  0
 16 15  2  0  0  0  0
 16 18  1  0  0  0  0
 17 16  1  0  0  0  0
 18 11  2  0  0  0  0
 19 20  1  0  0  0  0
 21  5  1  0  0  0  0
 22 21  1  0  0  0  0
 22 23  1  0  0  0  0
 24 33  1  0  0  0  0
 24 22  1  0  0  0  0
 25 24  2  0  0  0  0
 26 27  2  0  0  0  0
 26 25  1  0  0  0  0
 27 28  1  0  0  0  0
 28 29  2  0  0  0  0
 28 33  1  0  0  0  0
 29 30  1  0  0  0  0
 30 31  2  0  0  0  0
 32 31  1  0  0  0  0
 33 32  2  0  0  0  0
 34 36  2  0  0  0  0
 34 29  1  0  0  0  0
 35 34  1  0  0  0  0
 37 35  1  0  0  0  0
 38 35  1  0  0  0  0
M  END
>  <minimizedAffinity>
-8.25853157

$$$$

 OpenBabel10152418293D

 38 41  0  0  0  0  0  0  0  0999 V2000
    2.6180   -8.8100  -26.6580 C   0  0  0  0  0  0  0  0  0  0  0  0
    2.6900   -7.9160  -25.5900 C   0  0  0  0  0  3  0  0  0  0  0  0
    2.2080   -8.2890  -24.3400 C   0  0  0  0  0  3  0  0  0  0  0  0
    1.6910   -9.5690  -24.1500 C   0  0  0  0  0  3  0  0  0  0  0  0
    1.7140  -10.5270  -25.1760 C   0  0  0  0  0  0  0  0  0  0  0  0
    2.1900  -10.1270  -26.4340 C   0  0  0  0  0  3  0  0  0  0  0  0
    2.3680   -7.3350  -28.6860 C   0  0  0  0  0  0  0  0  0  0  0  0
    2.7250   -7.1290  -29.8430 O   0  0  0  0  0  0  0  0  0  0  0  0
    2.9670   -8.3190  -27.9280 N   0  0  0  0  0  0  0  0  0  0  0  0
    3.8410   -8.6380  -28.3310 H   0  0  0  0  0  0  0  0  0  0  0  0
   -0.4370   -4.7400  -26.7870 C   0  0  0  0  0  0  0  0  0  0  0  0
    0.7110   -4.2110  -27.3750 C   0  0  0  0  0  3  0  0  0  0  0  0
    1.6040   -5.0590  -28.0280 C   0  0  0  0  0  0  0  0  0  0  0  0
    2.6980   -4.5200  -28.5880 F   0  0  0  0  0  0  0  0  0  0  0  0
    1.3810   -6.4340  -28.0800 C   0  0  0  0  0  0  0  0  0  0  0  0
    0.2110   -6.9490  -27.5390 C   0  0  0  0  0  0  0  0  0  0  0  0
   -0.0390   -8.2660  -27.5650 F   0  0  0  0  0  0  0  0  0  0  0  0
   -0.6970   -6.1100  -26.8970 C   0  0  0  0  0  3  0  0  0  0  0  0
   -1.1870   -2.6220  -26.0210 C   0  0  0  0  0  1  0  0  0  0  0  0
   -1.3770   -4.0310  -26.0940 O   0  0  0  0  0  0  0  0  0  0  0  0
    1.1970  -11.9410  -24.9540 C   0  0  0  0  0  2  0  0  0  0  0  0
   -0.2350  -12.0390  -25.1770 N   0  0  0  0  0  0  0  0  0  0  0  0
   -0.6200  -12.9160  -25.4830 H   0  0  0  0  0  0  0  0  0  0  0  0
   -1.0590  -11.0490  -24.6620 C   0  0  0  0  0  0  0  0  0  0  0  0
   -1.4080  -10.0600  -25.5050 N   0  0  0  0  0  0  0  0  0  0  0  0
   -1.9100   -8.9540  -24.9610 C   0  0  0  0  0  3  0  0  0  0  0  0
   -2.0080   -8.7090  -23.6540 N   0  0  0  0  0  0  0  0  0  0  0  0
   -1.6990   -9.7100  -22.8080 C   0  0  0  0  0  0  0  0  0  0  0  0
   -1.7340   -9.5310  -21.4210 C   0  0  0  0  0  0  0  0  0  0  0  0
   -1.5130  -10.5710  -20.5080 C   0  0  0  0  0  3  0  0  0  0  0  0
   -1.1800  -11.8300  -20.9790 C   0  0  0  0  0  3  0  0  0  0  0  0
   -1.0310  -12.0180  -22.3500 C   0  0  0  0  0  3  0  0  0  0  0  0
   -1.2800  -10.9650  -23.2740 C   0  0  0  0  0  0  0  0  0  0  0  0
   -1.8880   -8.1800  -20.8440 C   0  0  0  0  0  0  0  0  0  0  0  0
   -1.4930   -7.1560  -21.6690 N   0  0  0  0  0  0  0  0  0  0  0  0
   -2.2220   -8.0060  -19.6930 O   0  0  0  0  0  0  0  0  0  0  0  0
   -1.5390   -6.2120  -21.3100 H   0  0  0  0  0  0  0  0  0  0  0  0
   -1.1880   -7.3050  -22.6190 H   0  0  0  0  0  0  0  0  0  0  0  0
  1  6  2  0  0  0  0
  1  2  1  0  0  0  0
  2  3  2  0  0  0  0
  3  4  1  0  0  0  0
  5 21  1  0  0  0  0
  5  4  2  0  0  0  0
  6  5  1  0  0  0  0
  7 15  1  0  0  0  0
  7  9  1  0  0  0  0
  8  7  2  0  0  0  0
  9  1  1  0  0  0  0
 10  9  1  0  0  0  0
 11 20  1  0  0  0  0
 12 11  2  0  0  0  0
 13 12  1  0  0  0  0
 14 13  1  0  0  0  0
 15 13  2  0  0  0  0
 15 16  1  0  0  0  0
 16 18  2  0  0  0  0
 17 16  1  0  0  0  0
 18 11  1  0  0  0  0
 20 19  1  0  0  0  0
 22 21  1  0  0  0  0
 22 24  1  0  0  0  0
 23 22  1  0  0  0  0
 24 33  1  0  0  0  0
 25 26  1  0  0  0  0
 25 24  2  0  0  0  0
 26 27  2  0  0  0  0
 27 28  1  0  0  0  0
 28 29  1  0  0  0  0
 29 34  1  0  0  0  0
 29 30  2  0  0  0  0
 31 30  1  0  0  0  0
 32 31  2  0  0  0  0
 33 28  2  0  0  0  0
 33 32  1  0  0  0  0
 34 36  2  0  0  0  0
 35 37  1  0  0  0  0
 35 34  1  0  0  0  0
 38 35  1  0  0  0  0
M  END
>  <minimizedAffinity>
-7.73068333

$$$$

 OpenBabel10152418293D

 38 41  0  0  0  0  0  0  0  0999 V2000
    0.7210  -11.0280  -26.0940 C   0  0  0  0  0  0  0  0  0  0  0  0
    1.2540  -11.9300  -25.1730 C   0  0  0  0  0  3  0  0  0  0  0  0
    2.6250  -11.9550  -24.9410 C   0  0  0  0  0  3  0  0  0  0  0  0
    3.4560  -11.0530  -25.6010 C   0  0  0  0  0  3  0  0  0  0  0  0
    2.9340  -10.0580  -26.4420 C   0  0  0  0  0  0  0  0  0  0  0  0
    1.5510  -10.0590  -26.6760 C   0  0  0  0  0  3  0  0  0  0  0  0
   -1.7540  -10.8820  -25.6390 C   0  0  0  0  0  0  0  0  0  0  0  0
   -2.8770  -11.1940  -26.0230 O   0  0  0  0  0  0  0  0  0  0  0  0
   -0.6430  -11.1630  -26.4060 N   0  0  0  0  0  0  0  0  0  0  0  0
   -0.8840  -11.4010  -27.3620 H   0  0  0  0  0  0  0  0  0  0  0  0
   -1.5170   -8.5850  -22.0500 C   0  0  0  0  0  0  0  0  0  0  0  0
   -1.3470   -9.9680  -22.0020 C   0  0  0  0  0  3  0  0  0  0  0  0
   -1.3870  -10.7090  -23.1830 C   0  0  0  0  0  0  0  0  0  0  0  0
   -1.2150  -12.0370  -23.1050 F   0  0  0  0  0  0  0  0  0  0  0  0
   -1.6200  -10.0900  -24.4090 C   0  0  0  0  0  0  0  0  0  0  0  0
   -1.7360   -8.7080  -24.4590 C   0  0  0  0  0  0  0  0  0  0  0  0
   -1.9660   -8.0760  -25.6190 F   0  0  0  0  0  0  0  0  0  0  0  0
   -1.6840   -7.9550  -23.2880 C   0  0  0  0  0  3  0  0  0  0  0  0
   -1.9830   -8.2980  -19.7390 C   0  0  0  0  0  1  0  0  0  0  0  0
   -1.5310   -7.7460  -20.9720 O   0  0  0  0  0  0  0  0  0  0  0  0
    3.8370   -9.0390  -27.1220 C   0  0  0  0  0  2  0  0  0  0  0  0
    3.5410   -7.6800  -26.6990 N   0  0  0  0  0  0  0  0  0  0  0  0
    4.2390   -7.1680  -26.1870 H   0  0  0  0  0  0  0  0  0  0  0  0
    2.4660   -7.0210  -27.2780 C   0  0  0  0  0  0  0  0  0  0  0  0
    2.5690   -6.7410  -28.5890 N   0  0  0  0  0  0  0  0  0  0  0  0
    1.7220   -5.8400  -29.0810 C   0  0  0  0  0  3  0  0  0  0  0  0
    0.8480   -5.1280  -28.3680 N   0  0  0  0  0  0  0  0  0  0  0  0
    0.7130   -5.4330  -27.0640 C   0  0  0  0  0  0  0  0  0  0  0  0
   -0.1490   -4.7130  -26.2300 C   0  0  0  0  0  0  0  0  0  0  0  0
   -0.3890   -5.0590  -24.8940 C   0  0  0  0  0  3  0  0  0  0  0  0
    0.2970   -6.1220  -24.3320 C   0  0  0  0  0  3  0  0  0  0  0  0
    1.2420   -6.7950  -25.1020 C   0  0  0  0  0  3  0  0  0  0  0  0
    1.4650   -6.4560  -26.4650 C   0  0  0  0  0  0  0  0  0  0  0  0
   -0.7640   -3.4540  -26.6980 C   0  0  0  0  0  0  0  0  0  0  0  0
    0.1040   -2.5850  -27.3120 N   0  0  0  0  0  0  0  0  0  0  0  0
   -1.9140   -3.1680  -26.4490 O   0  0  0  0  0  0  0  0  0  0  0  0
   -0.2540   -1.6910  -27.6160 H   0  0  0  0  0  0  0  0  0  0  0  0
    1.0700   -2.8140  -27.4930 H   0  0  0  0  0  0  0  0  0  0  0  0
  1  2  1  0  0  0  0
  2  3  2  0  0  0  0
  4  3  1  0  0  0  0
  5  4  2  0  0  0  0
  6  5  1  0  0  0  0
  6  1  2  0  0  0  0
  7 15  1  0  0  0  0
  8  7  2  0  0  0  0
  9  1  1  0  0  0  0
  9  7  1  0  0  0  0
 10  9  1  0  0  0  0
 11 12  1  0  0  0  0
 11 20  1  0  0  0  0
 13 14  1  0  0  0  0
 13 12  2  0  0  0  0
 15 13  1  0  0  0  0
 16 15  2  0  0  0  0
 16 18  1  0  0  0  0
 17 16  1  0  0  0  0
 18 11  2  0  0  0  0
 20 19  1  0  0  0  0
 21 22  1  0  0  0  0
 21  5  1  0  0  0  0
 22 23  1  0  0  0  0
 24 22  1  0  0  0  0
 24 33  1  0  0  0  0
 25 24  2  0  0  0  0
 26 25  1  0  0  0  0
 26 27  2  0  0  0  0
 27 28  1  0  0  0  0
 28 33  2  0  0  0  0
 28 29  1  0  0  0  0
 29 30  2  0  0  0  0
 30 31  1  0  0  0  0
 32 31  2  0  0  0  0
 33 32  1  0  0  0  0
 34 36  2  0  0  0  0
 34 29  1  0  0  0  0
 35 34  1  0  0  0  0
 37 35  1  0  0  0  0
 38 35  1  0  0  0  0
M  END
>  <minimizedAffinity>
-7.29795218

$$$$

 OpenBabel10152418293D

 38 41  0  0  0  0  0  0  0  0999 V2000
   -1.7890   -8.5420  -22.5850 C   0  0  0  0  0  0  0  0  0  0  0  0
   -1.4750   -7.4880  -21.7270 C   0  0  0  0  0  3  0  0  0  0  0  0
   -1.0220   -6.2810  -22.2470 C   0  0  0  0  0  3  0  0  0  0  0  0
   -0.9200   -6.1160  -23.6270 C   0  0  0  0  0  3  0  0  0  0  0  0
   -1.3400   -7.1170  -24.5160 C   0  0  0  0  0  0  0  0  0  0  0  0
   -1.7790   -8.3330  -23.9720 C   0  0  0  0  0  3  0  0  0  0  0  0
   -1.8370  -11.0580  -22.4590 C   0  0  0  0  0  0  0  0  0  0  0  0
   -2.2880  -12.0370  -21.8710 O   0  0  0  0  0  0  0  0  0  0  0  0
   -2.0810   -9.7830  -21.9940 N   0  0  0  0  0  0  0  0  0  0  0  0
   -2.4260   -9.7790  -21.0400 H   0  0  0  0  0  0  0  0  0  0  0  0
    0.8460  -11.5270  -25.7440 C   0  0  0  0  0  0  0  0  0  0  0  0
    1.2670  -11.8420  -24.4530 C   0  0  0  0  0  3  0  0  0  0  0  0
    0.3740  -11.7240  -23.3880 C   0  0  0  0  0  0  0  0  0  0  0  0
    0.8080  -12.0380  -22.1580 F   0  0  0  0  0  0  0  0  0  0  0  0
   -0.9280  -11.2700  -23.5920 C   0  0  0  0  0  0  0  0  0  0  0  0
   -1.3580  -11.0080  -24.8850 C   0  0  0  0  0  0  0  0  0  0  0  0
   -2.6020  -10.5660  -25.1210 F   0  0  0  0  0  0  0  0  0  0  0  0
   -0.4800  -11.1370  -25.9580 C   0  0  0  0  0  3  0  0  0  0  0  0
    3.0220  -11.7390  -26.6710 C   0  0  0  0  0  1  0  0  0  0  0  0
    1.6220  -11.5690  -26.8680 O   0  0  0  0  0  0  0  0  0  0  0  0
   -1.2780   -6.9180  -26.0240 C   0  0  0  0  0  2  0  0  0  0  0  0
   -0.7480   -5.6130  -26.3800 N   0  0  0  0  0  0  0  0  0  0  0  0
   -1.0930   -4.8000  -25.8990 H   0  0  0  0  0  0  0  0  0  0  0  0
    0.4240   -5.5490  -27.1210 C   0  0  0  0  0  0  0  0  0  0  0  0
    0.3970   -4.7740  -28.2190 N   0  0  0  0  0  0  0  0  0  0  0  0
    1.3740   -4.9520  -29.1060 C   0  0  0  0  0  3  0  0  0  0  0  0
    2.3170   -5.8930  -29.0410 N   0  0  0  0  0  0  0  0  0  0  0  0
    2.3720   -6.6440  -27.9250 C   0  0  0  0  0  0  0  0  0  0  0  0
    3.3010   -7.6810  -27.7860 C   0  0  0  0  0  0  0  0  0  0  0  0
    3.4530   -8.4200  -26.6060 C   0  0  0  0  0  3  0  0  0  0  0  0
    2.6110   -8.1730  -25.5350 C   0  0  0  0  0  3  0  0  0  0  0  0
    1.6050   -7.2220  -25.6750 C   0  0  0  0  0  3  0  0  0  0  0  0
    1.4700   -6.4560  -26.8660 C   0  0  0  0  0  0  0  0  0  0  0  0
    4.0960   -8.1330  -28.9460 C   0  0  0  0  0  0  0  0  0  0  0  0
    4.8830   -7.1630  -29.5150 N   0  0  0  0  0  0  0  0  0  0  0  0
    3.9670   -9.2400  -29.4220 O   0  0  0  0  0  0  0  0  0  0  0  0
    5.4180   -7.4070  -30.3370 H   0  0  0  0  0  0  0  0  0  0  0  0
    4.9670   -6.2330  -29.1340 H   0  0  0  0  0  0  0  0  0  0  0  0
  1  9  1  0  0  0  0
  1  2  1  0  0  0  0
  3  2  2  0  0  0  0
  4  3  1  0  0  0  0
  5  6  1  0  0  0  0
  5  4  2  0  0  0  0
  6  1  2  0  0  0  0
  7  9  1  0  0  0  0
  7  8  2  0  0  0  0
  9 10  1  0  0  0  0
 11 12  1  0  0  0  0
 12 13  2  0  0  0  0
 13 14  1  0  0  0  0
 15 13  1  0  0  0  0
 15  7  1  0  0  0  0
 16 15  2  0  0  0  0
 17 16  1  0  0  0  0
 18 11  2  0  0  0  0
 18 16  1  0  0  0  0
 20 19  1  0  0  0  0
 20 11  1  0  0  0  0
 21  5  1  0  0  0  0
 22 21  1  0  0  0  0
 22 23  1  0  0  0  0
 24 33  1  0  0  0  0
 24 22  1  0  0  0  0
 25 24  2  0  0  0  0
 26 27  2  0  0  0  0
 26 25  1  0  0  0  0
 27 28  1  0  0  0  0
 28 29  2  0  0  0  0
 28 33  1  0  0  0  0
 29 30  1  0  0  0  0
 30 31  2  0  0  0  0
 32 31  1  0  0  0  0
 33 32  2  0  0  0  0
 34 29  1  0  0  0  0
 35 38  1  0  0  0  0
 35 34  1  0  0  0  0
 36 34  2  0  0  0  0
 37 35  1  0  0  0  0
M  END
>  <minimizedAffinity>
-6.64443922

$$$$

 OpenBabel10152418293D

 38 41  0  0  0  0  0  0  0  0999 V2000
    3.2240   -9.8490  -26.6520 C   0  0  0  0  0  0  0  0  0  0  0  0
    2.6630  -10.4490  -27.7790 C   0  0  0  0  0  3  0  0  0  0  0  0
    1.8350  -11.5570  -27.6350 C   0  0  0  0  0  3  0  0  0  0  0  0
    1.5370  -12.0390  -26.3620 C   0  0  0  0  0  3  0  0  0  0  0  0
    1.9920  -11.3830  -25.2070 C   0  0  0  0  0  0  0  0  0  0  0  0
    2.8390  -10.2780  -25.3730 C   0  0  0  0  0  3  0  0  0  0  0  0
    4.0030   -7.5290  -27.2540 C   0  0  0  0  0  0  0  0  0  0  0  0
    4.9670   -6.8220  -27.5370 O   0  0  0  0  0  0  0  0  0  0  0  0
    4.1790   -8.8420  -26.8720 N   0  0  0  0  0  0  0  0  0  0  0  0
    5.1420   -9.0460  -26.6230 H   0  0  0  0  0  0  0  0  0  0  0  0
    0.1890   -5.6250  -27.0660 C   0  0  0  0  0  0  0  0  0  0  0  0
    0.8660   -5.7050  -28.2830 C   0  0  0  0  0  3  0  0  0  0  0  0
    2.0940   -6.3620  -28.3450 C   0  0  0  0  0  0  0  0  0  0  0  0
    2.7200   -6.4270  -29.5310 F   0  0  0  0  0  0  0  0  0  0  0  0
    2.6680   -6.9190  -27.2040 C   0  0  0  0  0  0  0  0  0  0  0  0
    1.9660   -6.8830  -26.0070 C   0  0  0  0  0  0  0  0  0  0  0  0
    2.4870   -7.4030  -24.8870 F   0  0  0  0  0  0  0  0  0  0  0  0
    0.7320   -6.2420  -25.9350 C   0  0  0  0  0  3  0  0  0  0  0  0
   -0.9420   -3.7110  -26.2300 C   0  0  0  0  0  1  0  0  0  0  0  0
   -1.0020   -4.9880  -26.8580 O   0  0  0  0  0  0  0  0  0  0  0  0
    1.6240  -11.8790  -23.8160 C   0  0  0  0  0  2  0  0  0  0  0  0
    0.1890  -12.0310  -23.6530 N   0  0  0  0  0  0  0  0  0  0  0  0
   -0.2390  -12.9060  -23.9020 H   0  0  0  0  0  0  0  0  0  0  0  0
   -0.4950  -11.1110  -22.8710 C   0  0  0  0  0  0  0  0  0  0  0  0
   -0.8210  -11.5050  -21.6270 N   0  0  0  0  0  0  0  0  0  0  0  0
   -1.7430  -10.7860  -20.9900 C   0  0  0  0  0  3  0  0  0  0  0  0
   -2.4310   -9.7710  -21.5120 N   0  0  0  0  0  0  0  0  0  0  0  0
   -2.0800   -9.3470  -22.7410 C   0  0  0  0  0  0  0  0  0  0  0  0
   -2.7720   -8.3150  -23.3840 C   0  0  0  0  0  0  0  0  0  0  0  0
   -2.3790   -7.7820  -24.6190 C   0  0  0  0  0  3  0  0  0  0  0  0
   -1.2940   -8.3290  -25.2820 C   0  0  0  0  0  3  0  0  0  0  0  0
   -0.6460   -9.4260  -24.7220 C   0  0  0  0  0  3  0  0  0  0  0  0
   -1.0340   -9.9490  -23.4560 C   0  0  0  0  0  0  0  0  0  0  0  0
   -4.0490   -7.8160  -22.8350 C   0  0  0  0  0  0  0  0  0  0  0  0
   -3.9860   -7.3880  -21.5320 N   0  0  0  0  0  0  0  0  0  0  0  0
   -5.0890   -7.8920  -23.4530 O   0  0  0  0  0  0  0  0  0  0  0  0
   -4.8390   -7.0740  -21.0930 H   0  0  0  0  0  0  0  0  0  0  0  0
   -3.1230   -7.3520  -21.0100 H   0  0  0  0  0  0  0  0  0  0  0  0
  1  6  1  0  0  0  0
  2  3  1  0  0  0  0
  2  1  2  0  0  0  0
  3  4  2  0  0  0  0
  4  5  1  0  0  0  0
  5 21  1  0  0  0  0
  6  5  2  0  0  0  0
  7 15  1  0  0  0  0
  7  9  1  0  0  0  0
  8  7  2  0  0  0  0
  9  1  1  0  0  0  0
  9 10  1  0  0  0  0
 11 20  1  0  0  0  0
 11 18  1  0  0  0  0
 12 11  2  0  0  0  0
 13 12  1  0  0  0  0
 13 15  2  0  0  0  0
 14 13  1  0  0  0  0
 15 16  1  0  0  0  0
 16 18  2  0  0  0  0
 16 17  1  0  0  0  0
 20 19  1  0  0  0  0
 21 22  1  0  0  0  0
 22 24  1  0  0  0  0
 23 22  1  0  0  0  0
 24 25  1  0  0  0  0
 25 26  2  0  0  0  0
 27 26  1  0  0  0  0
 28 27  2  0  0  0  0
 29 34  1  0  0  0  0
 29 28  1  0  0  0  0
 30 29  2  0  0  0  0
 31 32  2  0  0  0  0
 31 30  1  0  0  0  0
 32 33  1  0  0  0  0
 33 24  2  0  0  0  0
 33 28  1  0  0  0  0
 34 35  1  0  0  0  0
 35 37  1  0  0  0  0
 35 38  1  0  0  0  0
 36 34  2  0  0  0  0
M  END
>  <minimizedAffinity>
-6.62372684

$$$$
