
 OpenBabel10152418293D

 38 41  0  0  0  0  0  0  0  0999 V2000
    2.6180   -8.8100  -26.6580 C   0  0  0  0  0  0  0  0  0  0  0  0
    2.6900   -7.9160  -25.5900 C   0  0  0  0  0  3  0  0  0  0  0  0
    2.2080   -8.2890  -24.3400 C   0  0  0  0  0  3  0  0  0  0  0  0
    1.6910   -9.5690  -24.1500 C   0  0  0  0  0  3  0  0  0  0  0  0
    1.7140  -10.5270  -25.1760 C   0  0  0  0  0  0  0  0  0  0  0  0
    2.1900  -10.1270  -26.4340 C   0  0  0  0  0  3  0  0  0  0  0  0
    2.3680   -7.3350  -28.6860 C   0  0  0  0  0  0  0  0  0  0  0  0
    2.7250   -7.1290  -29.8430 O   0  0  0  0  0  0  0  0  0  0  0  0
    2.9670   -8.3190  -27.9280 N   0  0  0  0  0  0  0  0  0  0  0  0
    3.8410   -8.6380  -28.3310 H   0  0  0  0  0  0  0  0  0  0  0  0
   -0.4370   -4.7400  -26.7870 C   0  0  0  0  0  0  0  0  0  0  0  0
    0.7110   -4.2110  -27.3750 C   0  0  0  0  0  3  0  0  0  0  0  0
    1.6040   -5.0590  -28.0280 C   0  0  0  0  0  0  0  0  0  0  0  0
    2.6980   -4.5200  -28.5880 F   0  0  0  0  0  0  0  0  0  0  0  0
    1.3810   -6.4340  -28.0800 C   0  0  0  0  0  0  0  0  0  0  0  0
    0.2110   -6.9490  -27.5390 C   0  0  0  0  0  0  0  0  0  0  0  0
   -0.0390   -8.2660  -27.5650 F   0  0  0  0  0  0  0  0  0  0  0  0
   -0.6970   -6.1100  -26.8970 C   0  0  0  0  0  3  0  0  0  0  0  0
   -1.1870   -2.6220  -26.0210 C   0  0  0  0  0  1  0  0  0  0  0  0
   -1.3770   -4.0310  -26.0940 O   0  0  0  0  0  0  0  0  0  0  0  0
    1.1970  -11.9410  -24.9540 C   0  0  0  0  0  2  0  0  0  0  0  0
   -0.2350  -12.0390  -25.1770 N   0  0  0  0  0  0  0  0  0  0  0  0
   -0.6200  -12.9160  -25.4830 H   0  0  0  0  0  0  0  0  0  0  0  0
   -1.0590  -11.0490  -24.6620 C   0  0  0  0  0  0  0  0  0  0  0  0
   -1.4080  -10.0600  -25.5050 N   0  0  0  0  0  0  0  0  0  0  0  0
   -1.9100   -8.9540  -24.9610 C   0  0  0  0  0  3  0  0  0  0  0  0
   -2.0080   -8.7090  -23.6540 N   0  0  0  0  0  0  0  0  0  0  0  0
   -1.6990   -9.7100  -22.8080 C   0  0  0  0  0  0  0  0  0  0  0  0
   -1.7340   -9.5310  -21.4210 C   0  0  0  0  0  0  0  0  0  0  0  0
   -1.5130  -10.5710  -20.5080 C   0  0  0  0  0  3  0  0  0  0  0  0
   -1.1800  -11.8300  -20.9790 C   0  0  0  0  0  3  0  0  0  0  0  0
   -1.0310  -12.0180  -22.3500 C   0  0  0  0  0  3  0  0  0  0  0  0
   -1.2800  -10.9650  -23.2740 C   0  0  0  0  0  0  0  0  0  0  0  0
   -1.8880   -8.1800  -20.8440 C   0  0  0  0  0  0  0  0  0  0  0  0
   -1.4930   -7.1560  -21.6690 N   0  0  0  0  0  0  0  0  0  0  0  0
   -2.2220   -8.0060  -19.6930 O   0  0  0  0  0  0  0  0  0  0  0  0
   -1.5390   -6.2120  -21.3100 H   0  0  0  0  0  0  0  0  0  0  0  0
   -1.1880   -7.3050  -22.6190 H   0  0  0  0  0  0  0  0  0  0  0  0
  1  6  2  0  0  0  0
  1  2  1  0  0  0  0
  2  3  2  0  0  0  0
  3  4  1  0  0  0  0
  5 21  1  0  0  0  0
  5  4  2  0  0  0  0
  6  5  1  0  0  0  0
  7 15  1  0  0  0  0
  7  9  1  0  0  0  0
  8  7  2  0  0  0  0
  9  1  1  0  0  0  0
 10  9  1  0  0  0  0
 11 20  1  0  0  0  0
 12 11  2  0  0  0  0
 13 12  1  0  0  0  0
 14 13  1  0  0  0  0
 15 13  2  0  0  0  0
 15 16  1  0  0  0  0
 16 18  2  0  0  0  0
 17 16  1  0  0  0  0
 18 11  1  0  0  0  0
 20 19  1  0  0  0  0
 22 21  1  0  0  0  0
 22 24  1  0  0  0  0
 23 22  1  0  0  0  0
 24 33  1  0  0  0  0
 25 26  1  0  0  0  0
 25 24  2  0  0  0  0
 26 27  2  0  0  0  0
 27 28  1  0  0  0  0
 28 29  1  0  0  0  0
 29 34  1  0  0  0  0
 29 30  2  0  0  0  0
 31 30  1  0  0  0  0
 32 31  2  0  0  0  0
 33 28  2  0  0  0  0
 33 32  1  0  0  0  0
 34 36  2  0  0  0  0
 35 37  1  0  0  0  0
 35 34  1  0  0  0  0
 38 35  1  0  0  0  0
M  END
>  <minimizedAffinity>
-7.73068333

$$$$
