
 OpenBabel10152418293D

 38 41  0  0  0  0  0  0  0  0999 V2000
    1.4520  -11.4720  -25.1140 C   0  0  0  0  0  0  0  0  0  0  0  0
    0.7740  -11.9300  -26.2430 C   0  0  0  0  0  3  0  0  0  0  0  0
   -0.6040  -11.7680  -26.3370 C   0  0  0  0  0  3  0  0  0  0  0  0
   -1.2960  -11.1140  -25.3190 C   0  0  0  0  0  3  0  0  0  0  0  0
   -0.6240  -10.5410  -24.2290 C   0  0  0  0  0  0  0  0  0  0  0  0
    0.7640  -10.7280  -24.1440 C   0  0  0  0  0  3  0  0  0  0  0  0
    3.8680  -11.5000  -25.8340 C   0  0  0  0  0  0  0  0  0  0  0  0
    4.9740  -12.0010  -25.6570 O   0  0  0  0  0  0  0  0  0  0  0  0
    2.8120  -11.8120  -25.0030 N   0  0  0  0  0  0  0  0  0  0  0  0
    3.1150  -12.2620  -24.1460 H   0  0  0  0  0  0  0  0  0  0  0  0
    3.5670   -8.4520  -28.8050 C   0  0  0  0  0  0  0  0  0  0  0  0
    3.9020   -9.7530  -29.1770 C   0  0  0  0  0  3  0  0  0  0  0  0
    3.9610  -10.7530  -28.2070 C   0  0  0  0  0  0  0  0  0  0  0  0
    4.2830  -11.9970  -28.5950 F   0  0  0  0  0  0  0  0  0  0  0  0
    3.7150  -10.4660  -26.8650 C   0  0  0  0  0  0  0  0  0  0  0  0
    3.3300   -9.1820  -26.5080 C   0  0  0  0  0  0  0  0  0  0  0  0
    3.0890   -8.8650  -25.2280 F   0  0  0  0  0  0  0  0  0  0  0  0
    3.2530   -8.1770  -27.4700 C   0  0  0  0  0  3  0  0  0  0  0  0
    4.5340   -7.2630  -30.6190 C   0  0  0  0  0  1  0  0  0  0  0  0
    3.5030   -7.3750  -29.6440 O   0  0  0  0  0  0  0  0  0  0  0  0
   -1.3730   -9.7810  -23.1430 C   0  0  0  0  0  2  0  0  0  0  0  0
   -2.0260   -8.5920  -23.6620 N   0  0  0  0  0  0  0  0  0  0  0  0
   -3.0310   -8.5600  -23.6850 H   0  0  0  0  0  0  0  0  0  0  0  0
   -1.2810   -7.4300  -23.8020 C   0  0  0  0  0  0  0  0  0  0  0  0
   -1.2760   -6.5890  -22.7530 N   0  0  0  0  0  0  0  0  0  0  0  0
   -0.8540   -5.3470  -22.9770 C   0  0  0  0  0  3  0  0  0  0  0  0
   -0.5260   -4.8440  -24.1680 N   0  0  0  0  0  0  0  0  0  0  0  0
   -0.4910   -5.6910  -25.2140 C   0  0  0  0  0  0  0  0  0  0  0  0
   -0.1970   -5.2450  -26.5070 C   0  0  0  0  0  0  0  0  0  0  0  0
   -0.0550   -6.1070  -27.6020 C   0  0  0  0  0  3  0  0  0  0  0  0
   -0.2760   -7.4630  -27.4320 C   0  0  0  0  0  3  0  0  0  0  0  0
   -0.6740   -7.9290  -26.1830 C   0  0  0  0  0  3  0  0  0  0  0  0
   -0.7920   -7.0530  -25.0680 C   0  0  0  0  0  0  0  0  0  0  0  0
   -0.1430   -3.7980  -26.8050 C   0  0  0  0  0  0  0  0  0  0  0  0
   -1.1440   -3.0560  -26.2280 N   0  0  0  0  0  0  0  0  0  0  0  0
    0.6520   -3.3330  -27.5910 O   0  0  0  0  0  0  0  0  0  0  0  0
   -1.1800   -2.0670  -26.4310 H   0  0  0  0  0  0  0  0  0  0  0  0
   -1.8230   -3.4520  -25.5950 H   0  0  0  0  0  0  0  0  0  0  0  0
  1  9  1  0  0  0  0
  1  6  1  0  0  0  0
  2  1  2  0  0  0  0
  3  2  1  0  0  0  0
  3  4  2  0  0  0  0
  4  5  1  0  0  0  0
  5  6  2  0  0  0  0
  5 21  1  0  0  0  0
  7  8  2  0  0  0  0
  7  9  1  0  0  0  0
  9 10  1  0  0  0  0
 11 18  1  0  0  0  0
 12 11  2  0  0  0  0
 12 13  1  0  0  0  0
 13 15  2  0  0  0  0
 14 13  1  0  0  0  0
 15 16  1  0  0  0  0
 15  7  1  0  0  0  0
 16 17  1  0  0  0  0
 18 16  2  0  0  0  0
 19 20  1  0  0  0  0
 20 11  1  0  0  0  0
 22 21  1  0  0  0  0
 23 22  1  0  0  0  0
 24 22  1  0  0  0  0
 24 25  1  0  0  0  0
 26 25  2  0  0  0  0
 27 26  1  0  0  0  0
 28 33  1  0  0  0  0
 28 27  2  0  0  0  0
 29 28  1  0  0  0  0
 30 31  1  0  0  0  0
 30 29  2  0  0  0  0
 31 32  2  0  0  0  0
 32 33  1  0  0  0  0
 33 24  2  0  0  0  0
 34 29  1  0  0  0  0
 34 35  1  0  0  0  0
 35 38  1  0  0  0  0
 36 34  2  0  0  0  0
 37 35  1  0  0  0  0
M  END
>  <minimizedAffinity>
-9.12669754

$$$$
