
 OpenBabel11232419213D

 40 46  0  0  1  0  0  0  0  0999 V2000
   40.0580   45.1900   20.1980 C   0  0  0  0  0  0  0  0  0  0  0  0
   41.2450   45.4230   20.9080 C   0  0  0  0  0  3  0  0  0  0  0  0
   42.2210   46.2780   20.3920 C   0  0  0  0  0  3  0  0  0  0  0  0
   42.0310   46.8810   19.1520 C   0  0  0  0  0  3  0  0  0  0  0  0
   40.8720   46.6130   18.4240 C   0  0  0  0  0  0  0  0  0  0  0  0
   39.8660   45.7810   18.9440 C   0  0  0  0  0  0  0  0  0  0  0  0
   38.6760   45.6190   18.1240 C   0  0  0  0  0  0  0  0  0  0  0  0
   37.4730   45.1670   18.4180 N   0  0  0  0  0  0  0  0  0  0  0  0
   36.7560   45.2350   17.2460 C   0  0  0  0  0  0  0  0  0  0  0  0
   37.5180   45.7690   16.2150 C   0  0  0  0  0  0  0  0  0  0  0  0
   38.7250   46.0250   16.8160 N   0  0  0  0  0  0  0  0  0  0  0  0
   39.9340   46.5730   16.2380 C   0  0  0  0  0  2  0  0  0  0  0  0
   40.7530   47.2490   17.2100 O   0  0  0  0  0  0  0  0  0  0  0  0
   37.1980   46.0780   14.8280 C   0  0  0  0  0  0  0  0  0  0  0  0
   36.9650   47.4000   14.4300 C   0  0  0  0  0  3  0  0  0  0  0  0
   36.6800   47.6910   13.0940 C   0  0  0  0  0  3  0  0  0  0  0  0
   36.6250   46.6630   12.1520 C   0  0  0  0  0  3  0  0  0  0  0  0
   36.8570   45.3460   12.5420 C   0  0  0  0  0  3  0  0  0  0  0  0
   37.1440   45.0540   13.8770 C   0  0  0  0  0  3  0  0  0  0  0  0
   35.3720   44.8170   17.1470 C   0  0  0  0  0  0  0  0  0  0  0  0
   35.0190   43.6380   16.4970 C   0  0  0  0  0  3  0  0  0  0  0  0
   33.6730   43.2820   16.3400 C   0  0  0  0  0  3  0  0  0  0  0  0
   32.6130   44.0800   16.8320 C   0  0  0  0  0  0  0  0  0  0  0  0
   33.0170   45.2500   17.5210 C   0  0  0  0  0  3  0  0  0  0  0  0
   34.3620   45.6110   17.6840 C   0  0  0  0  0  3  0  0  0  0  0  0
   31.0530   43.7420   16.6080 C   0  0  1  0  0  0  0  0  0  0  0  0
   30.6600   42.7040   15.5250 C   0  0  0  0  0  2  0  0  0  0  0  0
   29.7660   41.9360   16.5570 C   0  0  1  0  0  0  0  0  0  0  0  0
   30.3820   42.8410   17.6760 C   0  0  0  0  0  2  0  0  0  0  0  0
   30.2960   45.0050   16.4140 N   0  0  0  0  0  4  0  0  0  0  0  0
   30.3270   45.5950   17.2550 H   0  0  0  0  0  0  0  0  0  0  0  0
   30.6850   45.5510   15.6320 H   0  0  0  0  0  0  0  0  0  0  0  0
   29.3050   44.8480   16.2020 H   0  0  0  0  0  0  0  0  0  0  0  0
   28.2430   42.0010   16.3680 C   0  0  0  0  0  3  0  0  0  0  0  0
   27.4120   41.1560   15.4360 C   0  0  0  0  0  2  0  0  0  0  0  0
   27.2160   41.0460   16.9190 C   0  0  0  0  0  2  0  0  0  0  0  0
   30.1670   40.5490   16.6940 O   0  0  0  0  0  0  0  0  0  0  0  0
   31.1270   40.5160   16.8500 H   0  0  0  0  0  0  0  0  0  0  0  0
   39.2660   44.1000   22.0870 C   0  0  0  0  0  1  0  0  0  0  0  0
   39.1280   44.3070   20.6840 O   0  0  0  0  0  0  0  0  0  0  0  0
  1 40  1  0  0  0  0
  1  2  1  0  0  0  0
  3  2  2  0  0  0  0
  4  3  1  0  0  0  0
  5  6  1  0  0  0  0
  5  4  2  0  0  0  0
  6  1  2  0  0  0  0
  7  8  2  0  0  0  0
  7  6  1  0  0  0  0
  9  8  1  0  0  0  0
 10 11  1  0  0  0  0
 10  9  2  0  0  0  0
 11  7  1  0  0  0  0
 12 11  1  0  0  0  0
 12 13  1  0  0  0  0
 13  5  1  0  0  0  0
 14 10  1  0  0  0  0
 15 14  1  0  0  0  0
 16 15  2  0  0  0  0
 17 18  2  0  0  0  0
 17 16  1  0  0  0  0
 18 19  1  0  0  0  0
 19 14  2  0  0  0  0
 20  9  1  0  0  0  0
 20 25  1  0  0  0  0
 21 20  2  0  0  0  0
 22 21  1  0  0  0  0
 22 23  2  0  0  0  0
 23 24  1  0  0  0  0
 24 25  2  0  0  0  0
 26 30  1  6  0  0  0
 26 23  1  0  0  0  0
 26 29  1  0  0  0  0
 27 28  1  0  0  0  0
 27 26  1  0  0  0  0
 28 37  1  1  0  0  0
 28 29  1  0  0  0  0
 30 31  1  0  0  0  0
 32 30  1  0  0  0  0
 33 30  1  0  0  0  0
 34 28  1  0  0  0  0
 34 36  1  0  0  0  0
 35 34  1  0  0  0  0
 35 36  1  0  0  0  0
 37 38  1  0  0  0  0
 40 39  1  0  0  0  0
M  END
>  <minimizedAffinity>
-12.2836761

$$$$
