
 OpenBabel11232420213D

 35 39  0  0  1  0  0  0  0  0999 V2000
   -2.9170    2.5320  -17.4170 O   0  0  0  0  0  0  0  0  0  0  0  0
   -4.2460   -0.1570  -19.6170 C   0  0  0  0  0  0  0  0  0  0  0  0
   -3.0820   -0.2990  -20.3670 C   0  0  0  0  0  3  0  0  0  0  0  0
   -1.9390    0.3890  -20.1410 N   0  0  0  0  0  0  0  0  0  0  0  0
   -1.9440    1.2640  -19.1130 C   0  0  0  0  0  3  0  0  0  0  0  0
   -3.0550    1.5240  -18.3200 C   0  0  0  0  0  0  0  0  0  0  0  0
   -4.2020    0.7760  -18.5630 C   0  0  0  0  0  3  0  0  0  0  0  0
   -7.5600   -4.6780  -17.9950 C   0  0  0  0  0  1  0  0  0  0  0  0
   -7.8450   -3.7430  -19.1110 C   0  0  0  0  0  0  0  0  0  0  0  0
   -8.9470   -3.9060  -19.8530 N   0  0  0  0  0  0  0  0  0  0  0  0
   -8.8900   -2.9110  -20.7510 N   0  0  0  0  0  0  0  0  0  0  0  0
   -7.7880   -2.1100  -20.6220 C   0  0  0  0  0  0  0  0  0  0  0  0
   -7.3610   -0.9990  -21.3280 C   0  0  0  0  0  3  0  0  0  0  0  0
   -6.2010   -0.3980  -20.9620 N   0  0  0  0  0  0  0  0  0  0  0  0
   -5.4820   -0.8970  -19.9130 C   0  0  0  0  0  0  0  0  0  0  0  0
   -5.8780   -2.0120  -19.1750 C   0  0  0  0  0  3  0  0  0  0  0  0
   -7.0750   -2.6330  -19.5520 C   0  0  0  0  0  0  0  0  0  0  0  0
   -9.6430   -2.8370  -21.4260 H   0  0  0  0  0  0  0  0  0  0  0  0
   -1.6730    2.7170  -16.7310 C   0  0  0  0  0  2  0  0  0  0  0  0
   -1.8730    2.5930  -15.2050 C   0  0  1  0  0  3  0  0  0  0  0  0
   -3.3440    2.5140  -14.8790 N   0  0  0  0  0  4  0  0  0  0  0  0
   -3.8190    1.7250  -15.3420 H   0  0  0  0  0  0  0  0  0  0  0  0
   -3.5150    2.4400  -13.8680 H   0  0  0  0  0  0  0  0  0  0  0  0
   -3.8220    3.3710  -15.1960 H   0  0  0  0  0  0  0  0  0  0  0  0
   -1.1750    1.3670  -14.5970 C   0  0  0  0  0  2  0  0  0  0  0  0
   -1.0570    0.2270  -15.5520 C   0  0  0  0  0  0  0  0  0  0  0  0
    0.0610   -0.0960  -16.2960 C   0  0  0  0  0  3  0  0  0  0  0  0
   -0.2160   -1.2200  -17.0290 N   0  0  0  0  0  0  0  0  0  0  0  0
   -1.4970   -1.6470  -16.7700 C   0  0  0  0  0  0  0  0  0  0  0  0
   -2.1910   -2.7520  -17.2740 C   0  0  0  0  0  3  0  0  0  0  0  0
   -3.5060   -2.9450  -16.8450 C   0  0  0  0  0  3  0  0  0  0  0  0
   -4.1040   -2.0590  -15.9540 C   0  0  0  0  0  3  0  0  0  0  0  0
   -3.3970   -0.9560  -15.4600 C   0  0  0  0  0  3  0  0  0  0  0  0
   -2.0610   -0.7470  -15.8650 C   0  0  0  0  0  0  0  0  0  0  0  0
    0.4190   -1.6750  -17.6720 H   0  0  0  0  0  0  0  0  0  0  0  0
  1 19  1  0  0  0  0
  2  7  1  0  0  0  0
  3  4  1  0  0  0  0
  3  2  2  0  0  0  0
  4  5  2  0  0  0  0
  5  6  1  0  0  0  0
  6  1  1  0  0  0  0
  7  6  2  0  0  0  0
  9  8  1  0  0  0  0
 10  9  2  0  0  0  0
 11 12  1  0  0  0  0
 11 10  1  0  0  0  0
 12 17  1  0  0  0  0
 13 14  1  0  0  0  0
 13 12  2  0  0  0  0
 14 15  2  0  0  0  0
 15  2  1  0  0  0  0
 15 16  1  0  0  0  0
 17 16  2  0  0  0  0
 17  9  1  0  0  0  0
 18 11  1  0  0  0  0
 20 19  1  6  0  0  0
 20 21  1  0  0  0  0
 20 25  1  0  0  0  0
 21 23  1  0  0  0  0
 22 21  1  0  0  0  0
 24 21  1  0  0  0  0
 26 25  1  0  0  0  0
 27 26  2  0  0  0  0
 28 29  1  0  0  0  0
 28 27  1  0  0  0  0
 29 34  1  0  0  0  0
 30 31  1  0  0  0  0
 30 29  2  0  0  0  0
 31 32  2  0  0  0  0
 32 33  1  0  0  0  0
 34 26  1  0  0  0  0
 34 33  2  0  0  0  0
 35 28  1  0  0  0  0
M  END
>  <minimizedAffinity>
-6.44703436

$$$$
