
 OpenBabel11232420213D

 35 39  0  0  1  0  0  0  0  0999 V2000
   -3.5870    1.7690  -19.1500 O   0  0  0  0  0  0  0  0  0  0  0  0
   -5.7530   -0.9700  -20.4300 C   0  0  0  0  0  0  0  0  0  0  0  0
   -5.6340   -0.6150  -21.7710 C   0  0  0  0  0  3  0  0  0  0  0  0
   -4.8680    0.4040  -22.2250 N   0  0  0  0  0  0  0  0  0  0  0  0
   -4.1760    1.1080  -21.3050 C   0  0  0  0  0  3  0  0  0  0  0  0
   -4.2460    0.8770  -19.9370 C   0  0  0  0  0  0  0  0  0  0  0  0
   -5.0190   -0.1970  -19.5100 C   0  0  0  0  0  3  0  0  0  0  0  0
   -6.1520   -5.4570  -16.7200 C   0  0  0  0  0  1  0  0  0  0  0  0
   -7.1930   -5.0280  -17.6860 C   0  0  0  0  0  0  0  0  0  0  0  0
   -8.3490   -5.6980  -17.7620 N   0  0  0  0  0  0  0  0  0  0  0  0
   -9.0400   -5.0560  -18.7160 N   0  0  0  0  0  0  0  0  0  0  0  0
   -8.3720   -3.9960  -19.2660 C   0  0  0  0  0  0  0  0  0  0  0  0
   -8.7210   -3.0920  -20.2540 C   0  0  0  0  0  3  0  0  0  0  0  0
   -7.8330   -2.1240  -20.5970 N   0  0  0  0  0  0  0  0  0  0  0  0
   -6.6220   -2.0620  -19.9680 C   0  0  0  0  0  0  0  0  0  0  0  0
   -6.2330   -2.9530  -18.9670 C   0  0  0  0  0  3  0  0  0  0  0  0
   -7.1490   -3.9510  -18.6120 C   0  0  0  0  0  0  0  0  0  0  0  0
   -9.9680   -5.3980  -18.9410 H   0  0  0  0  0  0  0  0  0  0  0  0
   -2.9890    1.3380  -17.9210 C   0  0  0  0  0  2  0  0  0  0  0  0
   -1.4480    1.3760  -18.0270 C   0  0  1  0  0  3  0  0  0  0  0  0
   -0.8690    2.1710  -16.8830 N   0  0  0  0  0  4  0  0  0  0  0  0
   -1.1300    1.7970  -15.9590 H   0  0  0  0  0  0  0  0  0  0  0  0
    0.1570    2.2240  -16.9270 H   0  0  0  0  0  0  0  0  0  0  0  0
   -1.2160    3.1410  -16.9150 H   0  0  0  0  0  0  0  0  0  0  0  0
   -0.8040   -0.0180  -18.0260 C   0  0  0  0  0  2  0  0  0  0  0  0
   -1.4400   -0.9590  -18.9920 C   0  0  0  0  0  0  0  0  0  0  0  0
   -2.2440   -2.0350  -18.6670 C   0  0  0  0  0  3  0  0  0  0  0  0
   -2.6540   -2.6360  -19.8290 N   0  0  0  0  0  0  0  0  0  0  0  0
   -2.1390   -1.9650  -20.9120 C   0  0  0  0  0  0  0  0  0  0  0  0
   -2.3070   -2.2110  -22.2800 C   0  0  0  0  0  3  0  0  0  0  0  0
   -1.6480   -1.3690  -23.1780 C   0  0  0  0  0  3  0  0  0  0  0  0
   -0.8450   -0.3270  -22.7220 C   0  0  0  0  0  3  0  0  0  0  0  0
   -0.6850   -0.0950  -21.3510 C   0  0  0  0  0  3  0  0  0  0  0  0
   -1.3520   -0.9220  -20.4220 C   0  0  0  0  0  0  0  0  0  0  0  0
   -3.2450   -3.4540  -19.8920 H   0  0  0  0  0  0  0  0  0  0  0  0
  1 19  1  0  0  0  0
  2 15  1  0  0  0  0
  2  7  1  0  0  0  0
  3  2  2  0  0  0  0
  4  3  1  0  0  0  0
  4  5  2  0  0  0  0
  5  6  1  0  0  0  0
  6  7  2  0  0  0  0
  6  1  1  0  0  0  0
  9  8  1  0  0  0  0
 10  9  2  0  0  0  0
 11 10  1  0  0  0  0
 12 11  1  0  0  0  0
 12 17  1  0  0  0  0
 13 12  2  0  0  0  0
 14 13  1  0  0  0  0
 14 15  2  0  0  0  0
 15 16  1  0  0  0  0
 16 17  2  0  0  0  0
 17  9  1  0  0  0  0
 18 11  1  0  0  0  0
 20 25  1  1  0  0  0
 20 19  1  0  0  0  0
 20 21  1  0  0  0  0
 21 22  1  0  0  0  0
 23 21  1  0  0  0  0
 24 21  1  0  0  0  0
 26 27  2  0  0  0  0
 26 25  1  0  0  0  0
 28 27  1  0  0  0  0
 29 34  1  0  0  0  0
 29 28  1  0  0  0  0
 30 29  2  0  0  0  0
 31 32  2  0  0  0  0
 31 30  1  0  0  0  0
 32 33  1  0  0  0  0
 33 34  2  0  0  0  0
 34 26  1  0  0  0  0
 35 28  1  0  0  0  0
M  END
>  <minimizedAffinity>
-5.27994728

$$$$
