
 OpenBabel11232420213D

 35 39  0  0  1  0  0  0  0  0999 V2000
   -1.9500    1.4630  -20.6740 O   0  0  0  0  0  0  0  0  0  0  0  0
   -3.1650   -2.0480  -20.4850 C   0  0  0  0  0  0  0  0  0  0  0  0
   -2.8490   -2.3660  -21.8030 C   0  0  0  0  0  3  0  0  0  0  0  0
   -2.2410   -1.5210  -22.6680 N   0  0  0  0  0  0  0  0  0  0  0  0
   -1.9230   -0.2950  -22.2040 C   0  0  0  0  0  3  0  0  0  0  0  0
   -2.2240    0.1540  -20.9240 C   0  0  0  0  0  0  0  0  0  0  0  0
   -2.8220   -0.7520  -20.0550 C   0  0  0  0  0  3  0  0  0  0  0  0
   -8.3960   -3.7300  -18.5200 C   0  0  0  0  0  1  0  0  0  0  0  0
   -7.0880   -4.3020  -18.1190 C   0  0  0  0  0  0  0  0  0  0  0  0
   -7.0410   -5.2940  -17.2210 N   0  0  0  0  0  0  0  0  0  0  0  0
   -5.7320   -5.5610  -17.0940 N   0  0  0  0  0  0  0  0  0  0  0  0
   -4.9270   -4.7750  -17.8720 C   0  0  0  0  0  0  0  0  0  0  0  0
   -3.5540   -4.7290  -18.0350 C   0  0  0  0  0  3  0  0  0  0  0  0
   -3.0280   -3.8230  -18.8980 N   0  0  0  0  0  0  0  0  0  0  0  0
   -3.8570   -2.9800  -19.5830 C   0  0  0  0  0  0  0  0  0  0  0  0
   -5.2450   -2.9950  -19.4480 C   0  0  0  0  0  3  0  0  0  0  0  0
   -5.7880   -3.9310  -18.5580 C   0  0  0  0  0  0  0  0  0  0  0  0
   -5.4590   -6.2990  -16.4550 H   0  0  0  0  0  0  0  0  0  0  0  0
   -1.0390    1.8170  -19.6260 C   0  0  0  0  0  2  0  0  0  0  0  0
   -1.7400    2.7140  -18.5820 C   0  0  1  0  0  3  0  0  0  0  0  0
   -3.2170    2.4090  -18.5430 N   0  0  0  0  0  4  0  0  0  0  0  0
   -3.4200    1.4230  -18.3240 H   0  0  0  0  0  0  0  0  0  0  0  0
   -3.7170    2.9960  -17.8620 H   0  0  0  0  0  0  0  0  0  0  0  0
   -3.6410    2.6000  -19.4630 H   0  0  0  0  0  0  0  0  0  0  0  0
   -1.1730    2.5520  -17.1630 C   0  0  0  0  0  2  0  0  0  0  0  0
   -2.1180    1.8740  -16.2280 C   0  0  0  0  0  0  0  0  0  0  0  0
   -2.9710    2.5010  -15.3410 C   0  0  0  0  0  3  0  0  0  0  0  0
   -3.6910    1.5400  -14.6810 N   0  0  0  0  0  0  0  0  0  0  0  0
   -3.3310    0.2910  -15.1290 C   0  0  0  0  0  0  0  0  0  0  0  0
   -3.8130   -0.9680  -14.7530 C   0  0  0  0  0  3  0  0  0  0  0  0
   -3.2510   -2.0890  -15.3670 C   0  0  0  0  0  3  0  0  0  0  0  0
   -2.2390   -1.9530  -16.3130 C   0  0  0  0  0  3  0  0  0  0  0  0
   -1.7650   -0.6870  -16.6770 C   0  0  0  0  0  3  0  0  0  0  0  0
   -2.3270    0.4640  -16.0830 C   0  0  0  0  0  0  0  0  0  0  0  0
   -4.3860    1.7120  -13.9660 H   0  0  0  0  0  0  0  0  0  0  0  0
  1 19  1  0  0  0  0
  2  7  1  0  0  0  0
  2 15  1  0  0  0  0
  3  2  2  0  0  0  0
  4  5  2  0  0  0  0
  4  3  1  0  0  0  0
  5  6  1  0  0  0  0
  6  1  1  0  0  0  0
  6  7  2  0  0  0  0
  8  9  1  0  0  0  0
  9 10  2  0  0  0  0
 10 11  1  0  0  0  0
 11 18  1  0  0  0  0
 12 11  1  0  0  0  0
 13 12  1  0  0  0  0
 14 13  2  0  0  0  0
 15 16  2  0  0  0  0
 15 14  1  0  0  0  0
 16 17  1  0  0  0  0
 17  9  1  0  0  0  0
 17 12  2  0  0  0  0
 20 19  1  6  0  0  0
 20 21  1  0  0  0  0
 20 25  1  0  0  0  0
 21 22  1  0  0  0  0
 21 23  1  0  0  0  0
 24 21  1  0  0  0  0
 25 26  1  0  0  0  0
 26 34  1  0  0  0  0
 26 27  2  0  0  0  0
 27 28  1  0  0  0  0
 28 35  1  0  0  0  0
 29 30  1  0  0  0  0
 29 28  1  0  0  0  0
 31 30  2  0  0  0  0
 32 31  1  0  0  0  0
 33 32  2  0  0  0  0
 33 34  1  0  0  0  0
 34 29  2  0  0  0  0
M  END
>  <minimizedAffinity>
-5.61457014

$$$$
