
 OpenBabel11232420213D

 35 39  0  0  1  0  0  0  0  0999 V2000
   -2.7280    2.1140  -19.0520 O   0  0  0  0  0  0  0  0  0  0  0  0
   -4.6480   -0.7630  -20.4200 C   0  0  0  0  0  0  0  0  0  0  0  0
   -3.8380   -0.9400  -21.5380 C   0  0  0  0  0  3  0  0  0  0  0  0
   -2.7260   -0.2150  -21.7980 N   0  0  0  0  0  0  0  0  0  0  0  0
   -2.3920    0.7370  -20.9020 C   0  0  0  0  0  3  0  0  0  0  0  0
   -3.1420    1.0360  -19.7710 C   0  0  0  0  0  0  0  0  0  0  0  0
   -4.2610    0.2490  -19.5210 C   0  0  0  0  0  3  0  0  0  0  0  0
   -6.9390   -5.1470  -17.3240 C   0  0  0  0  0  1  0  0  0  0  0  0
   -7.6480   -4.3340  -18.3420 C   0  0  0  0  0  0  0  0  0  0  0  0
   -8.9320   -4.5880  -18.6230 N   0  0  0  0  0  0  0  0  0  0  0  0
   -9.2470   -3.6870  -19.5660 N   0  0  0  0  0  0  0  0  0  0  0  0
   -8.2130   -2.8610  -19.9120 C   0  0  0  0  0  0  0  0  0  0  0  0
   -8.1210   -1.8210  -20.8200 C   0  0  0  0  0  3  0  0  0  0  0  0
   -6.9380   -1.1680  -20.9480 N   0  0  0  0  0  0  0  0  0  0  0  0
   -5.8690   -1.5480  -20.1870 C   0  0  0  0  0  0  0  0  0  0  0  0
   -5.9210   -2.5890  -19.2600 C   0  0  0  0  0  3  0  0  0  0  0  0
   -7.1420   -3.2620  -19.1260 C   0  0  0  0  0  0  0  0  0  0  0  0
  -10.1940   -3.6930  -19.9290 H   0  0  0  0  0  0  0  0  0  0  0  0
   -1.5520    2.0260  -18.2390 C   0  0  0  0  0  2  0  0  0  0  0  0
   -1.8700    2.4310  -16.7820 C   0  0  1  0  0  3  0  0  0  0  0  0
   -3.3540    2.6420  -16.6150 N   0  0  0  0  0  4  0  0  0  0  0  0
   -3.9100    1.8100  -16.8570 H   0  0  0  0  0  0  0  0  0  0  0  0
   -3.6010    2.9230  -15.6560 H   0  0  0  0  0  0  0  0  0  0  0  0
   -3.6750    3.4010  -17.2350 H   0  0  0  0  0  0  0  0  0  0  0  0
   -1.4070    1.3940  -15.7480 C   0  0  0  0  0  2  0  0  0  0  0  0
   -2.4030    0.3080  -15.5200 C   0  0  0  0  0  0  0  0  0  0  0  0
   -3.3800    0.2940  -14.5440 C   0  0  0  0  0  3  0  0  0  0  0  0
   -4.1080   -0.8600  -14.6770 N   0  0  0  0  0  0  0  0  0  0  0  0
   -3.6310   -1.5990  -15.7320 C   0  0  0  0  0  0  0  0  0  0  0  0
   -4.0750   -2.8250  -16.2400 C   0  0  0  0  0  3  0  0  0  0  0  0
   -3.3870   -3.3660  -17.3290 C   0  0  0  0  0  3  0  0  0  0  0  0
   -2.2910   -2.7080  -17.8790 C   0  0  0  0  0  3  0  0  0  0  0  0
   -1.8570   -1.4830  -17.3590 C   0  0  0  0  0  3  0  0  0  0  0  0
   -2.5440   -0.9070  -16.2690 C   0  0  0  0  0  0  0  0  0  0  0  0
   -4.8830   -1.1380  -14.0890 H   0  0  0  0  0  0  0  0  0  0  0  0
  1 19  1  0  0  0  0
  2 15  1  0  0  0  0
  2  7  1  0  0  0  0
  3  2  2  0  0  0  0
  4  3  1  0  0  0  0
  4  5  2  0  0  0  0
  5  6  1  0  0  0  0
  6  7  2  0  0  0  0
  6  1  1  0  0  0  0
  9  8  1  0  0  0  0
 10  9  2  0  0  0  0
 11 10  1  0  0  0  0
 12 11  1  0  0  0  0
 12 17  1  0  0  0  0
 13 12  2  0  0  0  0
 14 13  1  0  0  0  0
 14 15  2  0  0  0  0
 15 16  1  0  0  0  0
 16 17  2  0  0  0  0
 17  9  1  0  0  0  0
 18 11  1  0  0  0  0
 20 19  1  6  0  0  0
 20 21  1  0  0  0  0
 20 25  1  0  0  0  0
 21 23  1  0  0  0  0
 22 21  1  0  0  0  0
 24 21  1  0  0  0  0
 25 26  1  0  0  0  0
 26 27  2  0  0  0  0
 28 27  1  0  0  0  0
 28 35  1  0  0  0  0
 29 28  1  0  0  0  0
 30 29  1  0  0  0  0
 31 30  2  0  0  0  0
 32 33  2  0  0  0  0
 32 31  1  0  0  0  0
 33 34  1  0  0  0  0
 34 29  2  0  0  0  0
 34 26  1  0  0  0  0
M  END
>  <minimizedAffinity>
-6.12338352

$$$$
