
 OpenBabel11232420213D

 35 39  0  0  1  0  0  0  0  0999 V2000
   -5.5990   -3.6170  -17.9570 O   0  0  0  0  0  0  0  0  0  0  0  0
   -5.6470   -1.3140  -20.8770 C   0  0  0  0  0  0  0  0  0  0  0  0
   -7.0220   -1.3900  -21.0810 C   0  0  0  0  0  3  0  0  0  0  0  0
   -7.8720   -2.0940  -20.2970 N   0  0  0  0  0  0  0  0  0  0  0  0
   -7.3350   -2.7570  -19.2520 C   0  0  0  0  0  3  0  0  0  0  0  0
   -5.9750   -2.7910  -18.9700 C   0  0  0  0  0  0  0  0  0  0  0  0
   -5.1370   -2.0310  -19.7790 C   0  0  0  0  0  3  0  0  0  0  0  0
   -1.4240    2.7100  -21.0550 C   0  0  0  0  0  1  0  0  0  0  0  0
   -2.0040    2.0010  -22.2220 C   0  0  0  0  0  0  0  0  0  0  0  0
   -1.5610    2.2730  -23.4550 N   0  0  0  0  0  0  0  0  0  0  0  0
   -2.2870    1.4730  -24.2500 N   0  0  0  0  0  0  0  0  0  0  0  0
   -3.1900    0.6950  -23.5790 C   0  0  0  0  0  0  0  0  0  0  0  0
   -4.1080   -0.2450  -24.0120 C   0  0  0  0  0  3  0  0  0  0  0  0
   -4.8850   -0.8730  -23.0930 N   0  0  0  0  0  0  0  0  0  0  0  0
   -4.7490   -0.5660  -21.7690 C   0  0  0  0  0  0  0  0  0  0  0  0
   -3.8350    0.3730  -21.2910 C   0  0  0  0  0  3  0  0  0  0  0  0
   -3.0330    1.0200  -22.2390 C   0  0  0  0  0  0  0  0  0  0  0  0
   -2.1110    1.5100  -25.2480 H   0  0  0  0  0  0  0  0  0  0  0  0
   -4.2990   -4.2190  -17.9660 C   0  0  0  0  0  2  0  0  0  0  0  0
   -3.3310   -3.4280  -17.0580 C   0  0  1  0  0  3  0  0  0  0  0  0
   -2.2450   -2.7900  -17.8890 N   0  0  0  0  0  4  0  0  0  0  0  0
   -2.6110   -2.1580  -18.6160 H   0  0  0  0  0  0  0  0  0  0  0  0
   -1.5760   -2.2610  -17.3140 H   0  0  0  0  0  0  0  0  0  0  0  0
   -1.7020   -3.5170  -18.3780 H   0  0  0  0  0  0  0  0  0  0  0  0
   -4.0260   -2.3290  -16.2410 C   0  0  0  0  0  2  0  0  0  0  0  0
   -3.1330   -1.1730  -15.9350 C   0  0  0  0  0  0  0  0  0  0  0  0
   -2.1470   -1.1430  -14.9680 C   0  0  0  0  0  3  0  0  0  0  0  0
   -1.5340    0.0820  -15.0140 N   0  0  0  0  0  0  0  0  0  0  0  0
   -2.0950    0.8530  -16.0030 C   0  0  0  0  0  0  0  0  0  0  0  0
   -1.7760    2.1520  -16.4140 C   0  0  0  0  0  3  0  0  0  0  0  0
   -2.5290    2.7090  -17.4510 C   0  0  0  0  0  3  0  0  0  0  0  0
   -3.5660    1.9950  -18.0440 C   0  0  0  0  0  3  0  0  0  0  0  0
   -3.8750    0.6970  -17.6200 C   0  0  0  0  0  3  0  0  0  0  0  0
   -3.1190    0.1050  -16.5850 C   0  0  0  0  0  0  0  0  0  0  0  0
   -0.7800    0.3860  -14.4110 H   0  0  0  0  0  0  0  0  0  0  0  0
  2  7  1  0  0  0  0
  3  2  2  0  0  0  0
  3  4  1  0  0  0  0
  4  5  2  0  0  0  0
  5  6  1  0  0  0  0
  6  1  1  0  0  0  0
  7  6  2  0  0  0  0
  9  8  1  0  0  0  0
 10  9  2  0  0  0  0
 11 12  1  0  0  0  0
 11 10  1  0  0  0  0
 12 17  1  0  0  0  0
 13 12  2  0  0  0  0
 13 14  1  0  0  0  0
 14 15  2  0  0  0  0
 15 16  1  0  0  0  0
 15  2  1  0  0  0  0
 17  9  1  0  0  0  0
 17 16  2  0  0  0  0
 18 11  1  0  0  0  0
 19  1  1  0  0  0  0
 20 19  1  6  0  0  0
 20 25  1  0  0  0  0
 21 23  1  0  0  0  0
 21 20  1  0  0  0  0
 22 21  1  0  0  0  0
 24 21  1  0  0  0  0
 25 26  1  0  0  0  0
 26 27  2  0  0  0  0
 28 27  1  0  0  0  0
 28 35  1  0  0  0  0
 29 28  1  0  0  0  0
 30 29  1  0  0  0  0
 31 30  2  0  0  0  0
 32 33  2  0  0  0  0
 32 31  1  0  0  0  0
 33 34  1  0  0  0  0
 34 29  2  0  0  0  0
 34 26  1  0  0  0  0
M  END
>  <minimizedAffinity>
-5.66282845

$$$$
