
 OpenBabel10152419033D

 37 40  0  0  1  0  0  0  0  0999 V2000
    6.7780  -10.1480    7.5910 C   0  0  2  0  0  3  0  0  0  0  0  0
    6.9330   -8.7380    7.0090 C   0  0  0  0  0  1  0  0  0  0  0  0
    4.0330  -11.4830    9.9190 C   0  0  0  0  0  0  0  0  0  0  0  0
    2.9340  -10.7270    9.4960 C   0  0  0  0  0  3  0  0  0  0  0  0
    3.0920   -9.7170    8.5510 C   0  0  0  0  0  3  0  0  0  0  0  0
    4.3370   -9.5050    7.9640 C   0  0  0  0  0  3  0  0  0  0  0  0
    5.4410  -10.3000    8.3170 C   0  0  0  0  0  0  0  0  0  0  0  0
    5.2870  -11.2590    9.3400 C   0  0  0  0  0  3  0  0  0  0  0  0
    4.5610  -13.1160   11.7720 C   0  0  0  0  0  0  0  0  0  0  0  0
    4.3080  -14.2740   12.1130 O   0  0  0  0  0  0  0  0  0  0  0  0
    3.7750  -12.5170   10.8300 N   0  0  0  0  0  0  0  0  0  0  0  0
    2.8810  -12.9840   10.7340 H   0  0  0  0  0  0  0  0  0  0  0  0
    9.0550  -10.0380   13.4850 C   0  0  0  0  0  1  0  0  0  0  0  0
    7.7060  -10.7020   13.7670 C   0  0  0  0  0  0  0  0  0  0  0  0
    7.8300  -12.2390   13.6680 C   0  0  0  0  0  3  0  0  0  0  0  0
    6.6300  -12.9610   13.1180 C   0  0  0  0  0  3  0  0  0  0  0  0
    5.5970  -12.3290   12.5290 C   0  0  0  0  0  0  0  0  0  0  0  0
    5.6450  -10.8870   12.3600 C   0  0  0  0  0  3  0  0  0  0  0  0
    6.6060  -10.1330   12.9110 C   0  0  0  0  0  0  0  0  0  0  0  0
    6.5680   -8.7970   12.6980 F   0  0  0  0  0  0  0  0  0  0  0  0
    7.8700  -10.4080    8.5140 N   0  0  0  0  0  0  0  0  0  0  0  0
    8.5590   -9.7000    8.7050 H   0  0  0  0  0  0  0  0  0  0  0  0
    8.0020  -11.6770    9.0510 C   0  0  0  0  0  0  0  0  0  0  0  0
    7.1230  -12.6010    8.6340 N   0  0  0  0  0  0  0  0  0  0  0  0
    7.1290  -13.7640    9.2760 C   0  0  0  0  0  3  0  0  0  0  0  0
    7.8510  -14.0550   10.3590 N   0  0  0  0  0  0  0  0  0  0  0  0
    8.7440  -13.1360   10.7710 C   0  0  0  0  0  0  0  0  0  0  0  0
    9.5230  -13.3320   11.9170 C   0  0  0  0  0  0  0  0  0  0  0  0
   10.5380  -12.4500   12.3150 C   0  0  0  0  0  3  0  0  0  0  0  0
   10.7580  -11.2950   11.5860 C   0  0  0  0  0  3  0  0  0  0  0  0
    9.9330  -11.0160   10.5000 C   0  0  0  0  0  3  0  0  0  0  0  0
    8.9200  -11.9250   10.0870 C   0  0  0  0  0  0  0  0  0  0  0  0
    9.2160  -14.4350   12.8420 C   0  0  0  0  0  0  0  0  0  0  0  0
    7.8970  -14.7940   12.8890 N   0  0  0  0  0  0  0  0  0  0  0  0
   10.0580  -14.9070   13.5900 O   0  0  0  0  0  0  0  0  0  0  0  0
    7.6190  -15.5190   13.5370 H   0  0  0  0  0  0  0  0  0  0  0  0
    7.1940  -14.3680   12.3010 H   0  0  0  0  0  0  0  0  0  0  0  0
  1  2  1  1  0  0  0
  1  7  1  0  0  0  0
  1 21  1  0  0  0  0
  3 11  1  0  0  0  0
  4  3  1  0  0  0  0
  5  4  2  0  0  0  0
  6  7  2  0  0  0  0
  6  5  1  0  0  0  0
  7  8  1  0  0  0  0
  8  3  2  0  0  0  0
  9 10  2  0  0  0  0
  9 17  1  0  0  0  0
 11  9  1  0  0  0  0
 12 11  1  0  0  0  0
 13 14  1  0  0  0  0
 15 14  1  0  0  0  0
 16 15  2  0  0  0  0
 17 16  1  0  0  0  0
 18 17  2  0  0  0  0
 18 19  1  0  0  0  0
 19 14  2  0  0  0  0
 20 19  1  0  0  0  0
 21 22  1  0  0  0  0
 21 23  1  0  0  0  0
 23 32  1  0  0  0  0
 24 23  2  0  0  0  0
 24 25  1  0  0  0  0
 25 26  2  0  0  0  0
 26 27  1  0  0  0  0
 27 28  1  0  0  0  0
 28 29  2  0  0  0  0
 28 33  1  0  0  0  0
 30 29  1  0  0  0  0
 31 30  2  0  0  0  0
 32 31  1  0  0  0  0
 32 27  2  0  0  0  0
 33 34  1  0  0  0  0
 33 35  2  0  0  0  0
 34 36  1  0  0  0  0
 37 34  1  0  0  0  0
M  END
>  <minimizedAffinity>
23.0906944

$$$$
