
 OpenBabel10152418173D

 37 40  0  0  1  0  0  0  0  0999 V2000
    2.8350   -6.3570  -28.0340 C   0  0  2  0  0  3  0  0  0  0  0  0
    3.9960   -5.3580  -28.0280 C   0  0  0  0  0  1  0  0  0  0  0  0
    4.0380   -9.9740  -28.4780 C   0  0  0  0  0  0  0  0  0  0  0  0
    4.2700  -10.0230  -29.8530 C   0  0  0  0  0  3  0  0  0  0  0  0
    3.9220   -8.9420  -30.6620 C   0  0  0  0  0  3  0  0  0  0  0  0
    3.4180   -7.7730  -30.0890 C   0  0  0  0  0  3  0  0  0  0  0  0
    3.2500   -7.6720  -28.6990 C   0  0  0  0  0  0  0  0  0  0  0  0
    3.5110   -8.8110  -27.9060 C   0  0  0  0  0  3  0  0  0  0  0  0
    4.1430  -11.3910  -26.4140 C   0  0  0  0  0  0  0  0  0  0  0  0
    4.9720  -11.8680  -25.6440 O   0  0  0  0  0  0  0  0  0  0  0  0
    4.4870  -11.0580  -27.7030 N   0  0  0  0  0  0  0  0  0  0  0  0
    5.2820  -11.5740  -28.0610 H   0  0  0  0  0  0  0  0  0  0  0  0
    0.1520  -11.6450  -25.0560 C   0  0  0  0  0  0  0  0  0  0  0  0
    0.4220  -12.0300  -26.3640 C   0  0  0  0  0  3  0  0  0  0  0  0
    1.7210  -11.8840  -26.8540 C   0  0  0  0  0  3  0  0  0  0  0  0
    2.7180  -11.3760  -26.0200 C   0  0  0  0  0  0  0  0  0  0  0  0
    2.3650  -11.0470  -24.7220 C   0  0  0  0  0  3  0  0  0  0  0  0
    1.1030  -11.1500  -24.2330 N   0  0  0  0  0  0  0  0  0  0  0  0
   -1.1780  -11.2110  -23.1630 C   0  0  0  0  0  1  0  0  0  0  0  0
   -1.0640  -11.8020  -24.4530 O   0  0  0  0  0  0  0  0  0  0  0  0
    1.6880   -5.7600  -28.7090 N   0  0  0  0  0  0  0  0  0  0  0  0
    1.5490   -5.9230  -29.6910 H   0  0  0  0  0  0  0  0  0  0  0  0
    0.6150   -5.4030  -27.8960 C   0  0  0  0  0  0  0  0  0  0  0  0
    0.4370   -4.0880  -27.6890 N   0  0  0  0  0  0  0  0  0  0  0  0
   -0.2820   -3.7410  -26.6280 C   0  0  0  0  0  3  0  0  0  0  0  0
   -0.7560   -4.5860  -25.7120 N   0  0  0  0  0  0  0  0  0  0  0  0
   -0.6230   -5.9030  -25.9520 C   0  0  0  0  0  0  0  0  0  0  0  0
   -1.0100   -6.8590  -25.0110 C   0  0  0  0  0  0  0  0  0  0  0  0
   -0.9950   -8.2400  -25.2600 C   0  0  0  0  0  3  0  0  0  0  0  0
   -0.5270   -8.7020  -26.4790 C   0  0  0  0  0  3  0  0  0  0  0  0
   -0.0020   -7.7840  -27.3850 C   0  0  0  0  0  3  0  0  0  0  0  0
   -0.0210   -6.3850  -27.1170 C   0  0  0  0  0  0  0  0  0  0  0  0
   -1.2010   -6.4340  -23.6160 C   0  0  0  0  0  0  0  0  0  0  0  0
   -0.1780   -5.6580  -23.1350 N   0  0  0  0  0  0  0  0  0  0  0  0
   -2.1550   -6.7740  -22.9360 O   0  0  0  0  0  0  0  0  0  0  0  0
   -0.2180   -5.3400  -22.1770 H   0  0  0  0  0  0  0  0  0  0  0  0
    0.5990   -5.3670  -23.7150 H   0  0  0  0  0  0  0  0  0  0  0  0
  1  2  1  6  0  0  0
  3  8  1  0  0  0  0
  3 11  1  0  0  0  0
  4  3  2  0  0  0  0
  5  6  2  0  0  0  0
  5  4  1  0  0  0  0
  6  7  1  0  0  0  0
  7  1  1  0  0  0  0
  7  8  2  0  0  0  0
  9 16  1  0  0  0  0
  9 10  2  0  0  0  0
 11  9  1  0  0  0  0
 12 11  1  0  0  0  0
 13 20  1  0  0  0  0
 13 18  2  0  0  0  0
 14 13  1  0  0  0  0
 15 14  2  0  0  0  0
 15 16  1  0  0  0  0
 16 17  2  0  0  0  0
 17 18  1  0  0  0  0
 20 19  1  0  0  0  0
 21  1  1  0  0  0  0
 21 23  1  0  0  0  0
 22 21  1  0  0  0  0
 23 24  2  0  0  0  0
 23 32  1  0  0  0  0
 24 25  1  0  0  0  0
 25 26  2  0  0  0  0
 27 26  1  0  0  0  0
 27 28  1  0  0  0  0
 28 33  1  0  0  0  0
 29 28  2  0  0  0  0
 30 29  1  0  0  0  0
 31 32  1  0  0  0  0
 31 30  2  0  0  0  0
 32 27  2  0  0  0  0
 33 34  1  0  0  0  0
 33 35  2  0  0  0  0
 34 36  1  0  0  0  0
 37 34  1  0  0  0  0
M  END
>  <minimizedAffinity>
-7.77115488

$$$$
