
 OpenBabel10152418173D

 37 40  0  0  1  0  0  0  0  0999 V2000
   -0.5350   -5.8380  -24.2020 C   0  0  2  0  0  3  0  0  0  0  0  0
   -0.5820   -4.4470  -23.5630 C   0  0  0  0  0  1  0  0  0  0  0  0
   -1.6660   -8.7610  -21.9860 C   0  0  0  0  0  0  0  0  0  0  0  0
   -3.0360   -8.7970  -22.2520 C   0  0  0  0  0  3  0  0  0  0  0  0
   -3.6230   -7.8090  -23.0410 C   0  0  0  0  0  3  0  0  0  0  0  0
   -2.8320   -6.8270  -23.6370 C   0  0  0  0  0  3  0  0  0  0  0  0
   -1.4410   -6.8160  -23.4470 C   0  0  0  0  0  0  0  0  0  0  0  0
   -0.8750   -7.7610  -22.5640 C   0  0  0  0  0  3  0  0  0  0  0  0
   -1.0600  -11.1600  -21.5940 C   0  0  0  0  0  0  0  0  0  0  0  0
   -1.1890  -12.0330  -20.7400 O   0  0  0  0  0  0  0  0  0  0  0  0
   -1.1160   -9.8280  -21.2560 N   0  0  0  0  0  0  0  0  0  0  0  0
   -0.8730   -9.6410  -20.2900 H   0  0  0  0  0  0  0  0  0  0  0  0
    0.3450  -11.9060  -25.5060 C   0  0  0  0  0  0  0  0  0  0  0  0
   -1.0160  -11.6890  -25.3320 C   0  0  0  0  0  3  0  0  0  0  0  0
   -1.5110  -11.5140  -24.0380 C   0  0  0  0  0  3  0  0  0  0  0  0
   -0.6300  -11.5420  -22.9560 C   0  0  0  0  0  0  0  0  0  0  0  0
    0.7150  -11.7330  -23.2250 C   0  0  0  0  0  3  0  0  0  0  0  0
    1.2140  -11.9380  -24.4710 N   0  0  0  0  0  0  0  0  0  0  0  0
    2.3700  -12.0390  -26.7000 C   0  0  0  0  0  1  0  0  0  0  0  0
    0.9470  -12.0260  -26.7270 O   0  0  0  0  0  0  0  0  0  0  0  0
    0.8450   -6.3090  -24.2310 N   0  0  0  0  0  0  0  0  0  0  0  0
    1.3950   -6.2900  -23.3910 H   0  0  0  0  0  0  0  0  0  0  0  0
    1.1730   -7.1790  -25.2680 C   0  0  0  0  0  0  0  0  0  0  0  0
    1.7110   -8.3560  -24.9080 N   0  0  0  0  0  0  0  0  0  0  0  0
    2.3980   -9.0100  -25.8390 C   0  0  0  0  0  3  0  0  0  0  0  0
    2.6700   -8.5460  -27.0590 N   0  0  0  0  0  0  0  0  0  0  0  0
    2.0850   -7.3940  -27.4320 C   0  0  0  0  0  0  0  0  0  0  0  0
    2.3770   -6.7890  -28.6560 C   0  0  0  0  0  0  0  0  0  0  0  0
    1.7110   -5.6520  -29.1360 C   0  0  0  0  0  3  0  0  0  0  0  0
    0.7440   -5.0520  -28.3470 C   0  0  0  0  0  3  0  0  0  0  0  0
    0.5280   -5.5460  -27.0630 C   0  0  0  0  0  3  0  0  0  0  0  0
    1.2140   -6.7000  -26.5880 C   0  0  0  0  0  0  0  0  0  0  0  0
    3.6000   -7.1970  -29.3650 C   0  0  0  0  0  0  0  0  0  0  0  0
    4.7450   -6.6590  -28.8360 N   0  0  0  0  0  0  0  0  0  0  0  0
    3.5960   -7.9090  -30.3560 O   0  0  0  0  0  0  0  0  0  0  0  0
    5.6300   -6.8690  -29.2770 H   0  0  0  0  0  0  0  0  0  0  0  0
    4.7370   -6.0840  -28.0020 H   0  0  0  0  0  0  0  0  0  0  0  0
  1  2  1  1  0  0  0
  1  7  1  0  0  0  0
  3 11  1  0  0  0  0
  4  3  1  0  0  0  0
  5  4  2  0  0  0  0
  6  7  2  0  0  0  0
  6  5  1  0  0  0  0
  7  8  1  0  0  0  0
  8  3  2  0  0  0  0
  9 11  1  0  0  0  0
  9 10  2  0  0  0  0
 11 12  1  0  0  0  0
 13 14  1  0  0  0  0
 13 18  2  0  0  0  0
 14 15  2  0  0  0  0
 15 16  1  0  0  0  0
 16  9  1  0  0  0  0
 17 16  2  0  0  0  0
 18 17  1  0  0  0  0
 20 19  1  0  0  0  0
 20 13  1  0  0  0  0
 21  1  1  0  0  0  0
 21 22  1  0  0  0  0
 23 24  1  0  0  0  0
 23 21  1  0  0  0  0
 25 24  2  0  0  0  0
 26 25  1  0  0  0  0
 27 26  2  0  0  0  0
 27 32  1  0  0  0  0
 28 27  1  0  0  0  0
 29 28  2  0  0  0  0
 29 30  1  0  0  0  0
 30 31  2  0  0  0  0
 31 32  1  0  0  0  0
 32 23  2  0  0  0  0
 33 34  1  0  0  0  0
 33 28  1  0  0  0  0
 34 37  1  0  0  0  0
 35 33  2  0  0  0  0
 36 34  1  0  0  0  0
M  END
>  <minimizedAffinity>
-7.04656696

$$$$
