
 OpenBabel10152418173D

 37 40  0  0  1  0  0  0  0  0999 V2000
    2.7520  -10.4350  -25.2520 C   0  0  2  0  0  3  0  0  0  0  0  0
    3.5270  -10.9130  -26.4820 C   0  0  0  0  0  1  0  0  0  0  0  0
   -0.7010  -11.6710  -24.1190 C   0  0  0  0  0  0  0  0  0  0  0  0
   -1.2770  -12.0390  -25.3360 C   0  0  0  0  0  3  0  0  0  0  0  0
   -0.6140  -11.7740  -26.5340 C   0  0  0  0  0  3  0  0  0  0  0  0
    0.6650  -11.2170  -26.5180 C   0  0  0  0  0  3  0  0  0  0  0  0
    1.2970  -10.9120  -25.3030 C   0  0  0  0  0  0  0  0  0  0  0  0
    0.5730  -11.0910  -24.1030 C   0  0  0  0  0  3  0  0  0  0  0  0
   -1.4240  -11.3760  -21.7380 C   0  0  0  0  0  0  0  0  0  0  0  0
   -1.4370  -11.9940  -20.6780 O   0  0  0  0  0  0  0  0  0  0  0  0
   -1.3750  -12.0390  -22.9420 N   0  0  0  0  0  0  0  0  0  0  0  0
   -1.7400  -12.9830  -22.9030 H   0  0  0  0  0  0  0  0  0  0  0  0
   -1.8180   -7.1740  -21.8990 C   0  0  0  0  0  0  0  0  0  0  0  0
   -1.5400   -7.7560  -20.6690 C   0  0  0  0  0  3  0  0  0  0  0  0
   -1.4790   -9.1480  -20.5810 C   0  0  0  0  0  3  0  0  0  0  0  0
   -1.6790   -9.9190  -21.7270 C   0  0  0  0  0  0  0  0  0  0  0  0
   -1.9200   -9.2530  -22.9170 C   0  0  0  0  0  3  0  0  0  0  0  0
   -2.0160   -7.9020  -23.0210 N   0  0  0  0  0  0  0  0  0  0  0  0
   -0.6880   -5.2990  -22.7670 C   0  0  0  0  0  1  0  0  0  0  0  0
   -1.8400   -5.8240  -22.1150 O   0  0  0  0  0  0  0  0  0  0  0  0
    2.8290   -8.9810  -25.1670 N   0  0  0  0  0  0  0  0  0  0  0  0
    3.3310   -8.5530  -24.4090 H   0  0  0  0  0  0  0  0  0  0  0  0
    2.6220   -8.2850  -26.3560 C   0  0  0  0  0  0  0  0  0  0  0  0
    3.6890   -8.1530  -27.1610 N   0  0  0  0  0  0  0  0  0  0  0  0
    3.6420   -7.1780  -28.0620 C   0  0  0  0  0  3  0  0  0  0  0  0
    2.6680   -6.2730  -28.1630 N   0  0  0  0  0  0  0  0  0  0  0  0
    1.5790   -6.4420  -27.3930 C   0  0  0  0  0  0  0  0  0  0  0  0
    0.5480   -5.5000  -27.3680 C   0  0  0  0  0  0  0  0  0  0  0  0
   -0.6540   -5.6870  -26.6700 C   0  0  0  0  0  3  0  0  0  0  0  0
   -0.8270   -6.8360  -25.9180 C   0  0  0  0  0  3  0  0  0  0  0  0
    0.2350   -7.7300  -25.8070 C   0  0  0  0  0  3  0  0  0  0  0  0
    1.4510   -7.5260  -26.5200 C   0  0  0  0  0  0  0  0  0  0  0  0
    0.8220   -4.1480  -27.8800 C   0  0  0  0  0  0  0  0  0  0  0  0
    1.8100   -4.1110  -28.8300 N   0  0  0  0  0  0  0  0  0  0  0  0
    0.2570   -3.1480  -27.4670 O   0  0  0  0  0  0  0  0  0  0  0  0
    2.0770   -3.2180  -29.2190 H   0  0  0  0  0  0  0  0  0  0  0  0
    2.2580   -4.9500  -29.1760 H   0  0  0  0  0  0  0  0  0  0  0  0
  1  2  1  6  0  0  0
  1 21  1  0  0  0  0
  3  8  1  0  0  0  0
  3 11  1  0  0  0  0
  4  3  2  0  0  0  0
  5  6  2  0  0  0  0
  5  4  1  0  0  0  0
  6  7  1  0  0  0  0
  7  1  1  0  0  0  0
  7  8  2  0  0  0  0
  9 16  1  0  0  0  0
  9 10  2  0  0  0  0
 11 12  1  0  0  0  0
 11  9  1  0  0  0  0
 13 14  1  0  0  0  0
 14 15  2  0  0  0  0
 16 15  1  0  0  0  0
 17 16  2  0  0  0  0
 18 17  1  0  0  0  0
 18 13  2  0  0  0  0
 19 20  1  0  0  0  0
 20 13  1  0  0  0  0
 21 22  1  0  0  0  0
 23 21  1  0  0  0  0
 24 23  2  0  0  0  0
 25 24  1  0  0  0  0
 26 25  2  0  0  0  0
 26 27  1  0  0  0  0
 27 28  2  0  0  0  0
 27 32  1  0  0  0  0
 28 29  1  0  0  0  0
 29 30  2  0  0  0  0
 30 31  1  0  0  0  0
 32 23  1  0  0  0  0
 32 31  2  0  0  0  0
 33 35  2  0  0  0  0
 33 28  1  0  0  0  0
 34 33  1  0  0  0  0
 36 34  1  0  0  0  0
 37 34  1  0  0  0  0
M  END
>  <minimizedAffinity>
-8.11565781

$$$$
