
 OpenBabel10152418173D

 37 40  0  0  1  0  0  0  0  0999 V2000
    2.3080  -11.0600  -24.8370 C   0  0  2  0  0  3  0  0  0  0  0  0
    1.9990   -9.6610  -24.2960 C   0  0  0  0  0  1  0  0  0  0  0  0
    4.2030   -9.6450  -27.8600 C   0  0  0  0  0  0  0  0  0  0  0  0
    4.0740  -10.6860  -28.7810 C   0  0  0  0  0  3  0  0  0  0  0  0
    3.4920  -11.8940  -28.3970 C   0  0  0  0  0  3  0  0  0  0  0  0
    2.9600  -12.0380  -27.1150 C   0  0  0  0  0  3  0  0  0  0  0  0
    3.0080  -10.9780  -26.1970 C   0  0  0  0  0  0  0  0  0  0  0  0
    3.6910   -9.7980  -26.5660 C   0  0  0  0  0  3  0  0  0  0  0  0
    4.0580   -7.3970  -28.9560 C   0  0  0  0  0  0  0  0  0  0  0  0
    4.6000   -6.7510  -29.8480 O   0  0  0  0  0  0  0  0  0  0  0  0
    4.7200   -8.4240  -28.3260 N   0  0  0  0  0  0  0  0  0  0  0  0
    5.7300   -8.3400  -28.3580 H   0  0  0  0  0  0  0  0  0  0  0  0
    0.5390   -5.7190  -27.3330 C   0  0  0  0  0  0  0  0  0  0  0  0
    1.2050   -6.6840  -26.5880 C   0  0  0  0  0  3  0  0  0  0  0  0
    2.3280   -7.3030  -27.1390 C   0  0  0  0  0  3  0  0  0  0  0  0
    2.7660   -6.9290  -28.4100 C   0  0  0  0  0  0  0  0  0  0  0  0
    2.0590   -5.9360  -29.0680 C   0  0  0  0  0  3  0  0  0  0  0  0
    0.9460   -5.3420  -28.5660 N   0  0  0  0  0  0  0  0  0  0  0  0
   -0.7030   -5.0210  -25.4580 C   0  0  0  0  0  1  0  0  0  0  0  0
   -0.5310   -5.0040  -26.8700 O   0  0  0  0  0  0  0  0  0  0  0  0
    1.0710  -11.8280  -24.9240 N   0  0  0  0  0  0  0  0  0  0  0  0
    1.0510  -12.7770  -24.5930 H   0  0  0  0  0  0  0  0  0  0  0  0
   -0.1050  -11.0890  -25.0130 C   0  0  0  0  0  0  0  0  0  0  0  0
   -0.3170  -10.4460  -26.1730 N   0  0  0  0  0  0  0  0  0  0  0  0
   -1.1780   -9.4340  -26.1480 C   0  0  0  0  0  3  0  0  0  0  0  0
   -1.7680   -8.9550  -25.0530 N   0  0  0  0  0  0  0  0  0  0  0  0
   -1.5960   -9.6350  -23.9050 C   0  0  0  0  0  0  0  0  0  0  0  0
   -2.1030   -9.1620  -22.6930 C   0  0  0  0  0  0  0  0  0  0  0  0
   -2.0460   -9.8890  -21.4950 C   0  0  0  0  0  3  0  0  0  0  0  0
   -1.4120  -11.1200  -21.4800 C   0  0  0  0  0  3  0  0  0  0  0  0
   -0.7730  -11.5570  -22.6370 C   0  0  0  0  0  3  0  0  0  0  0  0
   -0.8360  -10.8070  -23.8460 C   0  0  0  0  0  0  0  0  0  0  0  0
   -2.4870   -7.7450  -22.5990 C   0  0  0  0  0  0  0  0  0  0  0  0
   -1.4670   -6.9280  -22.1800 N   0  0  0  0  0  0  0  0  0  0  0  0
   -3.6140   -7.3390  -22.8270 O   0  0  0  0  0  0  0  0  0  0  0  0
   -1.6510   -5.9420  -22.0660 H   0  0  0  0  0  0  0  0  0  0  0  0
   -0.5310   -7.2750  -22.0120 H   0  0  0  0  0  0  0  0  0  0  0  0
  1  2  1  6  0  0  0
  3  8  1  0  0  0  0
  4  5  1  0  0  0  0
  4  3  2  0  0  0  0
  5  6  2  0  0  0  0
  6  7  1  0  0  0  0
  7  1  1  0  0  0  0
  8  7  2  0  0  0  0
  9 16  1  0  0  0  0
  9 11  1  0  0  0  0
 10  9  2  0  0  0  0
 11  3  1  0  0  0  0
 12 11  1  0  0  0  0
 13 20  1  0  0  0  0
 13 14  1  0  0  0  0
 15 14  2  0  0  0  0
 16 15  1  0  0  0  0
 17 18  1  0  0  0  0
 17 16  2  0  0  0  0
 18 13  2  0  0  0  0
 20 19  1  0  0  0  0
 21  1  1  0  0  0  0
 21 22  1  0  0  0  0
 23 21  1  0  0  0  0
 23 32  1  0  0  0  0
 24 25  1  0  0  0  0
 24 23  2  0  0  0  0
 25 26  2  0  0  0  0
 26 27  1  0  0  0  0
 27 32  2  0  0  0  0
 27 28  1  0  0  0  0
 28 33  1  0  0  0  0
 28 29  2  0  0  0  0
 29 30  1  0  0  0  0
 31 30  2  0  0  0  0
 32 31  1  0  0  0  0
 33 34  1  0  0  0  0
 34 36  1  0  0  0  0
 34 37  1  0  0  0  0
 35 33  2  0  0  0  0
M  END
>  <minimizedAffinity>
-8.24076748

$$$$
