
 OpenBabel10152418173D

 37 40  0  0  1  0  0  0  0  0999 V2000
    0.2800   -5.1860  -27.8830 C   0  0  2  0  0  3  0  0  0  0  0  0
    1.5510   -4.4730  -28.3520 C   0  0  0  0  0  1  0  0  0  0  0  0
   -0.4530   -5.0290  -24.1180 C   0  0  0  0  0  0  0  0  0  0  0  0
   -1.2100   -3.8600  -24.0310 C   0  0  0  0  0  3  0  0  0  0  0  0
   -1.3810   -3.0500  -25.1540 C   0  0  0  0  0  3  0  0  0  0  0  0
   -0.8670   -3.4470  -26.3880 C   0  0  0  0  0  3  0  0  0  0  0  0
   -0.1690   -4.6590  -26.5170 C   0  0  0  0  0  0  0  0  0  0  0  0
    0.0830   -5.4170  -25.3520 C   0  0  0  0  0  3  0  0  0  0  0  0
   -1.1180   -6.9740  -22.6850 C   0  0  0  0  0  0  0  0  0  0  0  0
   -1.4740   -7.2140  -21.5350 O   0  0  0  0  0  0  0  0  0  0  0  0
   -0.3860   -5.8480  -22.9770 N   0  0  0  0  0  0  0  0  0  0  0  0
    0.1440   -5.4890  -22.1910 H   0  0  0  0  0  0  0  0  0  0  0  0
   -1.2390   -9.9890  -25.6400 C   0  0  0  0  0  0  0  0  0  0  0  0
   -1.4710   -8.6780  -26.0360 C   0  0  0  0  0  3  0  0  0  0  0  0
   -1.5080   -7.6770  -25.0640 C   0  0  0  0  0  3  0  0  0  0  0  0
   -1.2940   -8.0100  -23.7260 C   0  0  0  0  0  0  0  0  0  0  0  0
   -1.0410   -9.3380  -23.4260 C   0  0  0  0  0  3  0  0  0  0  0  0
   -1.0310  -10.3330  -24.3490 N   0  0  0  0  0  0  0  0  0  0  0  0
   -0.0810  -11.9610  -26.2020 C   0  0  0  0  0  1  0  0  0  0  0  0
   -1.1190  -11.0370  -26.5100 O   0  0  0  0  0  0  0  0  0  0  0  0
    0.5200   -6.6240  -27.8420 N   0  0  0  0  0  0  0  0  0  0  0  0
   -0.2460   -7.2600  -27.9810 H   0  0  0  0  0  0  0  0  0  0  0  0
    1.8290   -7.0340  -28.0840 C   0  0  0  0  0  0  0  0  0  0  0  0
    2.3760   -6.6250  -29.2400 N   0  0  0  0  0  0  0  0  0  0  0  0
    3.4220   -7.3120  -29.6840 C   0  0  0  0  0  3  0  0  0  0  0  0
    3.9050   -8.4220  -29.1240 N   0  0  0  0  0  0  0  0  0  0  0  0
    3.3890   -8.7970  -27.9400 C   0  0  0  0  0  0  0  0  0  0  0  0
    3.7700   -9.9900  -27.3220 C   0  0  0  0  0  0  0  0  0  0  0  0
    3.3460  -10.3660  -26.0390 C   0  0  0  0  0  3  0  0  0  0  0  0
    2.4620   -9.5500  -25.3530 C   0  0  0  0  0  3  0  0  0  0  0  0
    1.9520   -8.4250  -25.9970 C   0  0  0  0  0  3  0  0  0  0  0  0
    2.3900   -8.0570  -27.3010 C   0  0  0  0  0  0  0  0  0  0  0  0
    4.4360  -11.0190  -28.1340 C   0  0  0  0  0  0  0  0  0  0  0  0
    4.9740  -12.0390  -27.3920 N   0  0  0  0  0  0  0  0  0  0  0  0
    4.5400  -10.9520  -29.3480 O   0  0  0  0  0  0  0  0  0  0  0  0
    5.4710  -12.7780  -27.8700 H   0  0  0  0  0  0  0  0  0  0  0  0
    4.8650  -12.0920  -26.3870 H   0  0  0  0  0  0  0  0  0  0  0  0
  1  2  1  1  0  0  0
  1 21  1  0  0  0  0
  1  7  1  0  0  0  0
  3  4  1  0  0  0  0
  3 11  1  0  0  0  0
  5  4  2  0  0  0  0
  6  5  1  0  0  0  0
  7  6  2  0  0  0  0
  7  8  1  0  0  0  0
  8  3  2  0  0  0  0
  9 10  2  0  0  0  0
 11  9  1  0  0  0  0
 11 12  1  0  0  0  0
 13 18  2  0  0  0  0
 14 13  1  0  0  0  0
 14 15  2  0  0  0  0
 15 16  1  0  0  0  0
 16 17  2  0  0  0  0
 16  9  1  0  0  0  0
 18 17  1  0  0  0  0
 20 19  1  0  0  0  0
 20 13  1  0  0  0  0
 22 21  1  0  0  0  0
 23 21  1  0  0  0  0
 23 32  1  0  0  0  0
 24 23  2  0  0  0  0
 25 24  1  0  0  0  0
 25 26  2  0  0  0  0
 26 27  1  0  0  0  0
 27 28  2  0  0  0  0
 27 32  1  0  0  0  0
 28 29  1  0  0  0  0
 29 30  2  0  0  0  0
 31 30  1  0  0  0  0
 32 31  2  0  0  0  0
 33 34  1  0  0  0  0
 33 28  1  0  0  0  0
 34 37  1  0  0  0  0
 35 33  2  0  0  0  0
 36 34  1  0  0  0  0
M  END
>  <minimizedAffinity>
-6.16320705

$$$$
