
 OpenBabel10152418173D

 37 40  0  0  1  0  0  0  0  0999 V2000
   -1.0570   -6.1980  -23.2120 C   0  0  2  0  0  3  0  0  0  0  0  0
   -1.4030   -5.1280  -22.1730 C   0  0  0  0  0  1  0  0  0  0  0  0
   -1.5190   -9.9980  -22.9320 C   0  0  0  0  0  0  0  0  0  0  0  0
   -1.6490  -10.1620  -21.5520 C   0  0  0  0  0  3  0  0  0  0  0  0
   -1.4620   -9.0760  -20.6970 C   0  0  0  0  0  3  0  0  0  0  0  0
   -1.2280   -7.8040  -21.2210 C   0  0  0  0  0  3  0  0  0  0  0  0
   -1.1710   -7.6020  -22.6090 C   0  0  0  0  0  0  0  0  0  0  0  0
   -1.2600   -8.7270  -23.4580 C   0  0  0  0  0  3  0  0  0  0  0  0
   -1.1980  -11.4820  -24.9260 C   0  0  0  0  0  0  0  0  0  0  0  0
   -1.8500  -11.9850  -25.8360 O   0  0  0  0  0  0  0  0  0  0  0  0
   -1.8010  -11.1080  -23.7480 N   0  0  0  0  0  0  0  0  0  0  0  0
   -2.6560  -11.6140  -23.5480 H   0  0  0  0  0  0  0  0  0  0  0  0
    2.9910  -11.8130  -25.3450 C   0  0  0  0  0  0  0  0  0  0  0  0
    2.4540  -11.8990  -24.0660 C   0  0  0  0  0  3  0  0  0  0  0  0
    1.0800  -11.7190  -23.8990 C   0  0  0  0  0  3  0  0  0  0  0  0
    0.2780  -11.4760  -25.0140 C   0  0  0  0  0  0  0  0  0  0  0  0
    0.8940  -11.4370  -26.2540 C   0  0  0  0  0  3  0  0  0  0  0  0
    2.2310  -11.5780  -26.4380 N   0  0  0  0  0  0  0  0  0  0  0  0
    4.8270  -11.2670  -26.7140 C   0  0  0  0  0  1  0  0  0  0  0  0
    4.3080  -12.0350  -25.6340 O   0  0  0  0  0  0  0  0  0  0  0  0
    0.2830   -5.9520  -23.7320 N   0  0  0  0  0  0  0  0  0  0  0  0
    0.9410   -5.4290  -23.1820 H   0  0  0  0  0  0  0  0  0  0  0  0
    0.7290   -6.8290  -24.7180 C   0  0  0  0  0  0  0  0  0  0  0  0
    1.4440   -7.8850  -24.2950 N   0  0  0  0  0  0  0  0  0  0  0  0
    2.2130   -8.4860  -25.1960 C   0  0  0  0  0  3  0  0  0  0  0  0
    2.3970   -8.0690  -26.4490 N   0  0  0  0  0  0  0  0  0  0  0  0
    1.6390   -7.0460  -26.8830 C   0  0  0  0  0  0  0  0  0  0  0  0
    1.8220   -6.4860  -28.1490 C   0  0  0  0  0  0  0  0  0  0  0  0
    0.9850   -5.4980  -28.6860 C   0  0  0  0  0  3  0  0  0  0  0  0
   -0.0540   -5.0000  -27.9170 C   0  0  0  0  0  3  0  0  0  0  0  0
   -0.1780   -5.4350  -26.6000 C   0  0  0  0  0  3  0  0  0  0  0  0
    0.6810   -6.4380  -26.0670 C   0  0  0  0  0  0  0  0  0  0  0  0
    3.0850   -6.7500  -28.8560 C   0  0  0  0  0  0  0  0  0  0  0  0
    4.1980   -6.3770  -28.1460 N   0  0  0  0  0  0  0  0  0  0  0  0
    3.1390   -7.2130  -29.9830 O   0  0  0  0  0  0  0  0  0  0  0  0
    5.1070   -6.5020  -28.5680 H   0  0  0  0  0  0  0  0  0  0  0  0
    4.1410   -6.0110  -27.2040 H   0  0  0  0  0  0  0  0  0  0  0  0
  1  7  1  0  0  0  0
  1  2  1  1  0  0  0
  3  4  1  0  0  0  0
  4  5  2  0  0  0  0
  6  5  1  0  0  0  0
  7  6  2  0  0  0  0
  8  3  2  0  0  0  0
  8  7  1  0  0  0  0
  9 11  1  0  0  0  0
 10  9  2  0  0  0  0
 11 12  1  0  0  0  0
 11  3  1  0  0  0  0
 13 14  1  0  0  0  0
 14 15  2  0  0  0  0
 16  9  1  0  0  0  0
 16 15  1  0  0  0  0
 17 16  2  0  0  0  0
 18 17  1  0  0  0  0
 18 13  2  0  0  0  0
 19 20  1  0  0  0  0
 20 13  1  0  0  0  0
 21  1  1  0  0  0  0
 21 22  1  0  0  0  0
 23 24  1  0  0  0  0
 23 21  1  0  0  0  0
 25 24  2  0  0  0  0
 26 25  1  0  0  0  0
 27 26  2  0  0  0  0
 27 32  1  0  0  0  0
 28 27  1  0  0  0  0
 29 28  2  0  0  0  0
 29 30  1  0  0  0  0
 30 31  2  0  0  0  0
 31 32  1  0  0  0  0
 32 23  2  0  0  0  0
 33 28  1  0  0  0  0
 33 34  1  0  0  0  0
 34 37  1  0  0  0  0
 35 33  2  0  0  0  0
 36 34  1  0  0  0  0
M  END
>  <minimizedAffinity>
-7.68190193

$$$$
