
 OpenBabel10152418173D

 37 40  0  0  1  0  0  0  0  0999 V2000
    2.3080  -11.0600  -24.8370 C   0  0  2  0  0  3  0  0  0  0  0  0
    1.9990   -9.6610  -24.2960 C   0  0  0  0  0  1  0  0  0  0  0  0
    4.2030   -9.6450  -27.8600 C   0  0  0  0  0  0  0  0  0  0  0  0
    4.0740  -10.6860  -28.7810 C   0  0  0  0  0  3  0  0  0  0  0  0
    3.4920  -11.8940  -28.3970 C   0  0  0  0  0  3  0  0  0  0  0  0
    2.9600  -12.0380  -27.1150 C   0  0  0  0  0  3  0  0  0  0  0  0
    3.0080  -10.9780  -26.1970 C   0  0  0  0  0  0  0  0  0  0  0  0
    3.6910   -9.7980  -26.5660 C   0  0  0  0  0  3  0  0  0  0  0  0
    4.0580   -7.3970  -28.9560 C   0  0  0  0  0  0  0  0  0  0  0  0
    4.6000   -6.7510  -29.8480 O   0  0  0  0  0  0  0  0  0  0  0  0
    4.7200   -8.4240  -28.3260 N   0  0  0  0  0  0  0  0  0  0  0  0
    5.7300   -8.3400  -28.3580 H   0  0  0  0  0  0  0  0  0  0  0  0
    0.5390   -5.7190  -27.3330 C   0  0  0  0  0  0  0  0  0  0  0  0
    1.2050   -6.6840  -26.5880 C   0  0  0  0  0  3  0  0  0  0  0  0
    2.3280   -7.3030  -27.1390 C   0  0  0  0  0  3  0  0  0  0  0  0
    2.7660   -6.9290  -28.4100 C   0  0  0  0  0  0  0  0  0  0  0  0
    2.0590   -5.9360  -29.0680 C   0  0  0  0  0  3  0  0  0  0  0  0
    0.9460   -5.3420  -28.5660 N   0  0  0  0  0  0  0  0  0  0  0  0
   -0.7030   -5.0210  -25.4580 C   0  0  0  0  0  1  0  0  0  0  0  0
   -0.5310   -5.0040  -26.8700 O   0  0  0  0  0  0  0  0  0  0  0  0
    1.0710  -11.8280  -24.9240 N   0  0  0  0  0  0  0  0  0  0  0  0
    1.0510  -12.7770  -24.5930 H   0  0  0  0  0  0  0  0  0  0  0  0
   -0.1050  -11.0890  -25.0130 C   0  0  0  0  0  0  0  0  0  0  0  0
   -0.3170  -10.4460  -26.1730 N   0  0  0  0  0  0  0  0  0  0  0  0
   -1.1780   -9.4340  -26.1480 C   0  0  0  0  0  3  0  0  0  0  0  0
   -1.7680   -8.9550  -25.0530 N   0  0  0  0  0  0  0  0  0  0  0  0
   -1.5960   -9.6350  -23.9050 C   0  0  0  0  0  0  0  0  0  0  0  0
   -2.1030   -9.1620  -22.6930 C   0  0  0  0  0  0  0  0  0  0  0  0
   -2.0460   -9.8890  -21.4950 C   0  0  0  0  0  3  0  0  0  0  0  0
   -1.4120  -11.1200  -21.4800 C   0  0  0  0  0  3  0  0  0  0  0  0
   -0.7730  -11.5570  -22.6370 C   0  0  0  0  0  3  0  0  0  0  0  0
   -0.8360  -10.8070  -23.8460 C   0  0  0  0  0  0  0  0  0  0  0  0
   -2.4870   -7.7450  -22.5990 C   0  0  0  0  0  0  0  0  0  0  0  0
   -1.4670   -6.9280  -22.1800 N   0  0  0  0  0  0  0  0  0  0  0  0
   -3.6140   -7.3390  -22.8270 O   0  0  0  0  0  0  0  0  0  0  0  0
   -1.6510   -5.9420  -22.0660 H   0  0  0  0  0  0  0  0  0  0  0  0
   -0.5310   -7.2750  -22.0120 H   0  0  0  0  0  0  0  0  0  0  0  0
  1  2  1  6  0  0  0
  3  8  1  0  0  0  0
  4  5  1  0  0  0  0
  4  3  2  0  0  0  0
  5  6  2  0  0  0  0
  6  7  1  0  0  0  0
  7  1  1  0  0  0  0
  8  7  2  0  0  0  0
  9 16  1  0  0  0  0
  9 11  1  0  0  0  0
 10  9  2  0  0  0  0
 11  3  1  0  0  0  0
 12 11  1  0  0  0  0
 13 20  1  0  0  0  0
 13 14  1  0  0  0  0
 15 14  2  0  0  0  0
 16 15  1  0  0  0  0
 17 18  1  0  0  0  0
 17 16  2  0  0  0  0
 18 13  2  0  0  0  0
 20 19  1  0  0  0  0
 21  1  1  0  0  0  0
 21 22  1  0  0  0  0
 23 21  1  0  0  0  0
 23 32  1  0  0  0  0
 24 25  1  0  0  0  0
 24 23  2  0  0  0  0
 25 26  2  0  0  0  0
 26 27  1  0  0  0  0
 27 32  2  0  0  0  0
 27 28  1  0  0  0  0
 28 33  1  0  0  0  0
 28 29  2  0  0  0  0
 29 30  1  0  0  0  0
 31 30  2  0  0  0  0
 32 31  1  0  0  0  0
 33 34  1  0  0  0  0
 34 36  1  0  0  0  0
 34 37  1  0  0  0  0
 35 33  2  0  0  0  0
M  END
>  <minimizedAffinity>
-8.24076748

$$$$

 OpenBabel10152418173D

 37 40  0  0  1  0  0  0  0  0999 V2000
    2.7520  -10.4350  -25.2520 C   0  0  2  0  0  3  0  0  0  0  0  0
    3.5270  -10.9130  -26.4820 C   0  0  0  0  0  1  0  0  0  0  0  0
   -0.7010  -11.6710  -24.1190 C   0  0  0  0  0  0  0  0  0  0  0  0
   -1.2770  -12.0390  -25.3360 C   0  0  0  0  0  3  0  0  0  0  0  0
   -0.6140  -11.7740  -26.5340 C   0  0  0  0  0  3  0  0  0  0  0  0
    0.6650  -11.2170  -26.5180 C   0  0  0  0  0  3  0  0  0  0  0  0
    1.2970  -10.9120  -25.3030 C   0  0  0  0  0  0  0  0  0  0  0  0
    0.5730  -11.0910  -24.1030 C   0  0  0  0  0  3  0  0  0  0  0  0
   -1.4240  -11.3760  -21.7380 C   0  0  0  0  0  0  0  0  0  0  0  0
   -1.4370  -11.9940  -20.6780 O   0  0  0  0  0  0  0  0  0  0  0  0
   -1.3750  -12.0390  -22.9420 N   0  0  0  0  0  0  0  0  0  0  0  0
   -1.7400  -12.9830  -22.9030 H   0  0  0  0  0  0  0  0  0  0  0  0
   -1.8180   -7.1740  -21.8990 C   0  0  0  0  0  0  0  0  0  0  0  0
   -1.5400   -7.7560  -20.6690 C   0  0  0  0  0  3  0  0  0  0  0  0
   -1.4790   -9.1480  -20.5810 C   0  0  0  0  0  3  0  0  0  0  0  0
   -1.6790   -9.9190  -21.7270 C   0  0  0  0  0  0  0  0  0  0  0  0
   -1.9200   -9.2530  -22.9170 C   0  0  0  0  0  3  0  0  0  0  0  0
   -2.0160   -7.9020  -23.0210 N   0  0  0  0  0  0  0  0  0  0  0  0
   -0.6880   -5.2990  -22.7670 C   0  0  0  0  0  1  0  0  0  0  0  0
   -1.8400   -5.8240  -22.1150 O   0  0  0  0  0  0  0  0  0  0  0  0
    2.8290   -8.9810  -25.1670 N   0  0  0  0  0  0  0  0  0  0  0  0
    3.3310   -8.5530  -24.4090 H   0  0  0  0  0  0  0  0  0  0  0  0
    2.6220   -8.2850  -26.3560 C   0  0  0  0  0  0  0  0  0  0  0  0
    3.6890   -8.1530  -27.1610 N   0  0  0  0  0  0  0  0  0  0  0  0
    3.6420   -7.1780  -28.0620 C   0  0  0  0  0  3  0  0  0  0  0  0
    2.6680   -6.2730  -28.1630 N   0  0  0  0  0  0  0  0  0  0  0  0
    1.5790   -6.4420  -27.3930 C   0  0  0  0  0  0  0  0  0  0  0  0
    0.5480   -5.5000  -27.3680 C   0  0  0  0  0  0  0  0  0  0  0  0
   -0.6540   -5.6870  -26.6700 C   0  0  0  0  0  3  0  0  0  0  0  0
   -0.8270   -6.8360  -25.9180 C   0  0  0  0  0  3  0  0  0  0  0  0
    0.2350   -7.7300  -25.8070 C   0  0  0  0  0  3  0  0  0  0  0  0
    1.4510   -7.5260  -26.5200 C   0  0  0  0  0  0  0  0  0  0  0  0
    0.8220   -4.1480  -27.8800 C   0  0  0  0  0  0  0  0  0  0  0  0
    1.8100   -4.1110  -28.8300 N   0  0  0  0  0  0  0  0  0  0  0  0
    0.2570   -3.1480  -27.4670 O   0  0  0  0  0  0  0  0  0  0  0  0
    2.0770   -3.2180  -29.2190 H   0  0  0  0  0  0  0  0  0  0  0  0
    2.2580   -4.9500  -29.1760 H   0  0  0  0  0  0  0  0  0  0  0  0
  1  2  1  6  0  0  0
  1 21  1  0  0  0  0
  3  8  1  0  0  0  0
  3 11  1  0  0  0  0
  4  3  2  0  0  0  0
  5  6  2  0  0  0  0
  5  4  1  0  0  0  0
  6  7  1  0  0  0  0
  7  1  1  0  0  0  0
  7  8  2  0  0  0  0
  9 16  1  0  0  0  0
  9 10  2  0  0  0  0
 11 12  1  0  0  0  0
 11  9  1  0  0  0  0
 13 14  1  0  0  0  0
 14 15  2  0  0  0  0
 16 15  1  0  0  0  0
 17 16  2  0  0  0  0
 18 17  1  0  0  0  0
 18 13  2  0  0  0  0
 19 20  1  0  0  0  0
 20 13  1  0  0  0  0
 21 22  1  0  0  0  0
 23 21  1  0  0  0  0
 24 23  2  0  0  0  0
 25 24  1  0  0  0  0
 26 25  2  0  0  0  0
 26 27  1  0  0  0  0
 27 28  2  0  0  0  0
 27 32  1  0  0  0  0
 28 29  1  0  0  0  0
 29 30  2  0  0  0  0
 30 31  1  0  0  0  0
 32 23  1  0  0  0  0
 32 31  2  0  0  0  0
 33 35  2  0  0  0  0
 33 28  1  0  0  0  0
 34 33  1  0  0  0  0
 36 34  1  0  0  0  0
 37 34  1  0  0  0  0
M  END
>  <minimizedAffinity>
-8.11565781

$$$$

 OpenBabel10152418173D

 37 40  0  0  1  0  0  0  0  0999 V2000
    2.8350   -6.3570  -28.0340 C   0  0  2  0  0  3  0  0  0  0  0  0
    3.9960   -5.3580  -28.0280 C   0  0  0  0  0  1  0  0  0  0  0  0
    4.0380   -9.9740  -28.4780 C   0  0  0  0  0  0  0  0  0  0  0  0
    4.2700  -10.0230  -29.8530 C   0  0  0  0  0  3  0  0  0  0  0  0
    3.9220   -8.9420  -30.6620 C   0  0  0  0  0  3  0  0  0  0  0  0
    3.4180   -7.7730  -30.0890 C   0  0  0  0  0  3  0  0  0  0  0  0
    3.2500   -7.6720  -28.6990 C   0  0  0  0  0  0  0  0  0  0  0  0
    3.5110   -8.8110  -27.9060 C   0  0  0  0  0  3  0  0  0  0  0  0
    4.1430  -11.3910  -26.4140 C   0  0  0  0  0  0  0  0  0  0  0  0
    4.9720  -11.8680  -25.6440 O   0  0  0  0  0  0  0  0  0  0  0  0
    4.4870  -11.0580  -27.7030 N   0  0  0  0  0  0  0  0  0  0  0  0
    5.2820  -11.5740  -28.0610 H   0  0  0  0  0  0  0  0  0  0  0  0
    0.1520  -11.6450  -25.0560 C   0  0  0  0  0  0  0  0  0  0  0  0
    0.4220  -12.0300  -26.3640 C   0  0  0  0  0  3  0  0  0  0  0  0
    1.7210  -11.8840  -26.8540 C   0  0  0  0  0  3  0  0  0  0  0  0
    2.7180  -11.3760  -26.0200 C   0  0  0  0  0  0  0  0  0  0  0  0
    2.3650  -11.0470  -24.7220 C   0  0  0  0  0  3  0  0  0  0  0  0
    1.1030  -11.1500  -24.2330 N   0  0  0  0  0  0  0  0  0  0  0  0
   -1.1780  -11.2110  -23.1630 C   0  0  0  0  0  1  0  0  0  0  0  0
   -1.0640  -11.8020  -24.4530 O   0  0  0  0  0  0  0  0  0  0  0  0
    1.6880   -5.7600  -28.7090 N   0  0  0  0  0  0  0  0  0  0  0  0
    1.5490   -5.9230  -29.6910 H   0  0  0  0  0  0  0  0  0  0  0  0
    0.6150   -5.4030  -27.8960 C   0  0  0  0  0  0  0  0  0  0  0  0
    0.4370   -4.0880  -27.6890 N   0  0  0  0  0  0  0  0  0  0  0  0
   -0.2820   -3.7410  -26.6280 C   0  0  0  0  0  3  0  0  0  0  0  0
   -0.7560   -4.5860  -25.7120 N   0  0  0  0  0  0  0  0  0  0  0  0
   -0.6230   -5.9030  -25.9520 C   0  0  0  0  0  0  0  0  0  0  0  0
   -1.0100   -6.8590  -25.0110 C   0  0  0  0  0  0  0  0  0  0  0  0
   -0.9950   -8.2400  -25.2600 C   0  0  0  0  0  3  0  0  0  0  0  0
   -0.5270   -8.7020  -26.4790 C   0  0  0  0  0  3  0  0  0  0  0  0
   -0.0020   -7.7840  -27.3850 C   0  0  0  0  0  3  0  0  0  0  0  0
   -0.0210   -6.3850  -27.1170 C   0  0  0  0  0  0  0  0  0  0  0  0
   -1.2010   -6.4340  -23.6160 C   0  0  0  0  0  0  0  0  0  0  0  0
   -0.1780   -5.6580  -23.1350 N   0  0  0  0  0  0  0  0  0  0  0  0
   -2.1550   -6.7740  -22.9360 O   0  0  0  0  0  0  0  0  0  0  0  0
   -0.2180   -5.3400  -22.1770 H   0  0  0  0  0  0  0  0  0  0  0  0
    0.5990   -5.3670  -23.7150 H   0  0  0  0  0  0  0  0  0  0  0  0
  1  2  1  6  0  0  0
  3  8  1  0  0  0  0
  3 11  1  0  0  0  0
  4  3  2  0  0  0  0
  5  6  2  0  0  0  0
  5  4  1  0  0  0  0
  6  7  1  0  0  0  0
  7  1  1  0  0  0  0
  7  8  2  0  0  0  0
  9 16  1  0  0  0  0
  9 10  2  0  0  0  0
 11  9  1  0  0  0  0
 12 11  1  0  0  0  0
 13 20  1  0  0  0  0
 13 18  2  0  0  0  0
 14 13  1  0  0  0  0
 15 14  2  0  0  0  0
 15 16  1  0  0  0  0
 16 17  2  0  0  0  0
 17 18  1  0  0  0  0
 20 19  1  0  0  0  0
 21  1  1  0  0  0  0
 21 23  1  0  0  0  0
 22 21  1  0  0  0  0
 23 24  2  0  0  0  0
 23 32  1  0  0  0  0
 24 25  1  0  0  0  0
 25 26  2  0  0  0  0
 27 26  1  0  0  0  0
 27 28  1  0  0  0  0
 28 33  1  0  0  0  0
 29 28  2  0  0  0  0
 30 29  1  0  0  0  0
 31 32  1  0  0  0  0
 31 30  2  0  0  0  0
 32 27  2  0  0  0  0
 33 34  1  0  0  0  0
 33 35  2  0  0  0  0
 34 36  1  0  0  0  0
 37 34  1  0  0  0  0
M  END
>  <minimizedAffinity>
-7.77115488

$$$$

 OpenBabel10152418173D

 37 40  0  0  1  0  0  0  0  0999 V2000
   -1.0570   -6.1980  -23.2120 C   0  0  2  0  0  3  0  0  0  0  0  0
   -1.4030   -5.1280  -22.1730 C   0  0  0  0  0  1  0  0  0  0  0  0
   -1.5190   -9.9980  -22.9320 C   0  0  0  0  0  0  0  0  0  0  0  0
   -1.6490  -10.1620  -21.5520 C   0  0  0  0  0  3  0  0  0  0  0  0
   -1.4620   -9.0760  -20.6970 C   0  0  0  0  0  3  0  0  0  0  0  0
   -1.2280   -7.8040  -21.2210 C   0  0  0  0  0  3  0  0  0  0  0  0
   -1.1710   -7.6020  -22.6090 C   0  0  0  0  0  0  0  0  0  0  0  0
   -1.2600   -8.7270  -23.4580 C   0  0  0  0  0  3  0  0  0  0  0  0
   -1.1980  -11.4820  -24.9260 C   0  0  0  0  0  0  0  0  0  0  0  0
   -1.8500  -11.9850  -25.8360 O   0  0  0  0  0  0  0  0  0  0  0  0
   -1.8010  -11.1080  -23.7480 N   0  0  0  0  0  0  0  0  0  0  0  0
   -2.6560  -11.6140  -23.5480 H   0  0  0  0  0  0  0  0  0  0  0  0
    2.9910  -11.8130  -25.3450 C   0  0  0  0  0  0  0  0  0  0  0  0
    2.4540  -11.8990  -24.0660 C   0  0  0  0  0  3  0  0  0  0  0  0
    1.0800  -11.7190  -23.8990 C   0  0  0  0  0  3  0  0  0  0  0  0
    0.2780  -11.4760  -25.0140 C   0  0  0  0  0  0  0  0  0  0  0  0
    0.8940  -11.4370  -26.2540 C   0  0  0  0  0  3  0  0  0  0  0  0
    2.2310  -11.5780  -26.4380 N   0  0  0  0  0  0  0  0  0  0  0  0
    4.8270  -11.2670  -26.7140 C   0  0  0  0  0  1  0  0  0  0  0  0
    4.3080  -12.0350  -25.6340 O   0  0  0  0  0  0  0  0  0  0  0  0
    0.2830   -5.9520  -23.7320 N   0  0  0  0  0  0  0  0  0  0  0  0
    0.9410   -5.4290  -23.1820 H   0  0  0  0  0  0  0  0  0  0  0  0
    0.7290   -6.8290  -24.7180 C   0  0  0  0  0  0  0  0  0  0  0  0
    1.4440   -7.8850  -24.2950 N   0  0  0  0  0  0  0  0  0  0  0  0
    2.2130   -8.4860  -25.1960 C   0  0  0  0  0  3  0  0  0  0  0  0
    2.3970   -8.0690  -26.4490 N   0  0  0  0  0  0  0  0  0  0  0  0
    1.6390   -7.0460  -26.8830 C   0  0  0  0  0  0  0  0  0  0  0  0
    1.8220   -6.4860  -28.1490 C   0  0  0  0  0  0  0  0  0  0  0  0
    0.9850   -5.4980  -28.6860 C   0  0  0  0  0  3  0  0  0  0  0  0
   -0.0540   -5.0000  -27.9170 C   0  0  0  0  0  3  0  0  0  0  0  0
   -0.1780   -5.4350  -26.6000 C   0  0  0  0  0  3  0  0  0  0  0  0
    0.6810   -6.4380  -26.0670 C   0  0  0  0  0  0  0  0  0  0  0  0
    3.0850   -6.7500  -28.8560 C   0  0  0  0  0  0  0  0  0  0  0  0
    4.1980   -6.3770  -28.1460 N   0  0  0  0  0  0  0  0  0  0  0  0
    3.1390   -7.2130  -29.9830 O   0  0  0  0  0  0  0  0  0  0  0  0
    5.1070   -6.5020  -28.5680 H   0  0  0  0  0  0  0  0  0  0  0  0
    4.1410   -6.0110  -27.2040 H   0  0  0  0  0  0  0  0  0  0  0  0
  1  7  1  0  0  0  0
  1  2  1  1  0  0  0
  3  4  1  0  0  0  0
  4  5  2  0  0  0  0
  6  5  1  0  0  0  0
  7  6  2  0  0  0  0
  8  3  2  0  0  0  0
  8  7  1  0  0  0  0
  9 11  1  0  0  0  0
 10  9  2  0  0  0  0
 11 12  1  0  0  0  0
 11  3  1  0  0  0  0
 13 14  1  0  0  0  0
 14 15  2  0  0  0  0
 16  9  1  0  0  0  0
 16 15  1  0  0  0  0
 17 16  2  0  0  0  0
 18 17  1  0  0  0  0
 18 13  2  0  0  0  0
 19 20  1  0  0  0  0
 20 13  1  0  0  0  0
 21  1  1  0  0  0  0
 21 22  1  0  0  0  0
 23 24  1  0  0  0  0
 23 21  1  0  0  0  0
 25 24  2  0  0  0  0
 26 25  1  0  0  0  0
 27 26  2  0  0  0  0
 27 32  1  0  0  0  0
 28 27  1  0  0  0  0
 29 28  2  0  0  0  0
 29 30  1  0  0  0  0
 30 31  2  0  0  0  0
 31 32  1  0  0  0  0
 32 23  2  0  0  0  0
 33 28  1  0  0  0  0
 33 34  1  0  0  0  0
 34 37  1  0  0  0  0
 35 33  2  0  0  0  0
 36 34  1  0  0  0  0
M  END
>  <minimizedAffinity>
-7.68190193

$$$$

 OpenBabel10152418173D

 37 40  0  0  1  0  0  0  0  0999 V2000
   -0.7820   -5.7880  -25.8460 C   0  0  2  0  0  3  0  0  0  0  0  0
   -2.1870   -6.0930  -26.3730 C   0  0  0  0  0  1  0  0  0  0  0  0
    1.8900   -5.9080  -28.5990 C   0  0  0  0  0  0  0  0  0  0  0  0
    2.0500   -4.5530  -28.8900 C   0  0  0  0  0  3  0  0  0  0  0  0
    1.2150   -3.6050  -28.2990 C   0  0  0  0  0  3  0  0  0  0  0  0
    0.2700   -3.9990  -27.3510 C   0  0  0  0  0  3  0  0  0  0  0  0
    0.1440   -5.3480  -26.9840 C   0  0  0  0  0  0  0  0  0  0  0  0
    0.9270   -6.3070  -27.6650 C   0  0  0  0  0  3  0  0  0  0  0  0
    3.7640   -7.5700  -28.5180 C   0  0  0  0  0  0  0  0  0  0  0  0
    4.8590   -7.7760  -29.0330 O   0  0  0  0  0  0  0  0  0  0  0  0
    2.8150   -6.8080  -29.1570 N   0  0  0  0  0  0  0  0  0  0  0  0
    2.9210   -6.7830  -30.1650 H   0  0  0  0  0  0  0  0  0  0  0  0
    2.3250   -9.7430  -25.1950 C   0  0  0  0  0  0  0  0  0  0  0  0
    2.6450   -8.4040  -25.0100 C   0  0  0  0  0  3  0  0  0  0  0  0
    3.1910   -7.6880  -26.0760 C   0  0  0  0  0  3  0  0  0  0  0  0
    3.3850   -8.3240  -27.3040 C   0  0  0  0  0  0  0  0  0  0  0  0
    3.0090   -9.6530  -27.4060 C   0  0  0  0  0  3  0  0  0  0  0  0
    2.5060  -10.3780  -26.3750 N   0  0  0  0  0  0  0  0  0  0  0  0
    2.1910  -11.8670  -24.1860 C   0  0  0  0  0  1  0  0  0  0  0  0
    1.7280  -10.5220  -24.2430 O   0  0  0  0  0  0  0  0  0  0  0  0
   -0.2570   -6.9630  -25.1600 N   0  0  0  0  0  0  0  0  0  0  0  0
    0.7320   -7.1400  -25.1640 H   0  0  0  0  0  0  0  0  0  0  0  0
   -1.0660   -7.5040  -24.1640 C   0  0  0  0  0  0  0  0  0  0  0  0
   -1.3040   -6.7190  -23.1000 N   0  0  0  0  0  0  0  0  0  0  0  0
   -1.7020   -7.3250  -21.9870 C   0  0  0  0  0  3  0  0  0  0  0  0
   -1.7910   -8.6450  -21.8210 N   0  0  0  0  0  0  0  0  0  0  0  0
   -1.6050   -9.4220  -22.9030 C   0  0  0  0  0  0  0  0  0  0  0  0
   -1.5940  -10.8150  -22.8070 C   0  0  0  0  0  0  0  0  0  0  0  0
   -1.5160  -11.6660  -23.9200 C   0  0  0  0  0  3  0  0  0  0  0  0
   -1.3930  -11.1150  -25.1850 C   0  0  0  0  0  3  0  0  0  0  0  0
   -1.2590   -9.7340  -25.3030 C   0  0  0  0  0  3  0  0  0  0  0  0
   -1.3370   -8.8830  -24.1640 C   0  0  0  0  0  0  0  0  0  0  0  0
   -1.3980  -11.4260  -21.4830 C   0  0  0  0  0  0  0  0  0  0  0  0
   -2.4380  -11.2030  -20.6180 N   0  0  0  0  0  0  0  0  0  0  0  0
   -0.3890  -12.0360  -21.1690 O   0  0  0  0  0  0  0  0  0  0  0  0
   -2.3750  -11.5690  -19.6780 H   0  0  0  0  0  0  0  0  0  0  0  0
   -3.2770  -10.7110  -20.8970 H   0  0  0  0  0  0  0  0  0  0  0  0
  1  2  1  6  0  0  0
  1 21  1  0  0  0  0
  3  8  1  0  0  0  0
  4  3  2  0  0  0  0
  4  5  1  0  0  0  0
  5  6  2  0  0  0  0
  6  7  1  0  0  0  0
  7  1  1  0  0  0  0
  8  7  2  0  0  0  0
  9 16  1  0  0  0  0
 10  9  2  0  0  0  0
 11  3  1  0  0  0  0
 11  9  1  0  0  0  0
 12 11  1  0  0  0  0
 13 14  1  0  0  0  0
 13 20  1  0  0  0  0
 15 14  2  0  0  0  0
 16 15  1  0  0  0  0
 17 16  2  0  0  0  0
 17 18  1  0  0  0  0
 18 13  2  0  0  0  0
 20 19  1  0  0  0  0
 21 23  1  0  0  0  0
 22 21  1  0  0  0  0
 23 24  1  0  0  0  0
 24 25  2  0  0  0  0
 25 26  1  0  0  0  0
 27 28  1  0  0  0  0
 27 26  2  0  0  0  0
 28 33  1  0  0  0  0
 29 28  2  0  0  0  0
 30 29  1  0  0  0  0
 31 30  2  0  0  0  0
 31 32  1  0  0  0  0
 32 23  2  0  0  0  0
 32 27  1  0  0  0  0
 33 35  2  0  0  0  0
 33 34  1  0  0  0  0
 34 36  1  0  0  0  0
 37 34  1  0  0  0  0
M  END
>  <minimizedAffinity>
-7.48434544

$$$$

 OpenBabel10152418173D

 37 40  0  0  1  0  0  0  0  0999 V2000
    3.3090   -9.6910  -25.9660 C   0  0  2  0  0  3  0  0  0  0  0  0
    3.9860   -9.9340  -27.3180 C   0  0  0  0  0  1  0  0  0  0  0  0
    0.2400  -11.4810  -24.5120 C   0  0  0  0  0  0  0  0  0  0  0  0
   -0.3260  -12.0380  -25.6590 C   0  0  0  0  0  3  0  0  0  0  0  0
    0.1980  -11.7390  -26.9160 C   0  0  0  0  0  3  0  0  0  0  0  0
    1.3420  -10.9480  -27.0270 C   0  0  0  0  0  3  0  0  0  0  0  0
    1.9750  -10.4410  -25.8820 C   0  0  0  0  0  0  0  0  0  0  0  0
    1.3740  -10.6680  -24.6240 C   0  0  0  0  0  3  0  0  0  0  0  0
   -0.7070  -11.1010  -22.2230 C   0  0  0  0  0  0  0  0  0  0  0  0
   -0.5140  -11.4420  -21.0590 O   0  0  0  0  0  0  0  0  0  0  0  0
   -0.2770  -11.8840  -23.2680 N   0  0  0  0  0  0  0  0  0  0  0  0
   -0.1760  -12.8640  -23.0300 H   0  0  0  0  0  0  0  0  0  0  0  0
   -3.5380   -8.0460  -22.9220 C   0  0  0  0  0  0  0  0  0  0  0  0
   -2.8880   -8.5980  -24.0190 C   0  0  0  0  0  3  0  0  0  0  0  0
   -1.8960   -9.5560  -23.8040 C   0  0  0  0  0  3  0  0  0  0  0  0
   -1.5940   -9.9510  -22.5000 C   0  0  0  0  0  0  0  0  0  0  0  0
   -2.3130   -9.3710  -21.4690 C   0  0  0  0  0  3  0  0  0  0  0  0
   -3.2590   -8.4140  -21.6510 N   0  0  0  0  0  0  0  0  0  0  0  0
   -5.8420   -7.7200  -23.2830 C   0  0  0  0  0  1  0  0  0  0  0  0
   -4.5650   -7.1500  -23.0170 O   0  0  0  0  0  0  0  0  0  0  0  0
    3.1240   -8.2580  -25.7690 N   0  0  0  0  0  0  0  0  0  0  0  0
    3.8500   -7.7190  -25.3310 H   0  0  0  0  0  0  0  0  0  0  0  0
    2.1910   -7.6400  -26.5980 C   0  0  0  0  0  0  0  0  0  0  0  0
    2.5140   -7.5570  -27.8990 N   0  0  0  0  0  0  0  0  0  0  0  0
    1.8730   -6.6420  -28.6170 C   0  0  0  0  0  3  0  0  0  0  0  0
    1.0140   -5.7470  -28.1300 N   0  0  0  0  0  0  0  0  0  0  0  0
    0.6530   -5.8690  -26.8400 C   0  0  0  0  0  0  0  0  0  0  0  0
   -0.1730   -4.9290  -26.2200 C   0  0  0  0  0  0  0  0  0  0  0  0
   -0.6660   -5.0730  -24.9150 C   0  0  0  0  0  3  0  0  0  0  0  0
   -0.2830   -6.1730  -24.1650 C   0  0  0  0  0  3  0  0  0  0  0  0
    0.6510   -7.0550  -24.7020 C   0  0  0  0  0  3  0  0  0  0  0  0
    1.1450   -6.8950  -26.0280 C   0  0  0  0  0  0  0  0  0  0  0  0
   -0.3350   -3.6110  -26.8550 C   0  0  0  0  0  0  0  0  0  0  0  0
    0.7110   -3.2630  -27.6700 N   0  0  0  0  0  0  0  0  0  0  0  0
   -1.2870   -2.8780  -26.6430 O   0  0  0  0  0  0  0  0  0  0  0  0
    0.6910   -2.3630  -28.1280 H   0  0  0  0  0  0  0  0  0  0  0  0
    1.4860   -3.8890  -27.8510 H   0  0  0  0  0  0  0  0  0  0  0  0
  1  2  1  6  0  0  0
  1  7  1  0  0  0  0
  1 21  1  0  0  0  0
  3 11  1  0  0  0  0
  4  3  2  0  0  0  0
  5  4  1  0  0  0  0
  6  5  2  0  0  0  0
  6  7  1  0  0  0  0
  7  8  2  0  0  0  0
  8  3  1  0  0  0  0
  9 10  2  0  0  0  0
 11 12  1  0  0  0  0
 11  9  1  0  0  0  0
 13 18  2  0  0  0  0
 14 15  2  0  0  0  0
 14 13  1  0  0  0  0
 15 16  1  0  0  0  0
 16  9  1  0  0  0  0
 16 17  2  0  0  0  0
 18 17  1  0  0  0  0
 19 20  1  0  0  0  0
 20 13  1  0  0  0  0
 21 22  1  0  0  0  0
 23 32  1  0  0  0  0
 23 21  1  0  0  0  0
 24 23  2  0  0  0  0
 25 26  2  0  0  0  0
 25 24  1  0  0  0  0
 26 27  1  0  0  0  0
 27 28  2  0  0  0  0
 27 32  1  0  0  0  0
 28 29  1  0  0  0  0
 29 30  2  0  0  0  0
 31 30  1  0  0  0  0
 32 31  2  0  0  0  0
 33 35  2  0  0  0  0
 33 28  1  0  0  0  0
 34 33  1  0  0  0  0
 36 34  1  0  0  0  0
 37 34  1  0  0  0  0
M  END
>  <minimizedAffinity>
-7.19565153

$$$$

 OpenBabel10152418173D

 37 40  0  0  1  0  0  0  0  0999 V2000
   -0.5350   -5.8380  -24.2020 C   0  0  2  0  0  3  0  0  0  0  0  0
   -0.5820   -4.4470  -23.5630 C   0  0  0  0  0  1  0  0  0  0  0  0
   -1.6660   -8.7610  -21.9860 C   0  0  0  0  0  0  0  0  0  0  0  0
   -3.0360   -8.7970  -22.2520 C   0  0  0  0  0  3  0  0  0  0  0  0
   -3.6230   -7.8090  -23.0410 C   0  0  0  0  0  3  0  0  0  0  0  0
   -2.8320   -6.8270  -23.6370 C   0  0  0  0  0  3  0  0  0  0  0  0
   -1.4410   -6.8160  -23.4470 C   0  0  0  0  0  0  0  0  0  0  0  0
   -0.8750   -7.7610  -22.5640 C   0  0  0  0  0  3  0  0  0  0  0  0
   -1.0600  -11.1600  -21.5940 C   0  0  0  0  0  0  0  0  0  0  0  0
   -1.1890  -12.0330  -20.7400 O   0  0  0  0  0  0  0  0  0  0  0  0
   -1.1160   -9.8280  -21.2560 N   0  0  0  0  0  0  0  0  0  0  0  0
   -0.8730   -9.6410  -20.2900 H   0  0  0  0  0  0  0  0  0  0  0  0
    0.3450  -11.9060  -25.5060 C   0  0  0  0  0  0  0  0  0  0  0  0
   -1.0160  -11.6890  -25.3320 C   0  0  0  0  0  3  0  0  0  0  0  0
   -1.5110  -11.5140  -24.0380 C   0  0  0  0  0  3  0  0  0  0  0  0
   -0.6300  -11.5420  -22.9560 C   0  0  0  0  0  0  0  0  0  0  0  0
    0.7150  -11.7330  -23.2250 C   0  0  0  0  0  3  0  0  0  0  0  0
    1.2140  -11.9380  -24.4710 N   0  0  0  0  0  0  0  0  0  0  0  0
    2.3700  -12.0390  -26.7000 C   0  0  0  0  0  1  0  0  0  0  0  0
    0.9470  -12.0260  -26.7270 O   0  0  0  0  0  0  0  0  0  0  0  0
    0.8450   -6.3090  -24.2310 N   0  0  0  0  0  0  0  0  0  0  0  0
    1.3950   -6.2900  -23.3910 H   0  0  0  0  0  0  0  0  0  0  0  0
    1.1730   -7.1790  -25.2680 C   0  0  0  0  0  0  0  0  0  0  0  0
    1.7110   -8.3560  -24.9080 N   0  0  0  0  0  0  0  0  0  0  0  0
    2.3980   -9.0100  -25.8390 C   0  0  0  0  0  3  0  0  0  0  0  0
    2.6700   -8.5460  -27.0590 N   0  0  0  0  0  0  0  0  0  0  0  0
    2.0850   -7.3940  -27.4320 C   0  0  0  0  0  0  0  0  0  0  0  0
    2.3770   -6.7890  -28.6560 C   0  0  0  0  0  0  0  0  0  0  0  0
    1.7110   -5.6520  -29.1360 C   0  0  0  0  0  3  0  0  0  0  0  0
    0.7440   -5.0520  -28.3470 C   0  0  0  0  0  3  0  0  0  0  0  0
    0.5280   -5.5460  -27.0630 C   0  0  0  0  0  3  0  0  0  0  0  0
    1.2140   -6.7000  -26.5880 C   0  0  0  0  0  0  0  0  0  0  0  0
    3.6000   -7.1970  -29.3650 C   0  0  0  0  0  0  0  0  0  0  0  0
    4.7450   -6.6590  -28.8360 N   0  0  0  0  0  0  0  0  0  0  0  0
    3.5960   -7.9090  -30.3560 O   0  0  0  0  0  0  0  0  0  0  0  0
    5.6300   -6.8690  -29.2770 H   0  0  0  0  0  0  0  0  0  0  0  0
    4.7370   -6.0840  -28.0020 H   0  0  0  0  0  0  0  0  0  0  0  0
  1  2  1  1  0  0  0
  1  7  1  0  0  0  0
  3 11  1  0  0  0  0
  4  3  1  0  0  0  0
  5  4  2  0  0  0  0
  6  7  2  0  0  0  0
  6  5  1  0  0  0  0
  7  8  1  0  0  0  0
  8  3  2  0  0  0  0
  9 11  1  0  0  0  0
  9 10  2  0  0  0  0
 11 12  1  0  0  0  0
 13 14  1  0  0  0  0
 13 18  2  0  0  0  0
 14 15  2  0  0  0  0
 15 16  1  0  0  0  0
 16  9  1  0  0  0  0
 17 16  2  0  0  0  0
 18 17  1  0  0  0  0
 20 19  1  0  0  0  0
 20 13  1  0  0  0  0
 21  1  1  0  0  0  0
 21 22  1  0  0  0  0
 23 24  1  0  0  0  0
 23 21  1  0  0  0  0
 25 24  2  0  0  0  0
 26 25  1  0  0  0  0
 27 26  2  0  0  0  0
 27 32  1  0  0  0  0
 28 27  1  0  0  0  0
 29 28  2  0  0  0  0
 29 30  1  0  0  0  0
 30 31  2  0  0  0  0
 31 32  1  0  0  0  0
 32 23  2  0  0  0  0
 33 34  1  0  0  0  0
 33 28  1  0  0  0  0
 34 37  1  0  0  0  0
 35 33  2  0  0  0  0
 36 34  1  0  0  0  0
M  END
>  <minimizedAffinity>
-7.04656696

$$$$

 OpenBabel10152418173D

 37 40  0  0  1  0  0  0  0  0999 V2000
   -1.0430   -6.0300  -24.0640 C   0  0  2  0  0  3  0  0  0  0  0  0
    0.2310   -5.2960  -23.6330 C   0  0  0  0  0  1  0  0  0  0  0  0
   -1.6520   -9.7740  -23.4820 C   0  0  0  0  0  0  0  0  0  0  0  0
   -1.6390   -9.8450  -22.0880 C   0  0  0  0  0  3  0  0  0  0  0  0
   -1.3080   -8.7200  -21.3320 C   0  0  0  0  0  3  0  0  0  0  0  0
   -1.0720   -7.4980  -21.9630 C   0  0  0  0  0  3  0  0  0  0  0  0
   -1.1570   -7.3850  -23.3590 C   0  0  0  0  0  0  0  0  0  0  0  0
   -1.3920   -8.5540  -24.1160 C   0  0  0  0  0  3  0  0  0  0  0  0
   -1.4780  -11.5270  -25.2640 C   0  0  0  0  0  0  0  0  0  0  0  0
   -2.1530  -12.0250  -26.1600 O   0  0  0  0  0  0  0  0  0  0  0  0
   -2.0750  -10.9150  -24.1870 N   0  0  0  0  0  0  0  0  0  0  0  0
   -3.0150  -11.2430  -23.9990 H   0  0  0  0  0  0  0  0  0  0  0  0
    2.7300  -11.8610  -25.1220 C   0  0  0  0  0  0  0  0  0  0  0  0
    2.1020  -12.0390  -26.3490 C   0  0  0  0  0  3  0  0  0  0  0  0
    0.7080  -12.0060  -26.4030 C   0  0  0  0  0  3  0  0  0  0  0  0
   -0.0200  -11.7770  -25.2350 C   0  0  0  0  0  0  0  0  0  0  0  0
    0.6890  -11.5800  -24.0620 C   0  0  0  0  0  3  0  0  0  0  0  0
    2.0430  -11.6400  -23.9790 N   0  0  0  0  0  0  0  0  0  0  0  0
    4.8320  -11.6640  -26.1650 C   0  0  0  0  0  1  0  0  0  0  0  0
    4.0860  -11.8110  -24.9620 O   0  0  0  0  0  0  0  0  0  0  0  0
   -1.0440   -6.1850  -25.5140 N   0  0  0  0  0  0  0  0  0  0  0  0
   -1.9170   -6.2850  -26.0020 H   0  0  0  0  0  0  0  0  0  0  0  0
    0.0870   -5.7230  -26.1810 C   0  0  0  0  0  0  0  0  0  0  0  0
   -0.0560   -4.5810  -26.8730 N   0  0  0  0  0  0  0  0  0  0  0  0
    0.8390   -4.3410  -27.8250 C   0  0  0  0  0  3  0  0  0  0  0  0
    1.8010   -5.1840  -28.2040 N   0  0  0  0  0  0  0  0  0  0  0  0
    1.9730   -6.3000  -27.4730 C   0  0  0  0  0  0  0  0  0  0  0  0
    2.8960   -7.2810  -27.8450 C   0  0  0  0  0  0  0  0  0  0  0  0
    3.1900   -8.4030  -27.0570 C   0  0  0  0  0  3  0  0  0  0  0  0
    2.5040   -8.5950  -25.8700 C   0  0  0  0  0  3  0  0  0  0  0  0
    1.4790   -7.7120  -25.5400 C   0  0  0  0  0  3  0  0  0  0  0  0
    1.1890   -6.5780  -26.3510 C   0  0  0  0  0  0  0  0  0  0  0  0
    3.3990   -7.2830  -29.2270 C   0  0  0  0  0  0  0  0  0  0  0  0
    4.5500   -6.5550  -29.3920 N   0  0  0  0  0  0  0  0  0  0  0  0
    2.8260   -7.8400  -30.1490 O   0  0  0  0  0  0  0  0  0  0  0  0
    4.9520   -6.4850  -30.3160 H   0  0  0  0  0  0  0  0  0  0  0  0
    5.0260   -6.1130  -28.6160 H   0  0  0  0  0  0  0  0  0  0  0  0
  1  2  1  1  0  0  0
  1  7  1  0  0  0  0
  3  4  1  0  0  0  0
  4  5  2  0  0  0  0
  6  5  1  0  0  0  0
  7  6  2  0  0  0  0
  8  3  2  0  0  0  0
  8  7  1  0  0  0  0
  9 16  1  0  0  0  0
  9 11  1  0  0  0  0
 10  9  2  0  0  0  0
 11 12  1  0  0  0  0
 11  3  1  0  0  0  0
 13 20  1  0  0  0  0
 13 18  2  0  0  0  0
 14 13  1  0  0  0  0
 15 14  2  0  0  0  0
 15 16  1  0  0  0  0
 16 17  2  0  0  0  0
 17 18  1  0  0  0  0
 19 20  1  0  0  0  0
 21  1  1  0  0  0  0
 22 21  1  0  0  0  0
 23 21  1  0  0  0  0
 24 23  2  0  0  0  0
 25 24  1  0  0  0  0
 26 25  2  0  0  0  0
 26 27  1  0  0  0  0
 27 32  1  0  0  0  0
 28 27  2  0  0  0  0
 28 29  1  0  0  0  0
 29 30  2  0  0  0  0
 30 31  1  0  0  0  0
 32 23  1  0  0  0  0
 32 31  2  0  0  0  0
 33 28  1  0  0  0  0
 34 33  1  0  0  0  0
 34 37  1  0  0  0  0
 35 33  2  0  0  0  0
 36 34  1  0  0  0  0
M  END
>  <minimizedAffinity>
-6.66660452

$$$$

 OpenBabel10152418173D

 37 40  0  0  1  0  0  0  0  0999 V2000
    0.2800   -5.1860  -27.8830 C   0  0  2  0  0  3  0  0  0  0  0  0
    1.5510   -4.4730  -28.3520 C   0  0  0  0  0  1  0  0  0  0  0  0
   -0.4530   -5.0290  -24.1180 C   0  0  0  0  0  0  0  0  0  0  0  0
   -1.2100   -3.8600  -24.0310 C   0  0  0  0  0  3  0  0  0  0  0  0
   -1.3810   -3.0500  -25.1540 C   0  0  0  0  0  3  0  0  0  0  0  0
   -0.8670   -3.4470  -26.3880 C   0  0  0  0  0  3  0  0  0  0  0  0
   -0.1690   -4.6590  -26.5170 C   0  0  0  0  0  0  0  0  0  0  0  0
    0.0830   -5.4170  -25.3520 C   0  0  0  0  0  3  0  0  0  0  0  0
   -1.1180   -6.9740  -22.6850 C   0  0  0  0  0  0  0  0  0  0  0  0
   -1.4740   -7.2140  -21.5350 O   0  0  0  0  0  0  0  0  0  0  0  0
   -0.3860   -5.8480  -22.9770 N   0  0  0  0  0  0  0  0  0  0  0  0
    0.1440   -5.4890  -22.1910 H   0  0  0  0  0  0  0  0  0  0  0  0
   -1.2390   -9.9890  -25.6400 C   0  0  0  0  0  0  0  0  0  0  0  0
   -1.4710   -8.6780  -26.0360 C   0  0  0  0  0  3  0  0  0  0  0  0
   -1.5080   -7.6770  -25.0640 C   0  0  0  0  0  3  0  0  0  0  0  0
   -1.2940   -8.0100  -23.7260 C   0  0  0  0  0  0  0  0  0  0  0  0
   -1.0410   -9.3380  -23.4260 C   0  0  0  0  0  3  0  0  0  0  0  0
   -1.0310  -10.3330  -24.3490 N   0  0  0  0  0  0  0  0  0  0  0  0
   -0.0810  -11.9610  -26.2020 C   0  0  0  0  0  1  0  0  0  0  0  0
   -1.1190  -11.0370  -26.5100 O   0  0  0  0  0  0  0  0  0  0  0  0
    0.5200   -6.6240  -27.8420 N   0  0  0  0  0  0  0  0  0  0  0  0
   -0.2460   -7.2600  -27.9810 H   0  0  0  0  0  0  0  0  0  0  0  0
    1.8290   -7.0340  -28.0840 C   0  0  0  0  0  0  0  0  0  0  0  0
    2.3760   -6.6250  -29.2400 N   0  0  0  0  0  0  0  0  0  0  0  0
    3.4220   -7.3120  -29.6840 C   0  0  0  0  0  3  0  0  0  0  0  0
    3.9050   -8.4220  -29.1240 N   0  0  0  0  0  0  0  0  0  0  0  0
    3.3890   -8.7970  -27.9400 C   0  0  0  0  0  0  0  0  0  0  0  0
    3.7700   -9.9900  -27.3220 C   0  0  0  0  0  0  0  0  0  0  0  0
    3.3460  -10.3660  -26.0390 C   0  0  0  0  0  3  0  0  0  0  0  0
    2.4620   -9.5500  -25.3530 C   0  0  0  0  0  3  0  0  0  0  0  0
    1.9520   -8.4250  -25.9970 C   0  0  0  0  0  3  0  0  0  0  0  0
    2.3900   -8.0570  -27.3010 C   0  0  0  0  0  0  0  0  0  0  0  0
    4.4360  -11.0190  -28.1340 C   0  0  0  0  0  0  0  0  0  0  0  0
    4.9740  -12.0390  -27.3920 N   0  0  0  0  0  0  0  0  0  0  0  0
    4.5400  -10.9520  -29.3480 O   0  0  0  0  0  0  0  0  0  0  0  0
    5.4710  -12.7780  -27.8700 H   0  0  0  0  0  0  0  0  0  0  0  0
    4.8650  -12.0920  -26.3870 H   0  0  0  0  0  0  0  0  0  0  0  0
  1  2  1  1  0  0  0
  1 21  1  0  0  0  0
  1  7  1  0  0  0  0
  3  4  1  0  0  0  0
  3 11  1  0  0  0  0
  5  4  2  0  0  0  0
  6  5  1  0  0  0  0
  7  6  2  0  0  0  0
  7  8  1  0  0  0  0
  8  3  2  0  0  0  0
  9 10  2  0  0  0  0
 11  9  1  0  0  0  0
 11 12  1  0  0  0  0
 13 18  2  0  0  0  0
 14 13  1  0  0  0  0
 14 15  2  0  0  0  0
 15 16  1  0  0  0  0
 16 17  2  0  0  0  0
 16  9  1  0  0  0  0
 18 17  1  0  0  0  0
 20 19  1  0  0  0  0
 20 13  1  0  0  0  0
 22 21  1  0  0  0  0
 23 21  1  0  0  0  0
 23 32  1  0  0  0  0
 24 23  2  0  0  0  0
 25 24  1  0  0  0  0
 25 26  2  0  0  0  0
 26 27  1  0  0  0  0
 27 28  2  0  0  0  0
 27 32  1  0  0  0  0
 28 29  1  0  0  0  0
 29 30  2  0  0  0  0
 31 30  1  0  0  0  0
 32 31  2  0  0  0  0
 33 34  1  0  0  0  0
 33 28  1  0  0  0  0
 34 37  1  0  0  0  0
 35 33  2  0  0  0  0
 36 34  1  0  0  0  0
M  END
>  <minimizedAffinity>
-6.16320705

$$$$
