
 OpenBabel11232420453D

 42 47  0  0  1  0  0  0  0  0999 V2000
  -18.2540   34.3210   18.1180 C   0  0  0  0  0  0  0  0  0  0  0  0
  -17.6470   35.5750   17.9730 C   0  0  0  0  0  3  0  0  0  0  0  0
  -17.0160   35.9080   16.7720 C   0  0  0  0  0  3  0  0  0  0  0  0
  -16.9660   34.9760   15.7350 C   0  0  0  0  0  0  0  0  0  0  0  0
  -17.5620   33.7190   15.8870 C   0  0  0  0  0  0  0  0  0  0  0  0
  -18.2000   33.3840   17.0820 C   0  0  0  0  0  3  0  0  0  0  0  0
  -17.5010   32.8160   14.7640 C   0  0  0  0  0  0  0  0  0  0  0  0
  -18.1160   31.6720   14.5670 N   0  0  0  0  0  0  0  0  0  0  0  0
  -17.7000   31.2380   13.3230 C   0  0  0  0  0  0  0  0  0  0  0  0
  -16.8100   32.1410   12.7510 C   0  0  0  0  0  0  0  0  0  0  0  0
  -16.7170   33.1400   13.6950 N   0  0  0  0  0  0  0  0  0  0  0  0
  -15.8900   34.3320   13.6890 C   0  0  0  0  0  2  0  0  0  0  0  0
  -16.3680   35.3730   14.5660 O   0  0  0  0  0  0  0  0  0  0  0  0
  -16.1240   32.1790   11.4670 C   0  0  0  0  0  0  0  0  0  0  0  0
  -14.9450   31.4490   11.2710 C   0  0  0  0  0  3  0  0  0  0  0  0
  -14.2870   31.4940   10.0400 C   0  0  0  0  0  3  0  0  0  0  0  0
  -14.8040   32.2670    9.0010 C   0  0  0  0  0  3  0  0  0  0  0  0
  -15.9780   32.9930    9.1890 C   0  0  0  0  0  3  0  0  0  0  0  0
  -16.6390   32.9490   10.4180 C   0  0  0  0  0  3  0  0  0  0  0  0
  -18.1940   29.9860   12.7710 C   0  0  0  0  0  0  0  0  0  0  0  0
  -17.3550   28.9270   12.4240 C   0  0  0  0  0  3  0  0  0  0  0  0
  -17.8880   27.7240   11.9390 C   0  0  0  0  0  3  0  0  0  0  0  0
  -19.2760   27.5220   11.7850 C   0  0  0  0  0  0  0  0  0  0  0  0
  -20.1000   28.6080   12.1400 C   0  0  0  0  0  3  0  0  0  0  0  0
  -19.5740   29.8110   12.6250 C   0  0  0  0  0  3  0  0  0  0  0  0
  -19.8740   26.1490   11.2980 C   0  0  1  0  0  0  0  0  0  0  0  0
  -18.9870   25.1640   10.4770 C   0  0  0  0  0  2  0  0  0  0  0  0
  -19.8210   24.0110   11.1110 C   0  0  1  0  0  0  0  0  0  0  0  0
  -19.0480   22.7380   11.3980 C   0  0  0  0  0  1  0  0  0  0  0  0
  -20.0480   24.9750   12.3130 C   0  0  0  0  0  2  0  0  0  0  0  0
  -21.1440   26.4420   10.5820 N   0  0  0  0  0  4  0  0  0  0  0  0
  -21.8360   26.8930   11.1900 H   0  0  0  0  0  0  0  0  0  0  0  0
  -20.9940   27.0570    9.7740 H   0  0  0  0  0  0  0  0  0  0  0  0
  -21.5600   25.5590   10.2270 H   0  0  0  0  0  0  0  0  0  0  0  0
  -21.0450   23.7310   10.3780 O   0  0  0  0  0  0  0  0  0  0  0  0
  -21.2610   22.7930   10.5620 H   0  0  0  0  0  0  0  0  0  0  0  0
  -20.2660   34.0470   19.5240 N   0  0  0  0  0  0  0  0  0  0  0  0
  -18.9070   33.9280   19.3850 C   0  0  0  0  0  0  0  0  0  0  0  0
  -18.2240   33.4740   20.2980 O   0  0  0  0  0  0  0  0  0  0  0  0
  -20.5890   33.8140   20.4550 H   0  0  0  0  0  0  0  0  0  0  0  0
  -21.5280   35.9020   18.5370 C   0  0  0  0  0  1  0  0  0  0  0  0
  -21.2510   34.4090   18.5220 C   0  0  0  0  0  2  0  0  0  0  0  0
  1 38  1  0  0  0  0
  2  1  1  0  0  0  0
  3  2  2  0  0  0  0
  4  5  2  0  0  0  0
  4  3  1  0  0  0  0
  5  6  1  0  0  0  0
  6  1  2  0  0  0  0
  7  5  1  0  0  0  0
  8  7  2  0  0  0  0
  9  8  1  0  0  0  0
 10  9  2  0  0  0  0
 10 11  1  0  0  0  0
 11  7  1  0  0  0  0
 12 11  1  0  0  0  0
 12 13  1  0  0  0  0
 13  4  1  0  0  0  0
 14 10  1  0  0  0  0
 15 14  1  0  0  0  0
 16 15  2  0  0  0  0
 17 18  2  0  0  0  0
 17 16  1  0  0  0  0
 18 19  1  0  0  0  0
 19 14  2  0  0  0  0
 20  9  1  0  0  0  0
 21 20  2  0  0  0  0
 22 21  1  0  0  0  0
 23 22  2  0  0  0  0
 23 24  1  0  0  0  0
 24 25  2  0  0  0  0
 25 20  1  0  0  0  0
 26 31  1  6  0  0  0
 26 23  1  0  0  0  0
 26 30  1  0  0  0  0
 27 28  1  0  0  0  0
 27 26  1  0  0  0  0
 28 29  1  1  0  0  0
 28 30  1  0  0  0  0
 31 32  1  0  0  0  0
 33 31  1  0  0  0  0
 34 31  1  0  0  0  0
 35 36  1  0  0  0  0
 35 28  1  0  0  0  0
 37 40  1  0  0  0  0
 38 37  1  0  0  0  0
 38 39  2  0  0  0  0
 42 41  1  0  0  0  0
 42 37  1  0  0  0  0
M  END
>  <minimizedAffinity>
-10.1915531

$$$$
