
 OpenBabel11232420453D

 42 47  0  0  1  0  0  0  0  0999 V2000
  -22.0590   17.0050   14.9340 C   0  0  0  0  0  0  0  0  0  0  0  0
  -21.8080   15.6940   14.5110 C   0  0  0  0  0  3  0  0  0  0  0  0
  -21.0710   15.4660   13.3470 C   0  0  0  0  0  3  0  0  0  0  0  0
  -20.6160   16.5480   12.5940 C   0  0  0  0  0  0  0  0  0  0  0  0
  -20.8790   17.8580   13.0110 C   0  0  0  0  0  0  0  0  0  0  0  0
  -21.6080   18.0910   14.1770 C   0  0  0  0  0  3  0  0  0  0  0  0
  -20.3520   18.9300   12.2020 C   0  0  0  0  0  0  0  0  0  0  0  0
  -20.2910   20.2190   12.4450 N   0  0  0  0  0  0  0  0  0  0  0  0
  -19.6830   20.7760   11.3360 C   0  0  0  0  0  0  0  0  0  0  0  0
  -19.3680   19.8010   10.3970 C   0  0  0  0  0  0  0  0  0  0  0  0
  -19.8000   18.6340   10.9890 N   0  0  0  0  0  0  0  0  0  0  0  0
  -19.7920   17.2830   10.4620 C   0  0  0  0  0  2  0  0  0  0  0  0
  -19.8650   16.2640   11.4820 O   0  0  0  0  0  0  0  0  0  0  0  0
  -18.6990   19.8490    9.1040 C   0  0  0  0  0  0  0  0  0  0  0  0
  -17.7880   18.8500    8.7400 C   0  0  0  0  0  3  0  0  0  0  0  0
  -17.1440   18.9040    7.5020 C   0  0  0  0  0  3  0  0  0  0  0  0
  -17.4070   19.9540    6.6240 C   0  0  0  0  0  3  0  0  0  0  0  0
  -18.3160   20.9500    6.9790 C   0  0  0  0  0  3  0  0  0  0  0  0
  -18.9620   20.8980    8.2160 C   0  0  0  0  0  3  0  0  0  0  0  0
  -19.4440   22.2100   11.2640 C   0  0  0  0  0  0  0  0  0  0  0  0
  -18.1890   22.7810   11.4780 C   0  0  0  0  0  3  0  0  0  0  0  0
  -18.0050   24.1650   11.3510 C   0  0  0  0  0  3  0  0  0  0  0  0
  -19.0570   25.0370   11.0000 C   0  0  0  0  0  0  0  0  0  0  0  0
  -20.3140   24.4350   10.7930 C   0  0  0  0  0  3  0  0  0  0  0  0
  -20.5040   23.0540   10.9180 C   0  0  0  0  0  3  0  0  0  0  0  0
  -18.8330   26.5820   10.7980 C   0  0  1  0  0  0  0  0  0  0  0  0
  -20.0160   27.5730   11.0290 C   0  0  0  0  0  2  0  0  0  0  0  0
  -18.9470   28.6220   11.4590 C   0  0  1  0  0  0  0  0  0  0  0  0
  -19.3790   29.5700   12.5610 C   0  0  0  0  0  1  0  0  0  0  0  0
  -18.0740   27.4060   11.8870 C   0  0  0  0  0  2  0  0  0  0  0  0
  -18.2330   26.7770    9.4520 N   0  0  0  0  0  4  0  0  0  0  0  0
  -17.3240   26.3100    9.3620 H   0  0  0  0  0  0  0  0  0  0  0  0
  -18.8400   26.4180    8.7070 H   0  0  0  0  0  0  0  0  0  0  0  0
  -18.0890   27.7900    9.2730 H   0  0  0  0  0  0  0  0  0  0  0  0
  -18.3830   29.3470   10.3310 O   0  0  0  0  0  0  0  0  0  0  0  0
  -18.0830   30.2100   10.6880 H   0  0  0  0  0  0  0  0  0  0  0  0
  -22.2490   17.3250   17.3760 N   0  0  0  0  0  0  0  0  0  0  0  0
  -22.8580   17.2810   16.1470 C   0  0  0  0  0  0  0  0  0  0  0  0
  -24.0620   17.4900   16.0400 O   0  0  0  0  0  0  0  0  0  0  0  0
  -22.9060   17.4520   18.1370 H   0  0  0  0  0  0  0  0  0  0  0  0
  -20.5350   16.1250   18.6510 C   0  0  0  0  0  1  0  0  0  0  0  0
  -20.8340   17.2600   17.6890 C   0  0  0  0  0  2  0  0  0  0  0  0
  1 38  1  0  0  0  0
  2  1  1  0  0  0  0
  3  2  2  0  0  0  0
  4  5  2  0  0  0  0
  4  3  1  0  0  0  0
  5  6  1  0  0  0  0
  6  1  2  0  0  0  0
  7  8  2  0  0  0  0
  7  5  1  0  0  0  0
  9  8  1  0  0  0  0
 10 11  1  0  0  0  0
 10  9  2  0  0  0  0
 11  7  1  0  0  0  0
 12 11  1  0  0  0  0
 12 13  1  0  0  0  0
 13  4  1  0  0  0  0
 14 10  1  0  0  0  0
 15 14  1  0  0  0  0
 16 15  2  0  0  0  0
 17 18  2  0  0  0  0
 17 16  1  0  0  0  0
 18 19  1  0  0  0  0
 19 14  2  0  0  0  0
 20  9  1  0  0  0  0
 20 21  1  0  0  0  0
 22 21  2  0  0  0  0
 23 22  1  0  0  0  0
 24 25  1  0  0  0  0
 24 23  2  0  0  0  0
 25 20  2  0  0  0  0
 26 31  1  6  0  0  0
 26 23  1  0  0  0  0
 26 27  1  0  0  0  0
 26 30  1  0  0  0  0
 27 28  1  0  0  0  0
 28 30  1  0  0  0  0
 28 29  1  1  0  0  0
 32 31  1  0  0  0  0
 33 31  1  0  0  0  0
 34 31  1  0  0  0  0
 35 36  1  0  0  0  0
 35 28  1  0  0  0  0
 37 42  1  0  0  0  0
 37 40  1  0  0  0  0
 38 37  1  0  0  0  0
 39 38  2  0  0  0  0
 42 41  1  0  0  0  0
M  END
>  <minimizedAffinity>
-12.6254263

$$$$

 OpenBabel11232420453D

 42 47  0  0  1  0  0  0  0  0999 V2000
  -19.6380   28.7370   12.3670 C   0  0  0  0  0  0  0  0  0  0  0  0
  -19.0260   29.4200   11.3090 C   0  0  0  0  0  3  0  0  0  0  0  0
  -18.5440   28.7090   10.2070 C   0  0  0  0  0  3  0  0  0  0  0  0
  -18.6480   27.3180   10.1830 C   0  0  0  0  0  0  0  0  0  0  0  0
  -19.2480   26.6360   11.2480 C   0  0  0  0  0  0  0  0  0  0  0  0
  -19.7370   27.3420   12.3480 C   0  0  0  0  0  3  0  0  0  0  0  0
  -19.3500   25.2010   11.1440 C   0  0  0  0  0  0  0  0  0  0  0  0
  -20.0100   24.3460   11.8900 N   0  0  0  0  0  0  0  0  0  0  0  0
  -19.7650   23.1040   11.3360 C   0  0  0  0  0  0  0  0  0  0  0  0
  -18.9340   23.2090   10.2260 C   0  0  0  0  0  0  0  0  0  0  0  0
  -18.7000   24.5630   10.1280 N   0  0  0  0  0  0  0  0  0  0  0  0
  -17.8530   25.2810    9.1930 C   0  0  0  0  0  2  0  0  0  0  0  0
  -18.1930   26.6770    9.0590 O   0  0  0  0  0  0  0  0  0  0  0  0
  -18.4150   22.2310    9.2800 C   0  0  0  0  0  0  0  0  0  0  0  0
  -19.1900   21.8180    8.1890 C   0  0  0  0  0  3  0  0  0  0  0  0
  -18.6910   20.8750    7.2890 C   0  0  0  0  0  3  0  0  0  0  0  0
  -17.4170   20.3410    7.4730 C   0  0  0  0  0  3  0  0  0  0  0  0
  -16.6390   20.7490    8.5550 C   0  0  0  0  0  3  0  0  0  0  0  0
  -17.1360   21.6930    9.4570 C   0  0  0  0  0  3  0  0  0  0  0  0
  -20.3540   21.9050   11.9130 C   0  0  0  0  0  0  0  0  0  0  0  0
  -19.6620   20.6990   12.0220 C   0  0  0  0  0  3  0  0  0  0  0  0
  -20.2620   19.5850   12.6290 C   0  0  0  0  0  3  0  0  0  0  0  0
  -21.5690   19.6280   13.1570 C   0  0  0  0  0  0  0  0  0  0  0  0
  -22.2460   20.8570   13.0310 C   0  0  0  0  0  3  0  0  0  0  0  0
  -21.6520   21.9710   12.4270 C   0  0  0  0  0  3  0  0  0  0  0  0
  -22.2160   18.3950   13.8920 C   0  0  1  0  0  0  0  0  0  0  0  0
  -22.7990   17.2130   13.0570 C   0  0  0  0  0  2  0  0  0  0  0  0
  -22.4200   16.2880   14.2520 C   0  0  1  0  0  0  0  0  0  0  0  0
  -21.9660   14.8920   13.8690 C   0  0  0  0  0  1  0  0  0  0  0  0
  -21.3010   17.3240   14.5660 C   0  0  0  0  0  2  0  0  0  0  0  0
  -23.2290   18.9220   14.8440 N   0  0  0  0  0  4  0  0  0  0  0  0
  -22.8120   19.5320   15.5550 H   0  0  0  0  0  0  0  0  0  0  0  0
  -23.9610   19.4590   14.3660 H   0  0  0  0  0  0  0  0  0  0  0  0
  -23.6950   18.1330   15.3360 H   0  0  0  0  0  0  0  0  0  0  0  0
  -23.4480   16.2450   15.2790 O   0  0  0  0  0  0  0  0  0  0  0  0
  -23.3420   15.3810   15.7310 H   0  0  0  0  0  0  0  0  0  0  0  0
  -19.2920   30.2730   14.2700 N   0  0  0  0  0  0  0  0  0  0  0  0
  -20.1350   29.4570   13.5600 C   0  0  0  0  0  0  0  0  0  0  0  0
  -21.3100   29.3340   13.8900 O   0  0  0  0  0  0  0  0  0  0  0  0
  -19.7240   30.6560   15.1030 H   0  0  0  0  0  0  0  0  0  0  0  0
  -16.9260   29.7170   14.5770 C   0  0  0  0  0  1  0  0  0  0  0  0
  -17.9320   30.6670   13.9540 C   0  0  0  0  0  2  0  0  0  0  0  0
  1 38  1  0  0  0  0
  2  1  2  0  0  0  0
  3  2  1  0  0  0  0
  4  3  2  0  0  0  0
  4  5  1  0  0  0  0
  5  6  2  0  0  0  0
  6  1  1  0  0  0  0
  7  5  1  0  0  0  0
  7  8  2  0  0  0  0
  9  8  1  0  0  0  0
  9 20  1  0  0  0  0
 10  9  2  0  0  0  0
 11 10  1  0  0  0  0
 11  7  1  0  0  0  0
 12 11  1  0  0  0  0
 13 12  1  0  0  0  0
 13  4  1  0  0  0  0
 14 19  1  0  0  0  0
 14 10  1  0  0  0  0
 15 14  2  0  0  0  0
 16 17  2  0  0  0  0
 16 15  1  0  0  0  0
 17 18  1  0  0  0  0
 18 19  2  0  0  0  0
 20 21  2  0  0  0  0
 20 25  1  0  0  0  0
 21 22  1  0  0  0  0
 22 23  2  0  0  0  0
 23 26  1  0  0  0  0
 24 23  1  0  0  0  0
 25 24  2  0  0  0  0
 26 30  1  0  0  0  0
 26 31  1  1  0  0  0
 27 26  1  0  0  0  0
 27 28  1  0  0  0  0
 28 29  1  6  0  0  0
 28 30  1  0  0  0  0
 28 35  1  0  0  0  0
 31 34  1  0  0  0  0
 31 32  1  0  0  0  0
 33 31  1  0  0  0  0
 35 36  1  0  0  0  0
 37 40  1  0  0  0  0
 38 39  2  0  0  0  0
 38 37  1  0  0  0  0
 42 37  1  0  0  0  0
 42 41  1  0  0  0  0
M  END
>  <minimizedAffinity>
-11.4673958

$$$$

 OpenBabel11232420453D

 42 47  0  0  1  0  0  0  0  0999 V2000
  -21.9100   17.0790   14.7690 C   0  0  0  0  0  0  0  0  0  0  0  0
  -21.6380   15.7520   14.4100 C   0  0  0  0  0  3  0  0  0  0  0  0
  -20.8840   15.4810   13.2670 C   0  0  0  0  0  3  0  0  0  0  0  0
  -20.4330   16.5330   12.4700 C   0  0  0  0  0  0  0  0  0  0  0  0
  -20.7170   17.8570   12.8230 C   0  0  0  0  0  0  0  0  0  0  0  0
  -21.4640   18.1350   13.9680 C   0  0  0  0  0  3  0  0  0  0  0  0
  -20.1930   18.8980   11.9720 C   0  0  0  0  0  0  0  0  0  0  0  0
  -20.1510   20.1970   12.1560 N   0  0  0  0  0  0  0  0  0  0  0  0
  -19.5360   20.7110   11.0300 C   0  0  0  0  0  0  0  0  0  0  0  0
  -19.1980   19.6980   10.1400 C   0  0  0  0  0  0  0  0  0  0  0  0
  -19.6220   18.5540   10.7810 N   0  0  0  0  0  0  0  0  0  0  0  0
  -19.5910   17.1800   10.3170 C   0  0  0  0  0  2  0  0  0  0  0  0
  -19.6640   16.2080   11.3820 O   0  0  0  0  0  0  0  0  0  0  0  0
  -18.5130   19.6950    8.8550 C   0  0  0  0  0  0  0  0  0  0  0  0
  -18.0570   18.4940    8.2970 C   0  0  0  0  0  3  0  0  0  0  0  0
  -17.3950   18.4980    7.0670 C   0  0  0  0  0  3  0  0  0  0  0  0
  -17.1860   19.6980    6.3910 C   0  0  0  0  0  3  0  0  0  0  0  0
  -17.6390   20.8960    6.9390 C   0  0  0  0  0  3  0  0  0  0  0  0
  -18.3030   20.8960    8.1680 C   0  0  0  0  0  3  0  0  0  0  0  0
  -19.3140   22.1430   10.8950 C   0  0  0  0  0  0  0  0  0  0  0  0
  -20.1820   22.9810   10.1950 C   0  0  0  0  0  3  0  0  0  0  0  0
  -19.9450   24.3620   10.1340 C   0  0  0  0  0  3  0  0  0  0  0  0
  -18.8410   24.9660   10.7710 C   0  0  0  0  0  0  0  0  0  0  0  0
  -17.9800   24.0970   11.4690 C   0  0  0  0  0  3  0  0  0  0  0  0
  -18.2110   22.7180   11.5330 C   0  0  0  0  0  3  0  0  0  0  0  0
  -18.6120   26.5240   10.7530 C   0  0  1  0  0  0  0  0  0  0  0  0
  -18.1590   27.2560   12.0540 C   0  0  0  0  0  2  0  0  0  0  0  0
  -17.4290   28.2760   11.1300 C   0  0  1  0  0  0  0  0  0  0  0  0
  -16.1260   28.8250   11.6780 C   0  0  0  0  0  1  0  0  0  0  0  0
  -17.3180   27.1100   10.1030 C   0  0  0  0  0  2  0  0  0  0  0  0
  -19.8360   27.1510   10.1890 N   0  0  0  0  0  4  0  0  0  0  0  0
  -20.0200   26.8460    9.2270 H   0  0  0  0  0  0  0  0  0  0  0  0
  -20.6690   26.9340   10.7480 H   0  0  0  0  0  0  0  0  0  0  0  0
  -19.7300   28.1850   10.1800 H   0  0  0  0  0  0  0  0  0  0  0  0
  -18.3010   29.3450   10.6710 O   0  0  0  0  0  0  0  0  0  0  0  0
  -17.7150   30.1100   10.4850 H   0  0  0  0  0  0  0  0  0  0  0  0
  -23.6420   16.4920   16.4300 N   0  0  0  0  0  0  0  0  0  0  0  0
  -22.7280   17.3990   15.9590 C   0  0  0  0  0  0  0  0  0  0  0  0
  -22.5630   18.4730   16.5300 O   0  0  0  0  0  0  0  0  0  0  0  0
  -24.1890   16.8500   17.2040 H   0  0  0  0  0  0  0  0  0  0  0  0
  -24.8700   14.4240   16.8950 C   0  0  0  0  0  1  0  0  0  0  0  0
  -23.8710   15.1270   15.9950 C   0  0  0  0  0  2  0  0  0  0  0  0
  1 38  1  0  0  0  0
  2  1  1  0  0  0  0
  3  2  2  0  0  0  0
  4  5  2  0  0  0  0
  4  3  1  0  0  0  0
  5  6  1  0  0  0  0
  6  1  2  0  0  0  0
  7  8  2  0  0  0  0
  7  5  1  0  0  0  0
  9  8  1  0  0  0  0
 10 11  1  0  0  0  0
 10  9  2  0  0  0  0
 11  7  1  0  0  0  0
 12 11  1  0  0  0  0
 12 13  1  0  0  0  0
 13  4  1  0  0  0  0
 14 10  1  0  0  0  0
 15 14  1  0  0  0  0
 16 15  2  0  0  0  0
 17 18  2  0  0  0  0
 17 16  1  0  0  0  0
 18 19  1  0  0  0  0
 19 14  2  0  0  0  0
 20  9  1  0  0  0  0
 20 25  1  0  0  0  0
 21 20  2  0  0  0  0
 22 21  1  0  0  0  0
 22 23  2  0  0  0  0
 23 24  1  0  0  0  0
 24 25  2  0  0  0  0
 26 31  1  6  0  0  0
 26 23  1  0  0  0  0
 26 27  1  0  0  0  0
 28 29  1  1  0  0  0
 28 27  1  0  0  0  0
 30 26  1  0  0  0  0
 30 28  1  0  0  0  0
 31 33  1  0  0  0  0
 32 31  1  0  0  0  0
 34 31  1  0  0  0  0
 35 28  1  0  0  0  0
 36 35  1  0  0  0  0
 37 40  1  0  0  0  0
 38 37  1  0  0  0  0
 38 39  2  0  0  0  0
 42 37  1  0  0  0  0
 42 41  1  0  0  0  0
M  END
>  <minimizedAffinity>
-11.0713463

$$$$

 OpenBabel11232420453D

 42 47  0  0  1  0  0  0  0  0999 V2000
  -20.4220   34.7640   19.2250 C   0  0  0  0  0  0  0  0  0  0  0  0
  -20.0060   36.1010   19.2190 C   0  0  0  0  0  3  0  0  0  0  0  0
  -19.2920   36.6040   18.1290 C   0  0  0  0  0  3  0  0  0  0  0  0
  -18.9690   35.7610   17.0660 C   0  0  0  0  0  0  0  0  0  0  0  0
  -19.3740   34.4210   17.0790 C   0  0  0  0  0  0  0  0  0  0  0  0
  -20.0940   33.9160   18.1620 C   0  0  0  0  0  3  0  0  0  0  0  0
  -19.0350   33.6130   15.9330 C   0  0  0  0  0  0  0  0  0  0  0  0
  -19.4330   32.4060   15.6030 N   0  0  0  0  0  0  0  0  0  0  0  0
  -18.8040   32.1230   14.4070 C   0  0  0  0  0  0  0  0  0  0  0  0
  -18.0030   33.1840   14.0000 C   0  0  0  0  0  0  0  0  0  0  0  0
  -18.1850   34.1210   14.9940 N   0  0  0  0  0  0  0  0  0  0  0  0
  -17.5600   35.4210   15.1520 C   0  0  0  0  0  2  0  0  0  0  0  0
  -18.3010   36.3190   16.0060 O   0  0  0  0  0  0  0  0  0  0  0  0
  -17.1780   33.4090   12.8210 C   0  0  0  0  0  0  0  0  0  0  0  0
  -15.7840   33.3110   12.9020 C   0  0  0  0  0  3  0  0  0  0  0  0
  -14.9970   33.5340   11.7700 C   0  0  0  0  0  3  0  0  0  0  0  0
  -15.5980   33.8560   10.5550 C   0  0  0  0  0  3  0  0  0  0  0  0
  -16.9860   33.9530   10.4670 C   0  0  0  0  0  3  0  0  0  0  0  0
  -17.7750   33.7290   11.5970 C   0  0  0  0  0  3  0  0  0  0  0  0
  -19.0240   30.8500   13.7370 C   0  0  0  0  0  0  0  0  0  0  0  0
  -20.2940   30.3840   13.3930 C   0  0  0  0  0  3  0  0  0  0  0  0
  -20.4460   29.1710   12.7060 C   0  0  0  0  0  3  0  0  0  0  0  0
  -19.3450   28.3750   12.3280 C   0  0  0  0  0  0  0  0  0  0  0  0
  -18.0750   28.8670   12.6890 C   0  0  0  0  0  3  0  0  0  0  0  0
  -17.9160   30.0780   13.3740 C   0  0  0  0  0  3  0  0  0  0  0  0
  -19.5150   27.0440   11.5040 C   0  0  1  0  0  0  0  0  0  0  0  0
  -18.2540   26.2580   11.0320 C   0  0  0  0  0  2  0  0  0  0  0  0
  -19.1160   24.9650   11.1460 C   0  0  1  0  0  0  0  0  0  0  0  0
  -18.3670   23.7270   11.6000 C   0  0  0  0  0  1  0  0  0  0  0  0
  -19.9300   25.7270   12.2330 C   0  0  0  0  0  2  0  0  0  0  0  0
  -20.4170   27.3390   10.3590 N   0  0  0  0  0  4  0  0  0  0  0  0
  -21.3460   27.6430   10.6660 H   0  0  0  0  0  0  0  0  0  0  0  0
  -20.0350   28.0720    9.7510 H   0  0  0  0  0  0  0  0  0  0  0  0
  -20.5370   26.4860    9.7770 H   0  0  0  0  0  0  0  0  0  0  0  0
  -19.8950   24.7000    9.9470 O   0  0  0  0  0  0  0  0  0  0  0  0
  -20.0440   23.7310    9.9310 H   0  0  0  0  0  0  0  0  0  0  0  0
  -22.5270   34.2350   20.4030 N   0  0  0  0  0  0  0  0  0  0  0  0
  -21.1570   34.1940   20.3740 C   0  0  0  0  0  0  0  0  0  0  0  0
  -20.5290   33.6660   21.2870 O   0  0  0  0  0  0  0  0  0  0  0  0
  -22.9150   33.8790   21.2690 H   0  0  0  0  0  0  0  0  0  0  0  0
  -24.0780   33.4830   18.6610 C   0  0  0  0  0  1  0  0  0  0  0  0
  -23.4430   34.6690   19.3640 C   0  0  0  0  0  2  0  0  0  0  0  0
  1 38  1  0  0  0  0
  2  1  1  0  0  0  0
  3  2  2  0  0  0  0
  4  5  2  0  0  0  0
  4  3  1  0  0  0  0
  5  6  1  0  0  0  0
  6  1  2  0  0  0  0
  7  5  1  0  0  0  0
  8  7  2  0  0  0  0
  9  8  1  0  0  0  0
 10  9  2  0  0  0  0
 10 11  1  0  0  0  0
 11 12  1  0  0  0  0
 11  7  1  0  0  0  0
 12 13  1  0  0  0  0
 13  4  1  0  0  0  0
 14 15  1  0  0  0  0
 14 10  1  0  0  0  0
 16 15  2  0  0  0  0
 17 16  1  0  0  0  0
 18 17  2  0  0  0  0
 18 19  1  0  0  0  0
 19 14  2  0  0  0  0
 20  9  1  0  0  0  0
 21 20  1  0  0  0  0
 22 21  2  0  0  0  0
 23 24  2  0  0  0  0
 23 22  1  0  0  0  0
 24 25  1  0  0  0  0
 25 20  2  0  0  0  0
 26 31  1  6  0  0  0
 26 30  1  0  0  0  0
 26 23  1  0  0  0  0
 27 28  1  0  0  0  0
 27 26  1  0  0  0  0
 28 29  1  1  0  0  0
 28 30  1  0  0  0  0
 31 32  1  0  0  0  0
 33 31  1  0  0  0  0
 34 31  1  0  0  0  0
 35 28  1  0  0  0  0
 36 35  1  0  0  0  0
 37 40  1  0  0  0  0
 38 37  1  0  0  0  0
 38 39  2  0  0  0  0
 41 42  1  0  0  0  0
 42 37  1  0  0  0  0
M  END
>  <minimizedAffinity>
-10.3056879

$$$$

 OpenBabel11232420453D

 42 47  0  0  1  0  0  0  0  0999 V2000
  -18.2540   34.3210   18.1180 C   0  0  0  0  0  0  0  0  0  0  0  0
  -17.6470   35.5750   17.9730 C   0  0  0  0  0  3  0  0  0  0  0  0
  -17.0160   35.9080   16.7720 C   0  0  0  0  0  3  0  0  0  0  0  0
  -16.9660   34.9760   15.7350 C   0  0  0  0  0  0  0  0  0  0  0  0
  -17.5620   33.7190   15.8870 C   0  0  0  0  0  0  0  0  0  0  0  0
  -18.2000   33.3840   17.0820 C   0  0  0  0  0  3  0  0  0  0  0  0
  -17.5010   32.8160   14.7640 C   0  0  0  0  0  0  0  0  0  0  0  0
  -18.1160   31.6720   14.5670 N   0  0  0  0  0  0  0  0  0  0  0  0
  -17.7000   31.2380   13.3230 C   0  0  0  0  0  0  0  0  0  0  0  0
  -16.8100   32.1410   12.7510 C   0  0  0  0  0  0  0  0  0  0  0  0
  -16.7170   33.1400   13.6950 N   0  0  0  0  0  0  0  0  0  0  0  0
  -15.8900   34.3320   13.6890 C   0  0  0  0  0  2  0  0  0  0  0  0
  -16.3680   35.3730   14.5660 O   0  0  0  0  0  0  0  0  0  0  0  0
  -16.1240   32.1790   11.4670 C   0  0  0  0  0  0  0  0  0  0  0  0
  -14.9450   31.4490   11.2710 C   0  0  0  0  0  3  0  0  0  0  0  0
  -14.2870   31.4940   10.0400 C   0  0  0  0  0  3  0  0  0  0  0  0
  -14.8040   32.2670    9.0010 C   0  0  0  0  0  3  0  0  0  0  0  0
  -15.9780   32.9930    9.1890 C   0  0  0  0  0  3  0  0  0  0  0  0
  -16.6390   32.9490   10.4180 C   0  0  0  0  0  3  0  0  0  0  0  0
  -18.1940   29.9860   12.7710 C   0  0  0  0  0  0  0  0  0  0  0  0
  -17.3550   28.9270   12.4240 C   0  0  0  0  0  3  0  0  0  0  0  0
  -17.8880   27.7240   11.9390 C   0  0  0  0  0  3  0  0  0  0  0  0
  -19.2760   27.5220   11.7850 C   0  0  0  0  0  0  0  0  0  0  0  0
  -20.1000   28.6080   12.1400 C   0  0  0  0  0  3  0  0  0  0  0  0
  -19.5740   29.8110   12.6250 C   0  0  0  0  0  3  0  0  0  0  0  0
  -19.8740   26.1490   11.2980 C   0  0  1  0  0  0  0  0  0  0  0  0
  -18.9870   25.1640   10.4770 C   0  0  0  0  0  2  0  0  0  0  0  0
  -19.8210   24.0110   11.1110 C   0  0  1  0  0  0  0  0  0  0  0  0
  -19.0480   22.7380   11.3980 C   0  0  0  0  0  1  0  0  0  0  0  0
  -20.0480   24.9750   12.3130 C   0  0  0  0  0  2  0  0  0  0  0  0
  -21.1440   26.4420   10.5820 N   0  0  0  0  0  4  0  0  0  0  0  0
  -21.8360   26.8930   11.1900 H   0  0  0  0  0  0  0  0  0  0  0  0
  -20.9940   27.0570    9.7740 H   0  0  0  0  0  0  0  0  0  0  0  0
  -21.5600   25.5590   10.2270 H   0  0  0  0  0  0  0  0  0  0  0  0
  -21.0450   23.7310   10.3780 O   0  0  0  0  0  0  0  0  0  0  0  0
  -21.2610   22.7930   10.5620 H   0  0  0  0  0  0  0  0  0  0  0  0
  -20.2660   34.0470   19.5240 N   0  0  0  0  0  0  0  0  0  0  0  0
  -18.9070   33.9280   19.3850 C   0  0  0  0  0  0  0  0  0  0  0  0
  -18.2240   33.4740   20.2980 O   0  0  0  0  0  0  0  0  0  0  0  0
  -20.5890   33.8140   20.4550 H   0  0  0  0  0  0  0  0  0  0  0  0
  -21.5280   35.9020   18.5370 C   0  0  0  0  0  1  0  0  0  0  0  0
  -21.2510   34.4090   18.5220 C   0  0  0  0  0  2  0  0  0  0  0  0
  1 38  1  0  0  0  0
  2  1  1  0  0  0  0
  3  2  2  0  0  0  0
  4  5  2  0  0  0  0
  4  3  1  0  0  0  0
  5  6  1  0  0  0  0
  6  1  2  0  0  0  0
  7  5  1  0  0  0  0
  8  7  2  0  0  0  0
  9  8  1  0  0  0  0
 10  9  2  0  0  0  0
 10 11  1  0  0  0  0
 11  7  1  0  0  0  0
 12 11  1  0  0  0  0
 12 13  1  0  0  0  0
 13  4  1  0  0  0  0
 14 10  1  0  0  0  0
 15 14  1  0  0  0  0
 16 15  2  0  0  0  0
 17 18  2  0  0  0  0
 17 16  1  0  0  0  0
 18 19  1  0  0  0  0
 19 14  2  0  0  0  0
 20  9  1  0  0  0  0
 21 20  2  0  0  0  0
 22 21  1  0  0  0  0
 23 22  2  0  0  0  0
 23 24  1  0  0  0  0
 24 25  2  0  0  0  0
 25 20  1  0  0  0  0
 26 31  1  6  0  0  0
 26 23  1  0  0  0  0
 26 30  1  0  0  0  0
 27 28  1  0  0  0  0
 27 26  1  0  0  0  0
 28 29  1  1  0  0  0
 28 30  1  0  0  0  0
 31 32  1  0  0  0  0
 33 31  1  0  0  0  0
 34 31  1  0  0  0  0
 35 36  1  0  0  0  0
 35 28  1  0  0  0  0
 37 40  1  0  0  0  0
 38 37  1  0  0  0  0
 38 39  2  0  0  0  0
 42 41  1  0  0  0  0
 42 37  1  0  0  0  0
M  END
>  <minimizedAffinity>
-10.1915531

$$$$

 OpenBabel11232420453D

 42 47  0  0  1  0  0  0  0  0999 V2000
  -21.4650   20.2820   12.4450 C   0  0  0  0  0  0  0  0  0  0  0  0
  -20.7560   19.2230   11.8650 C   0  0  0  0  0  3  0  0  0  0  0  0
  -19.5770   19.4780   11.1600 C   0  0  0  0  0  3  0  0  0  0  0  0
  -19.1320   20.7910   11.0090 C   0  0  0  0  0  0  0  0  0  0  0  0
  -19.8490   21.8490   11.5780 C   0  0  0  0  0  0  0  0  0  0  0  0
  -21.0230   21.6000   12.2900 C   0  0  0  0  0  3  0  0  0  0  0  0
  -19.3150   23.1790   11.4110 C   0  0  0  0  0  0  0  0  0  0  0  0
  -19.6710   24.3090   11.9760 N   0  0  0  0  0  0  0  0  0  0  0  0
  -18.8200   25.2660   11.4600 C   0  0  0  0  0  0  0  0  0  0  0  0
  -17.9240   24.7030   10.5580 C   0  0  0  0  0  0  0  0  0  0  0  0
  -18.2630   23.3680   10.5610 N   0  0  0  0  0  0  0  0  0  0  0  0
  -17.7150   22.2820    9.7710 C   0  0  0  0  0  2  0  0  0  0  0  0
  -17.9480   20.9760   10.3410 O   0  0  0  0  0  0  0  0  0  0  0  0
  -16.8200   25.2520    9.7830 C   0  0  0  0  0  0  0  0  0  0  0  0
  -15.4950   25.0120   10.1680 C   0  0  0  0  0  3  0  0  0  0  0  0
  -14.4400   25.5470    9.4250 C   0  0  0  0  0  3  0  0  0  0  0  0
  -14.7030   26.3210    8.2970 C   0  0  0  0  0  3  0  0  0  0  0  0
  -16.0190   26.5600    7.9060 C   0  0  0  0  0  3  0  0  0  0  0  0
  -17.0760   26.0270    8.6460 C   0  0  0  0  0  3  0  0  0  0  0  0
  -18.9260   26.6560   11.8770 C   0  0  0  0  0  0  0  0  0  0  0  0
  -17.8140   27.4650   12.1090 C   0  0  0  0  0  3  0  0  0  0  0  0
  -17.9740   28.8120   12.4650 C   0  0  0  0  0  3  0  0  0  0  0  0
  -19.2430   29.4110   12.5990 C   0  0  0  0  0  0  0  0  0  0  0  0
  -20.3500   28.5720   12.3620 C   0  0  0  0  0  3  0  0  0  0  0  0
  -20.1970   27.2270   12.0060 C   0  0  0  0  0  3  0  0  0  0  0  0
  -19.4190   30.9390   12.9390 C   0  0  1  0  0  0  0  0  0  0  0  0
  -19.1840   31.4400   14.3980 C   0  0  0  0  0  2  0  0  0  0  0  0
  -18.7270   32.7920   13.7740 C   0  0  1  0  0  0  0  0  0  0  0  0
  -17.6140   33.5040   14.5190 C   0  0  0  0  0  1  0  0  0  0  0  0
  -18.3100   31.9580   12.5270 C   0  0  0  0  0  2  0  0  0  0  0  0
  -20.7550   31.3580   12.4420 N   0  0  0  0  0  4  0  0  0  0  0  0
  -20.8440   31.2470   11.4270 H   0  0  0  0  0  0  0  0  0  0  0  0
  -21.5120   30.8210   12.8800 H   0  0  0  0  0  0  0  0  0  0  0  0
  -20.9170   32.3600   12.6680 H   0  0  0  0  0  0  0  0  0  0  0  0
  -19.8370   33.6910   13.5000 O   0  0  0  0  0  0  0  0  0  0  0  0
  -19.4640   34.5970   13.5280 H   0  0  0  0  0  0  0  0  0  0  0  0
  -22.7280   19.3220   14.3370 N   0  0  0  0  0  0  0  0  0  0  0  0
  -22.7300   20.0500   13.1760 C   0  0  0  0  0  0  0  0  0  0  0  0
  -23.7710   20.5340   12.7440 O   0  0  0  0  0  0  0  0  0  0  0  0
  -23.6590   19.1710   14.7090 H   0  0  0  0  0  0  0  0  0  0  0  0
  -22.0020   18.3920   16.4850 C   0  0  0  0  0  1  0  0  0  0  0  0
  -21.5950   18.8070   15.0830 C   0  0  0  0  0  2  0  0  0  0  0  0
  1 38  1  0  0  0  0
  2  1  2  0  0  0  0
  3  2  1  0  0  0  0
  4  3  2  0  0  0  0
  4  5  1  0  0  0  0
  5  6  2  0  0  0  0
  6  1  1  0  0  0  0
  7  5  1  0  0  0  0
  7  8  2  0  0  0  0
  9 20  1  0  0  0  0
  9  8  1  0  0  0  0
 10 11  1  0  0  0  0
 10  9  2  0  0  0  0
 11  7  1  0  0  0  0
 12 13  1  0  0  0  0
 12 11  1  0  0  0  0
 13  4  1  0  0  0  0
 14 15  1  0  0  0  0
 14 10  1  0  0  0  0
 16 15  2  0  0  0  0
 17 16  1  0  0  0  0
 18 17  2  0  0  0  0
 18 19  1  0  0  0  0
 19 14  2  0  0  0  0
 20 25  2  0  0  0  0
 20 21  1  0  0  0  0
 21 22  2  0  0  0  0
 22 23  1  0  0  0  0
 23 26  1  0  0  0  0
 24 23  2  0  0  0  0
 25 24  1  0  0  0  0
 26 31  1  6  0  0  0
 26 27  1  0  0  0  0
 28 27  1  0  0  0  0
 28 29  1  1  0  0  0
 30 26  1  0  0  0  0
 30 28  1  0  0  0  0
 31 34  1  0  0  0  0
 31 33  1  0  0  0  0
 32 31  1  0  0  0  0
 35 36  1  0  0  0  0
 35 28  1  0  0  0  0
 37 40  1  0  0  0  0
 37 42  1  0  0  0  0
 38 37  1  0  0  0  0
 39 38  2  0  0  0  0
 42 41  1  0  0  0  0
M  END
>  <minimizedAffinity>
-9.78926373

$$$$
