
 OpenBabel11232420453D

 42 47  0  0  1  0  0  0  0  0999 V2000
  -21.9100   17.0790   14.7690 C   0  0  0  0  0  0  0  0  0  0  0  0
  -21.6380   15.7520   14.4100 C   0  0  0  0  0  3  0  0  0  0  0  0
  -20.8840   15.4810   13.2670 C   0  0  0  0  0  3  0  0  0  0  0  0
  -20.4330   16.5330   12.4700 C   0  0  0  0  0  0  0  0  0  0  0  0
  -20.7170   17.8570   12.8230 C   0  0  0  0  0  0  0  0  0  0  0  0
  -21.4640   18.1350   13.9680 C   0  0  0  0  0  3  0  0  0  0  0  0
  -20.1930   18.8980   11.9720 C   0  0  0  0  0  0  0  0  0  0  0  0
  -20.1510   20.1970   12.1560 N   0  0  0  0  0  0  0  0  0  0  0  0
  -19.5360   20.7110   11.0300 C   0  0  0  0  0  0  0  0  0  0  0  0
  -19.1980   19.6980   10.1400 C   0  0  0  0  0  0  0  0  0  0  0  0
  -19.6220   18.5540   10.7810 N   0  0  0  0  0  0  0  0  0  0  0  0
  -19.5910   17.1800   10.3170 C   0  0  0  0  0  2  0  0  0  0  0  0
  -19.6640   16.2080   11.3820 O   0  0  0  0  0  0  0  0  0  0  0  0
  -18.5130   19.6950    8.8550 C   0  0  0  0  0  0  0  0  0  0  0  0
  -18.0570   18.4940    8.2970 C   0  0  0  0  0  3  0  0  0  0  0  0
  -17.3950   18.4980    7.0670 C   0  0  0  0  0  3  0  0  0  0  0  0
  -17.1860   19.6980    6.3910 C   0  0  0  0  0  3  0  0  0  0  0  0
  -17.6390   20.8960    6.9390 C   0  0  0  0  0  3  0  0  0  0  0  0
  -18.3030   20.8960    8.1680 C   0  0  0  0  0  3  0  0  0  0  0  0
  -19.3140   22.1430   10.8950 C   0  0  0  0  0  0  0  0  0  0  0  0
  -20.1820   22.9810   10.1950 C   0  0  0  0  0  3  0  0  0  0  0  0
  -19.9450   24.3620   10.1340 C   0  0  0  0  0  3  0  0  0  0  0  0
  -18.8410   24.9660   10.7710 C   0  0  0  0  0  0  0  0  0  0  0  0
  -17.9800   24.0970   11.4690 C   0  0  0  0  0  3  0  0  0  0  0  0
  -18.2110   22.7180   11.5330 C   0  0  0  0  0  3  0  0  0  0  0  0
  -18.6120   26.5240   10.7530 C   0  0  1  0  0  0  0  0  0  0  0  0
  -18.1590   27.2560   12.0540 C   0  0  0  0  0  2  0  0  0  0  0  0
  -17.4290   28.2760   11.1300 C   0  0  1  0  0  0  0  0  0  0  0  0
  -16.1260   28.8250   11.6780 C   0  0  0  0  0  1  0  0  0  0  0  0
  -17.3180   27.1100   10.1030 C   0  0  0  0  0  2  0  0  0  0  0  0
  -19.8360   27.1510   10.1890 N   0  0  0  0  0  4  0  0  0  0  0  0
  -20.0200   26.8460    9.2270 H   0  0  0  0  0  0  0  0  0  0  0  0
  -20.6690   26.9340   10.7480 H   0  0  0  0  0  0  0  0  0  0  0  0
  -19.7300   28.1850   10.1800 H   0  0  0  0  0  0  0  0  0  0  0  0
  -18.3010   29.3450   10.6710 O   0  0  0  0  0  0  0  0  0  0  0  0
  -17.7150   30.1100   10.4850 H   0  0  0  0  0  0  0  0  0  0  0  0
  -23.6420   16.4920   16.4300 N   0  0  0  0  0  0  0  0  0  0  0  0
  -22.7280   17.3990   15.9590 C   0  0  0  0  0  0  0  0  0  0  0  0
  -22.5630   18.4730   16.5300 O   0  0  0  0  0  0  0  0  0  0  0  0
  -24.1890   16.8500   17.2040 H   0  0  0  0  0  0  0  0  0  0  0  0
  -24.8700   14.4240   16.8950 C   0  0  0  0  0  1  0  0  0  0  0  0
  -23.8710   15.1270   15.9950 C   0  0  0  0  0  2  0  0  0  0  0  0
  1 38  1  0  0  0  0
  2  1  1  0  0  0  0
  3  2  2  0  0  0  0
  4  5  2  0  0  0  0
  4  3  1  0  0  0  0
  5  6  1  0  0  0  0
  6  1  2  0  0  0  0
  7  8  2  0  0  0  0
  7  5  1  0  0  0  0
  9  8  1  0  0  0  0
 10 11  1  0  0  0  0
 10  9  2  0  0  0  0
 11  7  1  0  0  0  0
 12 11  1  0  0  0  0
 12 13  1  0  0  0  0
 13  4  1  0  0  0  0
 14 10  1  0  0  0  0
 15 14  1  0  0  0  0
 16 15  2  0  0  0  0
 17 18  2  0  0  0  0
 17 16  1  0  0  0  0
 18 19  1  0  0  0  0
 19 14  2  0  0  0  0
 20  9  1  0  0  0  0
 20 25  1  0  0  0  0
 21 20  2  0  0  0  0
 22 21  1  0  0  0  0
 22 23  2  0  0  0  0
 23 24  1  0  0  0  0
 24 25  2  0  0  0  0
 26 31  1  6  0  0  0
 26 23  1  0  0  0  0
 26 27  1  0  0  0  0
 28 29  1  1  0  0  0
 28 27  1  0  0  0  0
 30 26  1  0  0  0  0
 30 28  1  0  0  0  0
 31 33  1  0  0  0  0
 32 31  1  0  0  0  0
 34 31  1  0  0  0  0
 35 28  1  0  0  0  0
 36 35  1  0  0  0  0
 37 40  1  0  0  0  0
 38 37  1  0  0  0  0
 38 39  2  0  0  0  0
 42 37  1  0  0  0  0
 42 41  1  0  0  0  0
M  END
>  <minimizedAffinity>
-11.0713463

$$$$
