
 OpenBabel11232420453D

 42 47  0  0  1  0  0  0  0  0999 V2000
  -21.4650   20.2820   12.4450 C   0  0  0  0  0  0  0  0  0  0  0  0
  -20.7560   19.2230   11.8650 C   0  0  0  0  0  3  0  0  0  0  0  0
  -19.5770   19.4780   11.1600 C   0  0  0  0  0  3  0  0  0  0  0  0
  -19.1320   20.7910   11.0090 C   0  0  0  0  0  0  0  0  0  0  0  0
  -19.8490   21.8490   11.5780 C   0  0  0  0  0  0  0  0  0  0  0  0
  -21.0230   21.6000   12.2900 C   0  0  0  0  0  3  0  0  0  0  0  0
  -19.3150   23.1790   11.4110 C   0  0  0  0  0  0  0  0  0  0  0  0
  -19.6710   24.3090   11.9760 N   0  0  0  0  0  0  0  0  0  0  0  0
  -18.8200   25.2660   11.4600 C   0  0  0  0  0  0  0  0  0  0  0  0
  -17.9240   24.7030   10.5580 C   0  0  0  0  0  0  0  0  0  0  0  0
  -18.2630   23.3680   10.5610 N   0  0  0  0  0  0  0  0  0  0  0  0
  -17.7150   22.2820    9.7710 C   0  0  0  0  0  2  0  0  0  0  0  0
  -17.9480   20.9760   10.3410 O   0  0  0  0  0  0  0  0  0  0  0  0
  -16.8200   25.2520    9.7830 C   0  0  0  0  0  0  0  0  0  0  0  0
  -15.4950   25.0120   10.1680 C   0  0  0  0  0  3  0  0  0  0  0  0
  -14.4400   25.5470    9.4250 C   0  0  0  0  0  3  0  0  0  0  0  0
  -14.7030   26.3210    8.2970 C   0  0  0  0  0  3  0  0  0  0  0  0
  -16.0190   26.5600    7.9060 C   0  0  0  0  0  3  0  0  0  0  0  0
  -17.0760   26.0270    8.6460 C   0  0  0  0  0  3  0  0  0  0  0  0
  -18.9260   26.6560   11.8770 C   0  0  0  0  0  0  0  0  0  0  0  0
  -17.8140   27.4650   12.1090 C   0  0  0  0  0  3  0  0  0  0  0  0
  -17.9740   28.8120   12.4650 C   0  0  0  0  0  3  0  0  0  0  0  0
  -19.2430   29.4110   12.5990 C   0  0  0  0  0  0  0  0  0  0  0  0
  -20.3500   28.5720   12.3620 C   0  0  0  0  0  3  0  0  0  0  0  0
  -20.1970   27.2270   12.0060 C   0  0  0  0  0  3  0  0  0  0  0  0
  -19.4190   30.9390   12.9390 C   0  0  1  0  0  0  0  0  0  0  0  0
  -19.1840   31.4400   14.3980 C   0  0  0  0  0  2  0  0  0  0  0  0
  -18.7270   32.7920   13.7740 C   0  0  1  0  0  0  0  0  0  0  0  0
  -17.6140   33.5040   14.5190 C   0  0  0  0  0  1  0  0  0  0  0  0
  -18.3100   31.9580   12.5270 C   0  0  0  0  0  2  0  0  0  0  0  0
  -20.7550   31.3580   12.4420 N   0  0  0  0  0  4  0  0  0  0  0  0
  -20.8440   31.2470   11.4270 H   0  0  0  0  0  0  0  0  0  0  0  0
  -21.5120   30.8210   12.8800 H   0  0  0  0  0  0  0  0  0  0  0  0
  -20.9170   32.3600   12.6680 H   0  0  0  0  0  0  0  0  0  0  0  0
  -19.8370   33.6910   13.5000 O   0  0  0  0  0  0  0  0  0  0  0  0
  -19.4640   34.5970   13.5280 H   0  0  0  0  0  0  0  0  0  0  0  0
  -22.7280   19.3220   14.3370 N   0  0  0  0  0  0  0  0  0  0  0  0
  -22.7300   20.0500   13.1760 C   0  0  0  0  0  0  0  0  0  0  0  0
  -23.7710   20.5340   12.7440 O   0  0  0  0  0  0  0  0  0  0  0  0
  -23.6590   19.1710   14.7090 H   0  0  0  0  0  0  0  0  0  0  0  0
  -22.0020   18.3920   16.4850 C   0  0  0  0  0  1  0  0  0  0  0  0
  -21.5950   18.8070   15.0830 C   0  0  0  0  0  2  0  0  0  0  0  0
  1 38  1  0  0  0  0
  2  1  2  0  0  0  0
  3  2  1  0  0  0  0
  4  3  2  0  0  0  0
  4  5  1  0  0  0  0
  5  6  2  0  0  0  0
  6  1  1  0  0  0  0
  7  5  1  0  0  0  0
  7  8  2  0  0  0  0
  9 20  1  0  0  0  0
  9  8  1  0  0  0  0
 10 11  1  0  0  0  0
 10  9  2  0  0  0  0
 11  7  1  0  0  0  0
 12 13  1  0  0  0  0
 12 11  1  0  0  0  0
 13  4  1  0  0  0  0
 14 15  1  0  0  0  0
 14 10  1  0  0  0  0
 16 15  2  0  0  0  0
 17 16  1  0  0  0  0
 18 17  2  0  0  0  0
 18 19  1  0  0  0  0
 19 14  2  0  0  0  0
 20 25  2  0  0  0  0
 20 21  1  0  0  0  0
 21 22  2  0  0  0  0
 22 23  1  0  0  0  0
 23 26  1  0  0  0  0
 24 23  2  0  0  0  0
 25 24  1  0  0  0  0
 26 31  1  6  0  0  0
 26 27  1  0  0  0  0
 28 27  1  0  0  0  0
 28 29  1  1  0  0  0
 30 26  1  0  0  0  0
 30 28  1  0  0  0  0
 31 34  1  0  0  0  0
 31 33  1  0  0  0  0
 32 31  1  0  0  0  0
 35 36  1  0  0  0  0
 35 28  1  0  0  0  0
 37 40  1  0  0  0  0
 37 42  1  0  0  0  0
 38 37  1  0  0  0  0
 39 38  2  0  0  0  0
 42 41  1  0  0  0  0
M  END
>  <minimizedAffinity>
-9.78926373

$$$$
