
 OpenBabel11232418523D

 42 48  0  0  1  0  0  0  0  0999 V2000
    7.6930   -7.2640   11.0600 C   0  0  0  0  0  0  0  0  0  0  0  0
    7.6810   -7.8970    9.8240 N   0  0  0  0  0  0  0  0  0  0  0  0
    7.2700   -6.9990    8.9620 C   0  0  0  0  0  0  0  0  0  0  0  0
    6.9400   -5.8350    9.5950 N   0  0  0  0  0  0  0  0  0  0  0  0
    7.2880   -5.9380   10.9240 C   0  0  0  0  0  0  0  0  0  0  0  0
    6.5130   -4.6620    8.8550 C   0  0  0  0  0  2  0  0  0  0  0  0
    5.9240   -4.9800    7.5750 O   0  0  0  0  0  0  0  0  0  0  0  0
    6.5210   -6.0020    6.8800 C   0  0  0  0  0  0  0  0  0  0  0  0
    6.4060   -5.9900    5.4930 C   0  0  0  0  0  3  0  0  0  0  0  0
    7.0180   -6.9980    4.7410 C   0  0  0  0  0  3  0  0  0  0  0  0
    7.7240   -8.0360    5.3700 C   0  0  0  0  0  0  0  0  0  0  0  0
    7.7790   -8.0680    6.7700 C   0  0  0  0  0  3  0  0  0  0  0  0
    7.1850   -7.0510    7.5210 C   0  0  0  0  0  0  0  0  0  0  0  0
    8.4180   -9.0560    4.5890 C   0  0  0  0  0  0  0  0  0  0  0  0
    9.0780   -8.9960    3.3770 C   0  0  0  0  0  3  0  0  0  0  0  0
    9.4970  -10.3120    3.1140 C   0  0  0  0  0  3  0  0  0  0  0  0
    9.1270  -11.1610    4.0730 N   0  0  0  0  0  0  0  0  0  0  0  0
    8.4780  -10.3800    4.9530 N   0  0  0  0  0  0  0  0  0  0  0  0
    8.0760  -10.8180    5.7740 H   0  0  0  0  0  0  0  0  0  0  0  0
    8.9290   -9.5260   14.5710 C   0  0  0  0  0  0  0  0  0  0  0  0
    7.6110   -9.0630   14.3680 C   0  0  0  0  0  3  0  0  0  0  0  0
    7.2370   -8.3260   13.2340 C   0  0  0  0  0  3  0  0  0  0  0  0
    8.1660   -7.9800   12.2450 C   0  0  0  0  0  0  0  0  0  0  0  0
    9.4880   -8.3600   12.4600 C   0  0  0  0  0  3  0  0  0  0  0  0
    9.8540   -9.1150   13.5890 C   0  0  0  0  0  3  0  0  0  0  0  0
   11.6790  -10.2510   18.3770 C   0  0  0  0  0  1  0  0  0  0  0  0
   10.9410   -9.7830   17.1320 C   0  0  1  0  0  0  0  0  0  0  0  0
   10.8330  -10.8650   16.0270 C   0  0  0  0  0  2  0  0  0  0  0  0
    9.3450  -10.4510   15.8160 C   0  0  1  0  0  0  0  0  0  0  0  0
    9.3930   -9.8020   17.2280 C   0  0  0  0  0  2  0  0  0  0  0  0
    8.4910  -11.6680   15.7970 N   0  0  0  0  0  4  0  0  0  0  0  0
    7.5150  -11.4510   16.0270 H   0  0  0  0  0  0  0  0  0  0  0  0
    8.4920  -12.0920   14.8570 H   0  0  0  0  0  0  0  0  0  0  0  0
    8.8020  -12.3910   16.4570 H   0  0  0  0  0  0  0  0  0  0  0  0
   11.5040   -8.5400   16.6730 O   0  0  0  0  0  0  0  0  0  0  0  0
   11.5330   -7.9390   17.4420 H   0  0  0  0  0  0  0  0  0  0  0  0
    7.2780   -4.7890   11.8160 C   0  0  0  0  0  0  0  0  0  0  0  0
    6.0950   -4.3680   12.4320 C   0  0  0  0  0  3  0  0  0  0  0  0
    6.1030   -3.2450   13.2620 C   0  0  0  0  0  3  0  0  0  0  0  0
    7.2890   -2.5420   13.4800 C   0  0  0  0  0  3  0  0  0  0  0  0
    8.4690   -2.9580   12.8680 C   0  0  0  0  0  3  0  0  0  0  0  0
    8.4640   -4.0760   12.0360 C   0  0  0  0  0  3  0  0  0  0  0  0
  1 23  1  0  0  0  0
  2  1  1  0  0  0  0
  3  4  1  0  0  0  0
  3  2  2  0  0  0  0
  4  5  1  0  0  0  0
  5  1  2  0  0  0  0
  5 37  1  0  0  0  0
  6  4  1  0  0  0  0
  7  6  1  0  0  0  0
  8 13  1  0  0  0  0
  8  7  1  0  0  0  0
  9  8  2  0  0  0  0
 10 11  2  0  0  0  0
 10  9  1  0  0  0  0
 11 12  1  0  0  0  0
 12 13  2  0  0  0  0
 13  3  1  0  0  0  0
 14 18  1  0  0  0  0
 14 11  1  0  0  0  0
 15 14  2  0  0  0  0
 16 15  1  0  0  0  0
 16 17  2  0  0  0  0
 17 18  1  0  0  0  0
 18 19  1  0  0  0  0
 20 29  1  0  0  0  0
 21 20  1  0  0  0  0
 22 21  2  0  0  0  0
 23 24  2  0  0  0  0
 23 22  1  0  0  0  0
 24 25  1  0  0  0  0
 25 20  2  0  0  0  0
 27 30  1  0  0  0  0
 27 26  1  1  0  0  0
 28 27  1  0  0  0  0
 29 31  1  1  0  0  0
 29 28  1  0  0  0  0
 29 30  1  0  0  0  0
 31 32  1  0  0  0  0
 31 34  1  0  0  0  0
 33 31  1  0  0  0  0
 35 27  1  0  0  0  0
 35 36  1  0  0  0  0
 37 42  2  0  0  0  0
 37 38  1  0  0  0  0
 38 39  2  0  0  0  0
 39 40  1  0  0  0  0
 41 40  2  0  0  0  0
 42 41  1  0  0  0  0
M  END
>  <minimizedAffinity>
-12.5499096

$$$$
