
 OpenBabel11232418523D

 42 48  0  0  1  0  0  0  0  0999 V2000
    7.3690   -5.5430   10.7280 C   0  0  0  0  0  0  0  0  0  0  0  0
    7.2970   -6.3210    9.5810 N   0  0  0  0  0  0  0  0  0  0  0  0
    6.7800   -5.5510    8.6550 C   0  0  0  0  0  0  0  0  0  0  0  0
    6.4410   -4.3340    9.1690 N   0  0  0  0  0  0  0  0  0  0  0  0
    6.8910   -4.2590   10.4690 C   0  0  0  0  0  0  0  0  0  0  0  0
    5.9030   -3.2770    8.3320 C   0  0  0  0  0  2  0  0  0  0  0  0
    5.2380   -3.7720    7.1490 O   0  0  0  0  0  0  0  0  0  0  0  0
    5.8310   -4.8460    6.5350 C   0  0  0  0  0  0  0  0  0  0  0  0
    5.6140   -5.0080    5.1700 C   0  0  0  0  0  3  0  0  0  0  0  0
    6.2180   -6.0750    4.4960 C   0  0  0  0  0  3  0  0  0  0  0  0
    7.0190   -6.9990    5.1850 C   0  0  0  0  0  0  0  0  0  0  0  0
    7.1780   -6.8590    6.5710 C   0  0  0  0  0  3  0  0  0  0  0  0
    6.5910   -5.7820    7.2410 C   0  0  0  0  0  0  0  0  0  0  0  0
    7.7020   -8.0780    4.4790 C   0  0  0  0  0  0  0  0  0  0  0  0
    7.8000   -9.4320    4.7410 C   0  0  0  0  0  3  0  0  0  0  0  0
    8.6340   -9.9470    3.7330 C   0  0  0  0  0  3  0  0  0  0  0  0
    9.0530   -9.0020    2.8910 N   0  0  0  0  0  0  0  0  0  0  0  0
    8.4770   -7.8840    3.3610 N   0  0  0  0  0  0  0  0  0  0  0  0
    8.6730   -7.0100    2.8860 H   0  0  0  0  0  0  0  0  0  0  0  0
    9.2940   -7.0250   14.3440 C   0  0  0  0  0  0  0  0  0  0  0  0
    9.9870   -6.7750   13.1400 C   0  0  0  0  0  3  0  0  0  0  0  0
    9.3450   -6.3090   11.9830 C   0  0  0  0  0  3  0  0  0  0  0  0
    7.9630   -6.0890   11.9490 C   0  0  0  0  0  0  0  0  0  0  0  0
    7.2460   -6.4000   13.1020 C   0  0  0  0  0  3  0  0  0  0  0  0
    7.8970   -6.8490   14.2640 C   0  0  0  0  0  3  0  0  0  0  0  0
   10.0680  -10.3120   17.6850 C   0  0  0  0  0  1  0  0  0  0  0  0
    9.6520   -9.4500   16.5040 C   0  0  1  0  0  0  0  0  0  0  0  0
    9.2100   -8.0180   16.9020 C   0  0  0  0  0  2  0  0  0  0  0  0
   10.0340   -7.4660   15.6990 C   0  0  1  0  0  0  0  0  0  0  0  0
   10.8170   -8.8090   15.7030 C   0  0  0  0  0  2  0  0  0  0  0  0
   10.8800   -6.3330   16.1580 N   0  0  0  0  0  4  0  0  0  0  0  0
   11.6800   -6.1800   15.5340 H   0  0  0  0  0  0  0  0  0  0  0  0
   10.3340   -5.4580   16.1670 H   0  0  0  0  0  0  0  0  0  0  0  0
   11.2570   -6.4660   17.1040 H   0  0  0  0  0  0  0  0  0  0  0  0
    8.6840  -10.1550   15.7050 O   0  0  0  0  0  0  0  0  0  0  0  0
    9.0570  -11.0370   15.5190 H   0  0  0  0  0  0  0  0  0  0  0  0
    6.8890   -3.0120   11.2180 C   0  0  0  0  0  0  0  0  0  0  0  0
    7.1960   -1.7990   10.5940 C   0  0  0  0  0  3  0  0  0  0  0  0
    7.2160   -0.6180   11.3390 C   0  0  0  0  0  3  0  0  0  0  0  0
    6.9310   -0.6450   12.7050 C   0  0  0  0  0  3  0  0  0  0  0  0
    6.6250   -1.8520   13.3310 C   0  0  0  0  0  3  0  0  0  0  0  0
    6.6080   -3.0330   12.5910 C   0  0  0  0  0  3  0  0  0  0  0  0
  1 23  1  0  0  0  0
  2  1  1  0  0  0  0
  3  4  1  0  0  0  0
  3  2  2  0  0  0  0
  4  5  1  0  0  0  0
  5  1  2  0  0  0  0
  5 37  1  0  0  0  0
  6  4  1  0  0  0  0
  7  6  1  0  0  0  0
  8  7  1  0  0  0  0
  8 13  1  0  0  0  0
  9  8  2  0  0  0  0
 10  9  1  0  0  0  0
 10 11  2  0  0  0  0
 11 12  1  0  0  0  0
 12 13  2  0  0  0  0
 13  3  1  0  0  0  0
 14 15  2  0  0  0  0
 14 11  1  0  0  0  0
 16 15  1  0  0  0  0
 17 18  1  0  0  0  0
 17 16  2  0  0  0  0
 18 14  1  0  0  0  0
 19 18  1  0  0  0  0
 20 29  1  0  0  0  0
 21 20  2  0  0  0  0
 22 21  1  0  0  0  0
 23 22  2  0  0  0  0
 23 24  1  0  0  0  0
 24 25  2  0  0  0  0
 25 20  1  0  0  0  0
 27 28  1  0  0  0  0
 27 26  1  1  0  0  0
 29 30  1  0  0  0  0
 29 31  1  1  0  0  0
 29 28  1  0  0  0  0
 30 27  1  0  0  0  0
 31 33  1  0  0  0  0
 31 34  1  0  0  0  0
 32 31  1  0  0  0  0
 35 27  1  0  0  0  0
 36 35  1  0  0  0  0
 37 42  1  0  0  0  0
 38 37  2  0  0  0  0
 38 39  1  0  0  0  0
 39 40  2  0  0  0  0
 40 41  1  0  0  0  0
 42 41  2  0  0  0  0
M  END
>  <minimizedAffinity>
-12.1124773

$$$$
