
 OpenBabel11232419313D

 42 48  0  0  1  0  0  0  0  0999 V2000
   34.5110   42.7590   19.2320 C   0  0  0  0  0  0  0  0  0  0  0  0
   33.4550   41.9170   19.5130 N   0  0  0  0  0  0  0  0  0  0  0  0
   32.7100   41.9230   18.4300 C   0  0  0  0  0  0  0  0  0  0  0  0
   33.2370   42.7450   17.4760 N   0  0  0  0  0  0  0  0  0  0  0  0
   34.4120   43.2840   17.9490 C   0  0  0  0  0  0  0  0  0  0  0  0
   32.6210   42.8950   16.1710 C   0  0  0  0  0  2  0  0  0  0  0  0
   31.2100   42.5840   16.1560 O   0  0  0  0  0  0  0  0  0  0  0  0
   30.7840   41.5840   16.9930 C   0  0  0  0  0  0  0  0  0  0  0  0
   29.5740   40.9720   16.6900 C   0  0  0  0  0  3  0  0  0  0  0  0
   29.0730   39.9690   17.5290 C   0  0  0  0  0  3  0  0  0  0  0  0
   29.7700   39.5830   18.6840 C   0  0  0  0  0  0  0  0  0  0  0  0
   30.9780   40.2260   18.9900 C   0  0  0  0  0  3  0  0  0  0  0  0
   31.4810   41.2220   18.1480 C   0  0  0  0  0  0  0  0  0  0  0  0
   29.2580   38.5450   19.5650 C   0  0  0  0  0  0  0  0  0  0  0  0
   29.9370   37.6200   20.3940 C   0  0  0  0  0  3  0  0  0  0  0  0
   29.1080   36.7970   21.0430 N   0  0  0  0  0  0  0  0  0  0  0  0
   27.8920   37.1950   20.6380 N   0  0  0  0  0  0  0  0  0  0  0  0
   27.9270   38.2320   19.7500 C   0  0  0  0  0  3  0  0  0  0  0  0
   27.0790   36.7090   21.0040 H   0  0  0  0  0  0  0  0  0  0  0  0
   37.6830   43.3820   22.0910 C   0  0  0  0  0  0  0  0  0  0  0  0
   37.0220   42.1430   21.9450 C   0  0  0  0  0  3  0  0  0  0  0  0
   35.9860   41.9540   21.0220 C   0  0  0  0  0  3  0  0  0  0  0  0
   35.5530   43.0060   20.2130 C   0  0  0  0  0  0  0  0  0  0  0  0
   36.1750   44.2460   20.3430 C   0  0  0  0  0  3  0  0  0  0  0  0
   37.2190   44.4260   21.2620 C   0  0  0  0  0  3  0  0  0  0  0  0
   42.2130   44.5780   22.5440 C   0  0  0  0  0  1  0  0  0  0  0  0
   40.7730   44.2340   22.2020 C   0  0  1  0  0  0  0  0  0  0  0  0
   40.2890   42.8730   22.7690 C   0  0  0  0  0  2  0  0  0  0  0  0
   38.9210   43.5500   23.0780 C   0  0  1  0  0  0  0  0  0  0  0  0
   39.6940   44.9040   23.0930 C   0  0  0  0  0  2  0  0  0  0  0  0
   38.4290   43.1750   24.4260 N   0  0  0  0  0  4  0  0  0  0  0  0
   37.6350   43.7650   24.7080 H   0  0  0  0  0  0  0  0  0  0  0  0
   38.0750   42.2080   24.4240 H   0  0  0  0  0  0  0  0  0  0  0  0
   39.1460   43.2420   25.1570 H   0  0  0  0  0  0  0  0  0  0  0  0
   40.5580   44.3760   20.7860 O   0  0  0  0  0  0  0  0  0  0  0  0
   40.9040   45.2530   20.5320 H   0  0  0  0  0  0  0  0  0  0  0  0
   35.2370   44.2240   17.2020 C   0  0  0  0  0  0  0  0  0  0  0  0
   35.1340   45.5990   17.4470 C   0  0  0  0  0  3  0  0  0  0  0  0
   35.9200   46.5030   16.7310 C   0  0  0  0  0  3  0  0  0  0  0  0
   36.8150   46.0390   15.7680 C   0  0  0  0  0  3  0  0  0  0  0  0
   36.9280   44.6700   15.5220 C   0  0  0  0  0  3  0  0  0  0  0  0
   36.1420   43.7650   16.2380 C   0  0  0  0  0  3  0  0  0  0  0  0
  1  2  1  0  0  0  0
  1 23  1  0  0  0  0
  3  2  2  0  0  0  0
  4  5  1  0  0  0  0
  4  3  1  0  0  0  0
  5  1  2  0  0  0  0
  6  4  1  0  0  0  0
  7  6  1  0  0  0  0
  7  8  1  0  0  0  0
  8 13  1  0  0  0  0
  9  8  2  0  0  0  0
  9 10  1  0  0  0  0
 10 11  2  0  0  0  0
 11 12  1  0  0  0  0
 11 14  1  0  0  0  0
 13  3  1  0  0  0  0
 13 12  2  0  0  0  0
 14 18  2  0  0  0  0
 14 15  1  0  0  0  0
 15 16  2  0  0  0  0
 17 19  1  0  0  0  0
 17 16  1  0  0  0  0
 18 17  1  0  0  0  0
 20 29  1  0  0  0  0
 21 20  1  0  0  0  0
 22 21  2  0  0  0  0
 23 24  2  0  0  0  0
 23 22  1  0  0  0  0
 24 25  1  0  0  0  0
 25 20  2  0  0  0  0
 27 26  1  1  0  0  0
 27 28  1  0  0  0  0
 27 30  1  0  0  0  0
 28 29  1  0  0  0  0
 29 30  1  0  0  0  0
 29 31  1  1  0  0  0
 31 32  1  0  0  0  0
 31 34  1  0  0  0  0
 33 31  1  0  0  0  0
 35 27  1  0  0  0  0
 36 35  1  0  0  0  0
 37 38  1  0  0  0  0
 37  5  1  0  0  0  0
 39 38  2  0  0  0  0
 40 39  1  0  0  0  0
 41 40  2  0  0  0  0
 41 42  1  0  0  0  0
 42 37  2  0  0  0  0
M  END
>  <minimizedAffinity>
-11.5590487

$$$$
