
 OpenBabel11232419313D

 42 48  0  0  1  0  0  0  0  0999 V2000
   34.9720   42.7560   19.3580 C   0  0  0  0  0  0  0  0  0  0  0  0
   33.9350   41.8870   19.6260 N   0  0  0  0  0  0  0  0  0  0  0  0
   33.1320   41.9740   18.5880 C   0  0  0  0  0  0  0  0  0  0  0  0
   33.6050   42.8750   17.6770 N   0  0  0  0  0  0  0  0  0  0  0  0
   34.8020   43.3830   18.1290 C   0  0  0  0  0  0  0  0  0  0  0  0
   32.9190   43.1240   16.4230 C   0  0  0  0  0  2  0  0  0  0  0  0
   31.5110   42.8060   16.4580 O   0  0  0  0  0  0  0  0  0  0  0  0
   31.1340   41.7380   17.2320 C   0  0  0  0  0  0  0  0  0  0  0  0
   29.9100   41.1440   16.9460 C   0  0  0  0  0  3  0  0  0  0  0  0
   29.4580   40.0730   17.7260 C   0  0  0  0  0  3  0  0  0  0  0  0
   30.2170   39.6000   18.8080 C   0  0  0  0  0  0  0  0  0  0  0  0
   31.4380   40.2250   19.1000 C   0  0  0  0  0  3  0  0  0  0  0  0
   31.8920   41.2890   18.3160 C   0  0  0  0  0  0  0  0  0  0  0  0
   29.7560   38.4910   19.6280 C   0  0  0  0  0  0  0  0  0  0  0  0
   28.4570   37.9610   19.8180 C   0  0  0  0  0  3  0  0  0  0  0  0
   28.4330   36.9400   20.6790 N   0  0  0  0  0  0  0  0  0  0  0  0
   29.7190   36.8050   21.0410 N   0  0  0  0  0  0  0  0  0  0  0  0
   30.5490   37.7110   20.4440 C   0  0  0  0  0  3  0  0  0  0  0  0
   29.9590   36.0750   21.7040 H   0  0  0  0  0  0  0  0  0  0  0  0
   38.1610   43.4030   22.1920 C   0  0  0  0  0  0  0  0  0  0  0  0
   37.8650   44.3170   21.1570 C   0  0  0  0  0  3  0  0  0  0  0  0
   36.8340   44.0930   20.2360 C   0  0  0  0  0  3  0  0  0  0  0  0
   36.0640   42.9310   20.2990 C   0  0  0  0  0  0  0  0  0  0  0  0
   36.3400   42.0020   21.3000 C   0  0  0  0  0  3  0  0  0  0  0  0
   37.3660   42.2370   22.2260 C   0  0  0  0  0  3  0  0  0  0  0  0
   39.1910   45.6150   26.2180 C   0  0  0  0  0  1  0  0  0  0  0  0
   38.6740   44.9780   24.9390 C   0  0  1  0  0  0  0  0  0  0  0  0
   39.5890   45.1890   23.7030 C   0  0  0  0  0  2  0  0  0  0  0  0
   39.2720   43.7220   23.2860 C   0  0  1  0  0  0  0  0  0  0  0  0
   38.9480   43.4580   24.7890 C   0  0  0  0  0  2  0  0  0  0  0  0
   40.4990   43.0120   22.8490 N   0  0  0  0  0  4  0  0  0  0  0  0
   40.3300   42.0020   22.7620 H   0  0  0  0  0  0  0  0  0  0  0  0
   40.7860   43.3320   21.9140 H   0  0  0  0  0  0  0  0  0  0  0  0
   41.2960   43.1440   23.4810 H   0  0  0  0  0  0  0  0  0  0  0  0
   37.3070   45.3680   24.7160 O   0  0  0  0  0  0  0  0  0  0  0  0
   36.8240   45.2070   25.5490 H   0  0  0  0  0  0  0  0  0  0  0  0
   35.5840   44.3860   17.4180 C   0  0  0  0  0  0  0  0  0  0  0  0
   36.6620   43.9970   16.6150 C   0  0  0  0  0  3  0  0  0  0  0  0
   37.4160   44.9550   15.9360 C   0  0  0  0  0  3  0  0  0  0  0  0
   37.0950   46.3070   16.0540 C   0  0  0  0  0  3  0  0  0  0  0  0
   36.0190   46.7030   16.8480 C   0  0  0  0  0  3  0  0  0  0  0  0
   35.2640   45.7450   17.5280 C   0  0  0  0  0  3  0  0  0  0  0  0
  1  2  1  0  0  0  0
  1 23  1  0  0  0  0
  3  2  2  0  0  0  0
  4  5  1  0  0  0  0
  4  3  1  0  0  0  0
  5  1  2  0  0  0  0
  6  7  1  0  0  0  0
  6  4  1  0  0  0  0
  7  8  1  0  0  0  0
  8 13  1  0  0  0  0
  9  8  2  0  0  0  0
  9 10  1  0  0  0  0
 10 11  2  0  0  0  0
 11 12  1  0  0  0  0
 11 14  1  0  0  0  0
 13  3  1  0  0  0  0
 13 12  2  0  0  0  0
 14 15  1  0  0  0  0
 14 18  2  0  0  0  0
 15 16  2  0  0  0  0
 16 17  1  0  0  0  0
 17 19  1  0  0  0  0
 18 17  1  0  0  0  0
 20 25  1  0  0  0  0
 20 29  1  0  0  0  0
 21 20  2  0  0  0  0
 22 23  2  0  0  0  0
 22 21  1  0  0  0  0
 23 24  1  0  0  0  0
 24 25  2  0  0  0  0
 27 26  1  1  0  0  0
 28 27  1  0  0  0  0
 29 31  1  6  0  0  0
 29 28  1  0  0  0  0
 29 30  1  0  0  0  0
 30 27  1  0  0  0  0
 31 34  1  0  0  0  0
 32 31  1  0  0  0  0
 33 31  1  0  0  0  0
 35 27  1  0  0  0  0
 35 36  1  0  0  0  0
 37 42  1  0  0  0  0
 37  5  1  0  0  0  0
 38 37  2  0  0  0  0
 39 40  2  0  0  0  0
 39 38  1  0  0  0  0
 40 41  1  0  0  0  0
 41 42  2  0  0  0  0
M  END
>  <minimizedAffinity>
-12.6988544

$$$$
