
 OpenBabel11232419313D

 42 48  0  0  1  0  0  0  0  0999 V2000
   36.8660   44.6410   18.9040 C   0  0  0  0  0  0  0  0  0  0  0  0
   36.9090   44.1000   20.1720 N   0  0  0  0  0  0  0  0  0  0  0  0
   38.1500   44.2620   20.5750 C   0  0  0  0  0  0  0  0  0  0  0  0
   38.9040   44.8680   19.6110 N   0  0  0  0  0  0  0  0  0  0  0  0
   38.1040   45.1480   18.5270 C   0  0  0  0  0  0  0  0  0  0  0  0
   40.3010   45.1950   19.8270 C   0  0  0  0  0  2  0  0  0  0  0  0
   40.9390   44.3800   20.8350 O   0  0  0  0  0  0  0  0  0  0  0  0
   40.1660   43.9880   21.8980 C   0  0  0  0  0  0  0  0  0  0  0  0
   40.8270   43.6090   23.0610 C   0  0  0  0  0  3  0  0  0  0  0  0
   40.0900   43.1650   24.1660 C   0  0  0  0  0  3  0  0  0  0  0  0
   38.6890   43.0820   24.1110 C   0  0  0  0  0  0  0  0  0  0  0  0
   38.0380   43.4450   22.9230 C   0  0  0  0  0  3  0  0  0  0  0  0
   38.7740   43.8940   21.8230 C   0  0  0  0  0  0  0  0  0  0  0  0
   37.9140   42.6200   25.2510 C   0  0  0  0  0  0  0  0  0  0  0  0
   36.5600   42.8450   25.5990 C   0  0  0  0  0  3  0  0  0  0  0  0
   36.2160   42.2650   26.7510 N   0  0  0  0  0  0  0  0  0  0  0  0
   37.3460   41.6570   27.1460 N   0  0  0  0  0  0  0  0  0  0  0  0
   38.3910   41.8430   26.2860 C   0  0  0  0  0  3  0  0  0  0  0  0
   37.3340   41.1350   28.0160 H   0  0  0  0  0  0  0  0  0  0  0  0
   33.1750   44.5090   16.6720 C   0  0  0  0  0  0  0  0  0  0  0  0
   34.1170   43.4570   16.6480 C   0  0  0  0  0  3  0  0  0  0  0  0
   35.3170   43.5140   17.3680 C   0  0  0  0  0  3  0  0  0  0  0  0
   35.6360   44.6380   18.1310 C   0  0  0  0  0  0  0  0  0  0  0  0
   34.7340   45.7000   18.1640 C   0  0  0  0  0  3  0  0  0  0  0  0
   33.5290   45.6320   17.4500 C   0  0  0  0  0  3  0  0  0  0  0  0
   29.2570   41.9700   16.0640 C   0  0  0  0  0  1  0  0  0  0  0  0
   30.5790   42.6460   16.3900 C   0  0  1  0  0  0  0  0  0  0  0  0
   31.3940   43.0900   15.1460 C   0  0  0  0  0  2  0  0  0  0  0  0
   31.7740   44.3840   15.9250 C   0  0  1  0  0  0  0  0  0  0  0  0
   30.4870   44.1480   16.7730 C   0  0  0  0  0  2  0  0  0  0  0  0
   31.6580   45.5840   15.0600 N   0  0  0  0  0  4  0  0  0  0  0  0
   31.7180   46.4470   15.6160 H   0  0  0  0  0  0  0  0  0  0  0  0
   32.4410   45.6240   14.3930 H   0  0  0  0  0  0  0  0  0  0  0  0
   30.7870   45.6170   14.5210 H   0  0  0  0  0  0  0  0  0  0  0  0
   31.3290   41.8350   17.3110 O   0  0  0  0  0  0  0  0  0  0  0  0
   30.7270   41.6040   18.0440 H   0  0  0  0  0  0  0  0  0  0  0  0
   38.5790   45.7790   17.3030 C   0  0  0  0  0  0  0  0  0  0  0  0
   39.5320   46.8020   17.3640 C   0  0  0  0  0  3  0  0  0  0  0  0
   39.9860   47.4120   16.1940 C   0  0  0  0  0  3  0  0  0  0  0  0
   39.4930   47.0020   14.9560 C   0  0  0  0  0  3  0  0  0  0  0  0
   38.5460   45.9800   14.8860 C   0  0  0  0  0  3  0  0  0  0  0  0
   38.0910   45.3690   16.0560 C   0  0  0  0  0  3  0  0  0  0  0  0
  1  2  1  0  0  0  0
  2  3  2  0  0  0  0
  3 13  1  0  0  0  0
  4  6  1  0  0  0  0
  4  3  1  0  0  0  0
  5  1  2  0  0  0  0
  5  4  1  0  0  0  0
  6  7  1  0  0  0  0
  7  8  1  0  0  0  0
  8  9  1  0  0  0  0
  9 10  2  0  0  0  0
 11 10  1  0  0  0  0
 11 14  1  0  0  0  0
 12 11  2  0  0  0  0
 13  8  2  0  0  0  0
 13 12  1  0  0  0  0
 14 15  1  0  0  0  0
 14 18  2  0  0  0  0
 15 16  2  0  0  0  0
 16 17  1  0  0  0  0
 17 19  1  0  0  0  0
 18 17  1  0  0  0  0
 20 25  1  0  0  0  0
 21 20  2  0  0  0  0
 21 22  1  0  0  0  0
 22 23  2  0  0  0  0
 23 24  1  0  0  0  0
 23  1  1  0  0  0  0
 25 24  2  0  0  0  0
 27 26  1  6  0  0  0
 27 30  1  0  0  0  0
 27 35  1  0  0  0  0
 28 29  1  0  0  0  0
 28 27  1  0  0  0  0
 29 31  1  6  0  0  0
 29 20  1  0  0  0  0
 29 30  1  0  0  0  0
 31 32  1  0  0  0  0
 33 31  1  0  0  0  0
 34 31  1  0  0  0  0
 35 36  1  0  0  0  0
 37 38  1  0  0  0  0
 37  5  1  0  0  0  0
 39 38  2  0  0  0  0
 40 39  1  0  0  0  0
 41 40  2  0  0  0  0
 41 42  1  0  0  0  0
 42 37  2  0  0  0  0
M  END
>  <minimizedAffinity>
-12.1173382

$$$$
