
 OpenBabel11232419313D

 42 48  0  0  1  0  0  0  0  0999 V2000
   36.9000   45.1510   17.5930 C   0  0  0  0  0  0  0  0  0  0  0  0
   37.5980   44.9270   18.7620 N   0  0  0  0  0  0  0  0  0  0  0  0
   38.7580   45.5230   18.5930 C   0  0  0  0  0  0  0  0  0  0  0  0
   38.8360   46.1030   17.3600 N   0  0  0  0  0  0  0  0  0  0  0  0
   37.6480   45.9040   16.6950 C   0  0  0  0  0  0  0  0  0  0  0  0
   40.0040   46.8580   16.9440 C   0  0  0  0  0  2  0  0  0  0  0  0
   41.2110   46.4950   17.6480 O   0  0  0  0  0  0  0  0  0  0  0  0
   41.0780   46.1290   18.9630 C   0  0  0  0  0  0  0  0  0  0  0  0
   42.2100   46.2120   19.7660 C   0  0  0  0  0  3  0  0  0  0  0  0
   42.1420   45.8170   21.1070 C   0  0  0  0  0  3  0  0  0  0  0  0
   40.9460   45.3220   21.6520 C   0  0  0  0  0  0  0  0  0  0  0  0
   39.8180   45.2220   20.8250 C   0  0  0  0  0  3  0  0  0  0  0  0
   39.8860   45.6230   19.4870 C   0  0  0  0  0  0  0  0  0  0  0  0
   40.8640   44.9070   23.0430 C   0  0  0  0  0  0  0  0  0  0  0  0
   40.8120   43.6150   23.6190 C   0  0  0  0  0  3  0  0  0  0  0  0
   40.7150   43.6420   24.9510 N   0  0  0  0  0  0  0  0  0  0  0  0
   40.7110   44.9540   25.2370 N   0  0  0  0  0  0  0  0  0  0  0  0
   40.7920   45.7510   24.1320 C   0  0  0  0  0  3  0  0  0  0  0  0
   40.6450   45.2350   26.2110 H   0  0  0  0  0  0  0  0  0  0  0  0
   32.9560   43.4730   17.0990 C   0  0  0  0  0  0  0  0  0  0  0  0
   34.1000   42.9220   16.4830 C   0  0  0  0  0  3  0  0  0  0  0  0
   35.3740   43.4800   16.6410 C   0  0  0  0  0  3  0  0  0  0  0  0
   35.5570   44.6300   17.4110 C   0  0  0  0  0  0  0  0  0  0  0  0
   34.4450   45.2070   18.0220 C   0  0  0  0  0  3  0  0  0  0  0  0
   33.1740   44.6370   17.8680 C   0  0  0  0  0  3  0  0  0  0  0  0
   28.3900   43.9790   16.0670 C   0  0  0  0  0  1  0  0  0  0  0  0
   29.8820   44.0120   16.3570 C   0  0  1  0  0  0  0  0  0  0  0  0
   30.2850   43.3610   17.7070 C   0  0  0  0  0  2  0  0  0  0  0  0
   31.5330   42.7690   16.9860 C   0  0  1  0  0  0  0  0  0  0  0  0
   30.7250   42.9100   15.6600 C   0  0  0  0  0  2  0  0  0  0  0  0
   31.7430   41.3490   17.3600 N   0  0  0  0  0  4  0  0  0  0  0  0
   32.4380   40.9040   16.7460 H   0  0  0  0  0  0  0  0  0  0  0  0
   32.1250   41.2800   18.3140 H   0  0  0  0  0  0  0  0  0  0  0  0
   30.8880   40.7850   17.3260 H   0  0  0  0  0  0  0  0  0  0  0  0
   30.3840   45.3500   16.1900 O   0  0  0  0  0  0  0  0  0  0  0  0
   30.0670   45.6670   15.3230 H   0  0  0  0  0  0  0  0  0  0  0  0
   37.3810   46.3720   15.3410 C   0  0  0  0  0  0  0  0  0  0  0  0
   37.2790   47.7440   15.0800 C   0  0  0  0  0  3  0  0  0  0  0  0
   37.0190   48.1960   13.7850 C   0  0  0  0  0  3  0  0  0  0  0  0
   36.8630   47.2820   12.7450 C   0  0  0  0  0  3  0  0  0  0  0  0
   36.9680   45.9140   12.9960 C   0  0  0  0  0  3  0  0  0  0  0  0
   37.2280   45.4600   14.2900 C   0  0  0  0  0  3  0  0  0  0  0  0
  1  2  1  0  0  0  0
  3  2  2  0  0  0  0
  3 13  1  0  0  0  0
  4  3  1  0  0  0  0
  5  4  1  0  0  0  0
  5  1  2  0  0  0  0
  6  4  1  0  0  0  0
  6  7  1  0  0  0  0
  7  8  1  0  0  0  0
  8 13  2  0  0  0  0
  8  9  1  0  0  0  0
  9 10  2  0  0  0  0
 10 11  1  0  0  0  0
 11 14  1  0  0  0  0
 12 11  2  0  0  0  0
 13 12  1  0  0  0  0
 14 15  1  0  0  0  0
 14 18  2  0  0  0  0
 15 16  2  0  0  0  0
 16 17  1  0  0  0  0
 17 19  1  0  0  0  0
 18 17  1  0  0  0  0
 20 25  1  0  0  0  0
 21 22  1  0  0  0  0
 21 20  2  0  0  0  0
 22 23  2  0  0  0  0
 23  1  1  0  0  0  0
 23 24  1  0  0  0  0
 25 24  2  0  0  0  0
 27 26  1  6  0  0  0
 27 28  1  0  0  0  0
 29 20  1  0  0  0  0
 29 31  1  1  0  0  0
 29 28  1  0  0  0  0
 30 27  1  0  0  0  0
 30 29  1  0  0  0  0
 31 33  1  0  0  0  0
 32 31  1  0  0  0  0
 34 31  1  0  0  0  0
 35 27  1  0  0  0  0
 36 35  1  0  0  0  0
 37  5  1  0  0  0  0
 38 37  1  0  0  0  0
 39 38  2  0  0  0  0
 40 41  2  0  0  0  0
 40 39  1  0  0  0  0
 41 42  1  0  0  0  0
 42 37  2  0  0  0  0
M  END
>  <minimizedAffinity>
-13.3306828

$$$$
