
 OpenBabel11232419313D

 42 48  0  0  1  0  0  0  0  0999 V2000
   35.3460   44.1410   18.3540 C   0  0  0  0  0  0  0  0  0  0  0  0
   35.7070   43.8390   19.6510 N   0  0  0  0  0  0  0  0  0  0  0  0
   36.9460   44.2620   19.7730 C   0  0  0  0  0  0  0  0  0  0  0  0
   37.3960   44.8070   18.6050 N   0  0  0  0  0  0  0  0  0  0  0  0
   36.3830   44.7680   17.6730 C   0  0  0  0  0  0  0  0  0  0  0  0
   38.7220   45.3840   18.4920 C   0  0  0  0  0  2  0  0  0  0  0  0
   39.6650   44.8650   19.4550 O   0  0  0  0  0  0  0  0  0  0  0  0
   39.1730   44.5410   20.6940 C   0  0  0  0  0  0  0  0  0  0  0  0
   40.0830   44.4750   21.7440 C   0  0  0  0  0  3  0  0  0  0  0  0
   39.6430   44.1150   23.0230 C   0  0  0  0  0  3  0  0  0  0  0  0
   38.2950   43.8020   23.2600 C   0  0  0  0  0  0  0  0  0  0  0  0
   37.3930   43.8490   22.1860 C   0  0  0  0  0  3  0  0  0  0  0  0
   37.8320   44.2160   20.9110 C   0  0  0  0  0  0  0  0  0  0  0  0
   37.8270   43.4230   24.5830 C   0  0  0  0  0  0  0  0  0  0  0  0
   36.9120   42.4210   24.9870 C   0  0  0  0  0  3  0  0  0  0  0  0
   36.7190   42.3950   26.3080 N   0  0  0  0  0  0  0  0  0  0  0  0
   37.5160   43.3760   26.7600 N   0  0  0  0  0  0  0  0  0  0  0  0
   38.1950   44.0240   25.7680 C   0  0  0  0  0  3  0  0  0  0  0  0
   37.5440   43.5530   27.7590 H   0  0  0  0  0  0  0  0  0  0  0  0
   31.3660   43.2740   16.9290 C   0  0  0  0  0  0  0  0  0  0  0  0
   31.6830   43.3500   18.3030 C   0  0  0  0  0  3  0  0  0  0  0  0
   32.9800   43.6220   18.7560 C   0  0  0  0  0  3  0  0  0  0  0  0
   34.0250   43.8120   17.8490 C   0  0  0  0  0  0  0  0  0  0  0  0
   33.7480   43.7290   16.4860 C   0  0  0  0  0  3  0  0  0  0  0  0
   32.4450   43.4670   16.0400 C   0  0  0  0  0  3  0  0  0  0  0  0
   27.5450   40.5260   17.0400 C   0  0  0  0  0  1  0  0  0  0  0  0
   28.8640   41.2760   17.1250 C   0  0  1  0  0  0  0  0  0  0  0  0
   29.4310   41.7290   15.7530 C   0  0  0  0  0  2  0  0  0  0  0  0
   29.8680   43.0600   16.4350 C   0  0  1  0  0  0  0  0  0  0  0  0
   28.7580   42.7800   17.4940 C   0  0  0  0  0  2  0  0  0  0  0  0
   29.5420   44.2300   15.5840 N   0  0  0  0  0  4  0  0  0  0  0  0
   29.6490   45.1090   16.1070 H   0  0  0  0  0  0  0  0  0  0  0  0
   30.1980   44.2930   14.7920 H   0  0  0  0  0  0  0  0  0  0  0  0
   28.5920   44.2060   15.2000 H   0  0  0  0  0  0  0  0  0  0  0  0
   29.8030   40.5270   17.9170 O   0  0  0  0  0  0  0  0  0  0  0  0
   29.3480   40.2840   18.7450 H   0  0  0  0  0  0  0  0  0  0  0  0
   36.5140   45.2490   16.3040 C   0  0  0  0  0  0  0  0  0  0  0  0
   36.8430   44.3590   15.2760 C   0  0  0  0  0  3  0  0  0  0  0  0
   36.9740   44.8170   13.9630 C   0  0  0  0  0  3  0  0  0  0  0  0
   36.7740   46.1650   13.6720 C   0  0  0  0  0  3  0  0  0  0  0  0
   36.4410   47.0580   14.6910 C   0  0  0  0  0  3  0  0  0  0  0  0
   36.3100   46.6010   16.0040 C   0  0  0  0  0  3  0  0  0  0  0  0
  1  2  1  0  0  0  0
  2  3  2  0  0  0  0
  3 13  1  0  0  0  0
  4  3  1  0  0  0  0
  5  1  2  0  0  0  0
  5  4  1  0  0  0  0
  6  4  1  0  0  0  0
  6  7  1  0  0  0  0
  7  8  1  0  0  0  0
  8 13  2  0  0  0  0
  8  9  1  0  0  0  0
  9 10  2  0  0  0  0
 10 11  1  0  0  0  0
 11 14  1  0  0  0  0
 12 11  2  0  0  0  0
 13 12  1  0  0  0  0
 14 15  1  0  0  0  0
 14 18  2  0  0  0  0
 15 16  2  0  0  0  0
 16 17  1  0  0  0  0
 17 19  1  0  0  0  0
 18 17  1  0  0  0  0
 20 21  1  0  0  0  0
 21 22  2  0  0  0  0
 23  1  1  0  0  0  0
 23 22  1  0  0  0  0
 24 23  2  0  0  0  0
 25 24  1  0  0  0  0
 25 20  2  0  0  0  0
 27 26  1  6  0  0  0
 27 30  1  0  0  0  0
 27 35  1  0  0  0  0
 28 29  1  0  0  0  0
 28 27  1  0  0  0  0
 29 31  1  6  0  0  0
 29 20  1  0  0  0  0
 29 30  1  0  0  0  0
 31 32  1  0  0  0  0
 33 31  1  0  0  0  0
 34 31  1  0  0  0  0
 35 36  1  0  0  0  0
 37  5  1  0  0  0  0
 38 37  2  0  0  0  0
 39 38  1  0  0  0  0
 40 39  2  0  0  0  0
 40 41  1  0  0  0  0
 41 42  2  0  0  0  0
 42 37  1  0  0  0  0
M  END
>  <minimizedAffinity>
-12.3423023

$$$$
