
 OpenBabel11232419313D

 42 48  0  0  1  0  0  0  0  0999 V2000
   36.4860   45.0300   17.2340 C   0  0  0  0  0  0  0  0  0  0  0  0
   37.1460   44.8210   18.4270 N   0  0  0  0  0  0  0  0  0  0  0  0
   38.3280   45.3740   18.2720 C   0  0  0  0  0  0  0  0  0  0  0  0
   38.4570   45.9130   17.0230 N   0  0  0  0  0  0  0  0  0  0  0  0
   37.2800   45.7310   16.3340 C   0  0  0  0  0  0  0  0  0  0  0  0
   39.6580   46.6180   16.6160 C   0  0  0  0  0  2  0  0  0  0  0  0
   40.8350   46.2390   17.3630 O   0  0  0  0  0  0  0  0  0  0  0  0
   40.6560   45.9180   18.6840 C   0  0  0  0  0  0  0  0  0  0  0  0
   41.7700   45.9900   19.5140 C   0  0  0  0  0  3  0  0  0  0  0  0
   41.6540   45.6400   20.8640 C   0  0  0  0  0  3  0  0  0  0  0  0
   40.4300   45.2000   21.3920 C   0  0  0  0  0  0  0  0  0  0  0  0
   39.3210   45.1100   20.5380 C   0  0  0  0  0  3  0  0  0  0  0  0
   39.4360   45.4660   19.1910 C   0  0  0  0  0  0  0  0  0  0  0  0
   40.2990   44.8310   22.7920 C   0  0  0  0  0  0  0  0  0  0  0  0
   40.2120   45.6340   23.9550 C   0  0  0  0  0  3  0  0  0  0  0  0
   40.1240   44.9170   25.0780 N   0  0  0  0  0  0  0  0  0  0  0  0
   40.1450   43.6480   24.6400 N   0  0  0  0  0  0  0  0  0  0  0  0
   40.2540   43.5430   23.2830 C   0  0  0  0  0  3  0  0  0  0  0  0
   40.0870   42.9010   25.3250 H   0  0  0  0  0  0  0  0  0  0  0  0
   32.4320   43.7130   16.5620 C   0  0  0  0  0  0  0  0  0  0  0  0
   32.7400   44.9420   17.1840 C   0  0  0  0  0  3  0  0  0  0  0  0
   34.0590   45.3560   17.4070 C   0  0  0  0  0  3  0  0  0  0  0  0
   35.1320   44.5460   17.0330 C   0  0  0  0  0  0  0  0  0  0  0  0
   34.8620   43.3190   16.4290 C   0  0  0  0  0  3  0  0  0  0  0  0
   33.5390   42.9160   16.1990 C   0  0  0  0  0  3  0  0  0  0  0  0
   29.0050   40.5360   17.1320 C   0  0  0  0  0  1  0  0  0  0  0  0
   30.2250   41.4400   17.0620 C   0  0  1  0  0  0  0  0  0  0  0  0
   30.5920   41.9080   15.6290 C   0  0  0  0  0  2  0  0  0  0  0  0
   30.9300   43.3050   16.2310 C   0  0  1  0  0  0  0  0  0  0  0  0
   29.9730   42.9330   17.4050 C   0  0  0  0  0  2  0  0  0  0  0  0
   30.3800   44.3970   15.3910 N   0  0  0  0  0  4  0  0  0  0  0  0
   30.4300   45.3010   15.8800 H   0  0  0  0  0  0  0  0  0  0  0  0
   30.9400   44.5090   14.5340 H   0  0  0  0  0  0  0  0  0  0  0  0
   29.4060   44.2470   15.1080 H   0  0  0  0  0  0  0  0  0  0  0  0
   31.3220   40.8370   17.7700 O   0  0  0  0  0  0  0  0  0  0  0  0
   30.9850   40.5710   18.6470 H   0  0  0  0  0  0  0  0  0  0  0  0
   37.0630   46.1650   14.9600 C   0  0  0  0  0  0  0  0  0  0  0  0
   36.9270   45.2190   13.9370 C   0  0  0  0  0  3  0  0  0  0  0  0
   36.7240   45.6310   12.6190 C   0  0  0  0  0  3  0  0  0  0  0  0
   36.6530   46.9900   12.3160 C   0  0  0  0  0  3  0  0  0  0  0  0
   36.7830   47.9390   13.3300 C   0  0  0  0  0  3  0  0  0  0  0  0
   36.9870   47.5280   14.6490 C   0  0  0  0  0  3  0  0  0  0  0  0
  1  2  1  0  0  0  0
  3  2  2  0  0  0  0
  3 13  1  0  0  0  0
  4  3  1  0  0  0  0
  5  4  1  0  0  0  0
  5  1  2  0  0  0  0
  6  4  1  0  0  0  0
  6  7  1  0  0  0  0
  7  8  1  0  0  0  0
  8 13  2  0  0  0  0
  8  9  1  0  0  0  0
  9 10  2  0  0  0  0
 10 11  1  0  0  0  0
 11 14  1  0  0  0  0
 12 11  2  0  0  0  0
 13 12  1  0  0  0  0
 14 18  2  0  0  0  0
 14 15  1  0  0  0  0
 15 16  2  0  0  0  0
 17 16  1  0  0  0  0
 17 19  1  0  0  0  0
 18 17  1  0  0  0  0
 20 21  1  0  0  0  0
 21 22  2  0  0  0  0
 23  1  1  0  0  0  0
 23 22  1  0  0  0  0
 24 23  2  0  0  0  0
 25 24  1  0  0  0  0
 25 20  2  0  0  0  0
 27 26  1  1  0  0  0
 27 30  1  0  0  0  0
 27 35  1  0  0  0  0
 28 29  1  0  0  0  0
 28 27  1  0  0  0  0
 29 31  1  6  0  0  0
 29 20  1  0  0  0  0
 29 30  1  0  0  0  0
 31 32  1  0  0  0  0
 33 31  1  0  0  0  0
 34 31  1  0  0  0  0
 35 36  1  0  0  0  0
 37  5  1  0  0  0  0
 38 37  2  0  0  0  0
 39 38  1  0  0  0  0
 40 39  2  0  0  0  0
 40 41  1  0  0  0  0
 41 42  2  0  0  0  0
 42 37  1  0  0  0  0
M  END
>  <minimizedAffinity>
-12.8260927

$$$$
