
 OpenBabel11232419313D

 42 48  0  0  1  0  0  0  0  0999 V2000
   36.7570   44.6310   18.9060 C   0  0  0  0  0  0  0  0  0  0  0  0
   37.6500   45.4130   18.2050 N   0  0  0  0  0  0  0  0  0  0  0  0
   37.1010   45.5940   17.0240 C   0  0  0  0  0  0  0  0  0  0  0  0
   35.9010   44.9460   16.9370 N   0  0  0  0  0  0  0  0  0  0  0  0
   35.6360   44.3330   18.1400 C   0  0  0  0  0  0  0  0  0  0  0  0
   35.0770   45.0230   15.7460 C   0  0  0  0  0  2  0  0  0  0  0  0
   35.8180   45.3330   14.5460 O   0  0  0  0  0  0  0  0  0  0  0  0
   36.8920   46.1750   14.6780 C   0  0  0  0  0  0  0  0  0  0  0  0
   37.3320   46.8310   13.5340 C   0  0  0  0  0  3  0  0  0  0  0  0
   38.4460   47.6760   13.6020 C   0  0  0  0  0  3  0  0  0  0  0  0
   39.1390   47.8590   14.8100 C   0  0  0  0  0  0  0  0  0  0  0  0
   38.6970   47.1720   15.9500 C   0  0  0  0  0  3  0  0  0  0  0  0
   37.5810   46.3340   15.8830 C   0  0  0  0  0  0  0  0  0  0  0  0
   40.2990   48.7310   14.8920 C   0  0  0  0  0  0  0  0  0  0  0  0
   40.8560   49.4240   15.9940 C   0  0  0  0  0  3  0  0  0  0  0  0
   41.9250   50.1540   15.6630 N   0  0  0  0  0  0  0  0  0  0  0  0
   42.0630   49.9270   14.3470 N   0  0  0  0  0  0  0  0  0  0  0  0
   41.1130   49.0880   13.8380 C   0  0  0  0  0  3  0  0  0  0  0  0
   42.8260   50.3820   13.8560 H   0  0  0  0  0  0  0  0  0  0  0  0
   37.5490   43.5420   23.0060 C   0  0  0  0  0  0  0  0  0  0  0  0
   38.2130   44.6060   22.3590 C   0  0  0  0  0  3  0  0  0  0  0  0
   37.9570   44.9450   21.0250 C   0  0  0  0  0  3  0  0  0  0  0  0
   37.0330   44.2190   20.2710 C   0  0  0  0  0  0  0  0  0  0  0  0
   36.3700   43.1530   20.8760 C   0  0  0  0  0  3  0  0  0  0  0  0
   36.6240   42.8260   22.2160 C   0  0  0  0  0  3  0  0  0  0  0  0
   37.3940   45.1950   27.4110 C   0  0  0  0  0  1  0  0  0  0  0  0
   37.3800   44.8440   25.9320 C   0  0  1  0  0  0  0  0  0  0  0  0
   38.6780   44.1610   25.4250 C   0  0  0  0  0  2  0  0  0  0  0  0
   37.7840   43.2340   24.5500 C   0  0  1  0  0  0  0  0  0  0  0  0
   36.6350   43.5340   25.5610 C   0  0  0  0  0  2  0  0  0  0  0  0
   38.2380   41.8240   24.6260 N   0  0  0  0  0  4  0  0  0  0  0  0
   37.5420   41.1890   24.2130 H   0  0  0  0  0  0  0  0  0  0  0  0
   39.1000   41.6930   24.0790 H   0  0  0  0  0  0  0  0  0  0  0  0
   38.4250   41.5050   25.5830 H   0  0  0  0  0  0  0  0  0  0  0  0
   36.9950   45.9950   25.1590 O   0  0  0  0  0  0  0  0  0  0  0  0
   36.1820   46.3520   25.5640 H   0  0  0  0  0  0  0  0  0  0  0  0
   34.4460   43.5340   18.4040 C   0  0  0  0  0  0  0  0  0  0  0  0
   33.3960   44.0660   19.1610 C   0  0  0  0  0  3  0  0  0  0  0  0
   32.2570   43.3010   19.4200 C   0  0  0  0  0  3  0  0  0  0  0  0
   32.1600   42.0030   18.9210 C   0  0  0  0  0  3  0  0  0  0  0  0
   33.2000   41.4670   18.1610 C   0  0  0  0  0  3  0  0  0  0  0  0
   34.3400   42.2310   17.9020 C   0  0  0  0  0  3  0  0  0  0  0  0
  1 23  1  0  0  0  0
  2  1  1  0  0  0  0
  3  2  2  0  0  0  0
  4  3  1  0  0  0  0
  4  5  1  0  0  0  0
  5 37  1  0  0  0  0
  5  1  2  0  0  0  0
  6  4  1  0  0  0  0
  7  8  1  0  0  0  0
  7  6  1  0  0  0  0
  8 13  1  0  0  0  0
  9 10  1  0  0  0  0
  9  8  2  0  0  0  0
 10 11  2  0  0  0  0
 11 14  1  0  0  0  0
 11 12  1  0  0  0  0
 13 12  2  0  0  0  0
 13  3  1  0  0  0  0
 14 15  1  0  0  0  0
 16 15  2  0  0  0  0
 17 16  1  0  0  0  0
 18 17  1  0  0  0  0
 18 14  2  0  0  0  0
 19 17  1  0  0  0  0
 20 29  1  0  0  0  0
 21 20  1  0  0  0  0
 22 21  2  0  0  0  0
 23 24  2  0  0  0  0
 23 22  1  0  0  0  0
 24 25  1  0  0  0  0
 25 20  2  0  0  0  0
 27 26  1  1  0  0  0
 28 27  1  0  0  0  0
 29 31  1  1  0  0  0
 29 28  1  0  0  0  0
 29 30  1  0  0  0  0
 30 27  1  0  0  0  0
 31 34  1  0  0  0  0
 32 31  1  0  0  0  0
 33 31  1  0  0  0  0
 35 36  1  0  0  0  0
 35 27  1  0  0  0  0
 37 38  1  0  0  0  0
 38 39  2  0  0  0  0
 40 39  1  0  0  0  0
 41 40  2  0  0  0  0
 42 41  1  0  0  0  0
 42 37  2  0  0  0  0
M  END
>  <minimizedAffinity>
-11.0624676

$$$$
