
 OpenBabel11232419313D

 42 48  0  0  1  0  0  0  0  0999 V2000
   36.0300   43.8280   19.5040 C   0  0  0  0  0  0  0  0  0  0  0  0
   34.7690   43.2980   19.3260 N   0  0  0  0  0  0  0  0  0  0  0  0
   34.4490   43.5740   18.0810 C   0  0  0  0  0  0  0  0  0  0  0  0
   35.4460   44.2720   17.4620 N   0  0  0  0  0  0  0  0  0  0  0  0
   36.4920   44.4350   18.3420 C   0  0  0  0  0  0  0  0  0  0  0  0
   35.3530   44.6620   16.0670 C   0  0  0  0  0  2  0  0  0  0  0  0
   33.9960   44.7580   15.5810 O   0  0  0  0  0  0  0  0  0  0  0  0
   33.0870   43.8680   16.0950 C   0  0  0  0  0  0  0  0  0  0  0  0
   31.9340   43.6350   15.3540 C   0  0  0  0  0  3  0  0  0  0  0  0
   30.9550   42.7640   15.8470 C   0  0  0  0  0  3  0  0  0  0  0  0
   31.1140   42.1320   17.0900 C   0  0  0  0  0  0  0  0  0  0  0  0
   32.2710   42.3950   17.8370 C   0  0  0  0  0  3  0  0  0  0  0  0
   33.2510   43.2600   17.3420 C   0  0  0  0  0  0  0  0  0  0  0  0
   30.1030   41.2280   17.6140 C   0  0  0  0  0  0  0  0  0  0  0  0
   30.2300   39.9770   18.2630 C   0  0  0  0  0  3  0  0  0  0  0  0
   29.0530   39.4310   18.5780 N   0  0  0  0  0  0  0  0  0  0  0  0
   28.1620   40.3350   18.1390 N   0  0  0  0  0  0  0  0  0  0  0  0
   28.7390   41.4240   17.5500 C   0  0  0  0  0  3  0  0  0  0  0  0
   27.1740   40.1410   18.2700 H   0  0  0  0  0  0  0  0  0  0  0  0
   38.1350   43.3830   23.2440 C   0  0  0  0  0  0  0  0  0  0  0  0
   37.3490   42.3520   22.6850 C   0  0  0  0  0  3  0  0  0  0  0  0
   36.6610   42.5090   21.4760 C   0  0  0  0  0  3  0  0  0  0  0  0
   36.7150   43.7180   20.7790 C   0  0  0  0  0  0  0  0  0  0  0  0
   37.4710   44.7610   21.3110 C   0  0  0  0  0  3  0  0  0  0  0  0
   38.1670   44.5920   22.5170 C   0  0  0  0  0  3  0  0  0  0  0  0
   38.1160   43.2120   27.9490 C   0  0  0  0  0  1  0  0  0  0  0  0
   37.9260   43.3090   26.4440 C   0  0  1  0  0  0  0  0  0  0  0  0
   38.9750   44.1970   25.7230 C   0  0  0  0  0  2  0  0  0  0  0  0
   38.9870   43.1510   24.5690 C   0  0  1  0  0  0  0  0  0  0  0  0
   38.4790   42.1160   25.6200 C   0  0  0  0  0  2  0  0  0  0  0  0
   40.3720   42.8590   24.1250 N   0  0  0  0  0  4  0  0  0  0  0  0
   40.3960   42.0360   23.5080 H   0  0  0  0  0  0  0  0  0  0  0  0
   40.7440   43.6400   23.5680 H   0  0  0  0  0  0  0  0  0  0  0  0
   41.0230   42.6900   24.8990 H   0  0  0  0  0  0  0  0  0  0  0  0
   36.5650   43.6670   26.1450 O   0  0  0  0  0  0  0  0  0  0  0  0
   35.9920   43.0610   26.6520 H   0  0  0  0  0  0  0  0  0  0  0  0
   37.7210   45.1500   18.0250 C   0  0  0  0  0  0  0  0  0  0  0  0
   38.9310   44.7600   18.6100 C   0  0  0  0  0  3  0  0  0  0  0  0
   40.1110   45.4460   18.3130 C   0  0  0  0  0  3  0  0  0  0  0  0
   40.0870   46.5230   17.4280 C   0  0  0  0  0  3  0  0  0  0  0  0
   38.8860   46.9150   16.8370 C   0  0  0  0  0  3  0  0  0  0  0  0
   37.7060   46.2300   17.1340 C   0  0  0  0  0  3  0  0  0  0  0  0
  1 23  1  0  0  0  0
  2  1  1  0  0  0  0
  3  2  2  0  0  0  0
  4  3  1  0  0  0  0
  4  5  1  0  0  0  0
  5  1  2  0  0  0  0
  6  4  1  0  0  0  0
  7  6  1  0  0  0  0
  7  8  1  0  0  0  0
  8 13  1  0  0  0  0
  9 10  1  0  0  0  0
  9  8  2  0  0  0  0
 10 11  2  0  0  0  0
 11 14  1  0  0  0  0
 11 12  1  0  0  0  0
 13 12  2  0  0  0  0
 13  3  1  0  0  0  0
 14 15  1  0  0  0  0
 15 16  2  0  0  0  0
 17 19  1  0  0  0  0
 17 16  1  0  0  0  0
 18 14  2  0  0  0  0
 18 17  1  0  0  0  0
 20 29  1  0  0  0  0
 21 20  1  0  0  0  0
 22 21  2  0  0  0  0
 23 24  2  0  0  0  0
 23 22  1  0  0  0  0
 24 25  1  0  0  0  0
 25 20  2  0  0  0  0
 27 26  1  1  0  0  0
 28 27  1  0  0  0  0
 29 31  1  6  0  0  0
 29 30  1  0  0  0  0
 29 28  1  0  0  0  0
 30 27  1  0  0  0  0
 31 34  1  0  0  0  0
 32 31  1  0  0  0  0
 33 31  1  0  0  0  0
 35 27  1  0  0  0  0
 35 36  1  0  0  0  0
 37  5  1  0  0  0  0
 37 38  1  0  0  0  0
 39 38  2  0  0  0  0
 40 39  1  0  0  0  0
 41 42  1  0  0  0  0
 41 40  2  0  0  0  0
 42 37  2  0  0  0  0
M  END
>  <minimizedAffinity>
-11.0630512

$$$$
