
 OpenBabel10152419093D

 38 41  0  0  0  0  0  0  0  0999 V2000
    6.2960  -14.1460   13.5800 C   0  0  0  0  0  0  0  0  0  0  0  0
    5.2480  -15.0640   13.4450 C   0  0  0  0  0  3  0  0  0  0  0  0
    3.9240  -14.6320   13.4570 C   0  0  0  0  0  3  0  0  0  0  0  0
    3.6250  -13.2750   13.5920 C   0  0  0  0  0  3  0  0  0  0  0  0
    4.6470  -12.3380   13.7390 C   0  0  0  0  0  0  0  0  0  0  0  0
    5.9780  -12.7820   13.7140 C   0  0  0  0  0  3  0  0  0  0  0  0
    4.4440  -10.9480   13.8320 N   0  0  0  0  0  0  0  0  0  0  0  0
    4.7120   -9.9130   12.9660 C   0  0  0  0  0  0  0  0  0  0  0  0
    4.7420   -8.7560   13.3790 O   0  0  0  0  0  0  0  0  0  0  0  0
    4.1010  -10.6040   14.7220 H   0  0  0  0  0  0  0  0  0  0  0  0
    4.8760  -10.1350   11.5240 C   0  0  0  0  0  0  0  0  0  0  0  0
    3.9410  -10.8470   10.7730 C   0  0  0  0  0  3  0  0  0  0  0  0
    4.1510  -11.0050    9.4040 C   0  0  0  0  0  3  0  0  0  0  0  0
    5.2880  -10.4440    8.8130 C   0  0  0  0  0  0  0  0  0  0  0  0
    6.1880   -9.7180    9.5420 N   0  0  0  0  0  0  0  0  0  0  0  0
    5.9540   -9.5640   10.8700 C   0  0  0  0  0  3  0  0  0  0  0  0
    5.5270  -10.6220    7.3170 C   0  0  0  0  0  0  0  0  0  0  0  0
    6.8400  -10.8220    7.0080 F   0  0  0  0  0  0  0  0  0  0  0  0
    4.8430  -11.6740    6.7810 F   0  0  0  0  0  0  0  0  0  0  0  0
    5.1430   -9.5330    6.5830 F   0  0  0  0  0  0  0  0  0  0  0  0
    7.7440  -14.5850   13.4970 C   0  0  0  0  0  2  0  0  0  0  0  0
    9.1890  -10.0560    9.6480 C   0  0  0  0  0  0  0  0  0  0  0  0
   10.3270   -9.5460   10.2910 C   0  0  0  0  0  3  0  0  0  0  0  0
   10.7710  -10.1390   11.4620 C   0  0  0  0  0  3  0  0  0  0  0  0
   10.0790  -11.2340   11.9700 C   0  0  0  0  0  3  0  0  0  0  0  0
    8.9340  -11.7610   11.3130 C   0  0  0  0  0  0  0  0  0  0  0  0
    8.1990  -12.8770   11.7690 C   0  0  0  0  0  0  0  0  0  0  0  0
    8.5880  -13.5510   12.9240 N   0  0  0  0  0  0  0  0  0  0  0  0
    7.0980  -13.3060   11.1340 N   0  0  0  0  0  0  0  0  0  0  0  0
    6.7470  -12.6610   10.0210 C   0  0  0  0  0  3  0  0  0  0  0  0
    7.3940  -11.6290    9.4790 N   0  0  0  0  0  0  0  0  0  0  0  0
    8.4700  -11.1570   10.1310 C   0  0  0  0  0  0  0  0  0  0  0  0
    9.5820  -13.6910   13.0420 H   0  0  0  0  0  0  0  0  0  0  0  0
    7.4510   -8.9000    8.4570 N   0  0  0  0  0  0  0  0  0  0  0  0
    8.7380   -9.3610    8.4290 C   0  0  0  0  0  0  0  0  0  0  0  0
    9.4450   -9.2590    7.4360 O   0  0  0  0  0  0  0  0  0  0  0  0
    7.1110   -8.4200    7.6340 H   0  0  0  0  0  0  0  0  0  0  0  0
    6.8570   -8.9550    9.2720 H   0  0  0  0  0  0  0  0  0  0  0  0
  1  6  1  0  0  0  0
  2  3  1  0  0  0  0
  2  1  2  0  0  0  0
  3  4  2  0  0  0  0
  4  5  1  0  0  0  0
  5  7  1  0  0  0  0
  6  5  2  0  0  0  0
  7 10  1  0  0  0  0
  8  9  2  0  0  0  0
  8  7  1  0  0  0  0
 11  8  1  0  0  0  0
 12 11  2  0  0  0  0
 13 12  1  0  0  0  0
 14 13  2  0  0  0  0
 14 15  1  0  0  0  0
 15 16  2  0  0  0  0
 16 11  1  0  0  0  0
 17 14  1  0  0  0  0
 18 17  1  0  0  0  0
 19 17  1  0  0  0  0
 20 17  1  0  0  0  0
 21  1  1  0  0  0  0
 22 32  2  0  0  0  0
 22 23  1  0  0  0  0
 23 24  2  0  0  0  0
 24 25  1  0  0  0  0
 26 27  1  0  0  0  0
 26 25  2  0  0  0  0
 27 28  1  0  0  0  0
 28 33  1  0  0  0  0
 28 21  1  0  0  0  0
 29 27  2  0  0  0  0
 30 29  1  0  0  0  0
 31 30  2  0  0  0  0
 31 32  1  0  0  0  0
 32 26  1  0  0  0  0
 34 38  1  0  0  0  0
 35 34  1  0  0  0  0
 35 22  1  0  0  0  0
 36 35  2  0  0  0  0
 37 34  1  0  0  0  0
M  END
>  <minimizedAffinity>
35.7194023

$$$$
