
 OpenBabel11232420463D

 42 48  0  0  1  0  0  0  0  0999 V2000
  -18.3020   21.9250   10.5780 C   0  0  0  0  0  0  0  0  0  0  0  0
  -18.3830   23.1460   11.2340 N   0  0  0  0  0  0  0  0  0  0  0  0
  -17.6310   23.9730   10.5490 C   0  0  0  0  0  0  0  0  0  0  0  0
  -17.0140   23.3280    9.5180 N   0  0  0  0  0  0  0  0  0  0  0  0
  -17.4820   22.0330    9.4570 C   0  0  0  0  0  0  0  0  0  0  0  0
  -16.1880   24.0420    8.5610 C   0  0  0  0  0  2  0  0  0  0  0  0
  -15.6100   25.2520    9.0990 O   0  0  0  0  0  0  0  0  0  0  0  0
  -16.4180   25.9840    9.9340 C   0  0  0  0  0  0  0  0  0  0  0  0
  -16.1660   27.3480   10.0380 C   0  0  0  0  0  3  0  0  0  0  0  0
  -16.9700   28.1380   10.8670 C   0  0  0  0  0  3  0  0  0  0  0  0
  -18.0130   27.5670   11.6140 C   0  0  0  0  0  0  0  0  0  0  0  0
  -18.2190   26.1820   11.5400 C   0  0  0  0  0  3  0  0  0  0  0  0
  -17.4270   25.3960   10.7000 C   0  0  0  0  0  0  0  0  0  0  0  0
  -18.8890   28.3920   12.4400 C   0  0  0  0  0  0  0  0  0  0  0  0
  -18.6210   29.4350   13.3070 C   0  0  0  0  0  3  0  0  0  0  0  0
  -19.8650   29.8030   13.8460 C   0  0  0  0  0  3  0  0  0  0  0  0
  -20.8610   29.0500   13.3770 N   0  0  0  0  0  0  0  0  0  0  0  0
  -20.2470   28.2070   12.5300 N   0  0  0  0  0  0  0  0  0  0  0  0
  -20.8120   27.5090   12.0590 H   0  0  0  0  0  0  0  0  0  0  0  0
  -20.4870   18.4060   11.9400 C   0  0  0  0  0  0  0  0  0  0  0  0
  -19.7060   18.4310   10.7640 C   0  0  0  0  0  3  0  0  0  0  0  0
  -19.0150   19.5790   10.3430 C   0  0  0  0  0  3  0  0  0  0  0  0
  -19.0790   20.7810   11.0570 C   0  0  0  0  0  0  0  0  0  0  0  0
  -19.8900   20.7990   12.1890 C   0  0  0  0  0  3  0  0  0  0  0  0
  -20.5650   19.6420   12.6160 C   0  0  0  0  0  3  0  0  0  0  0  0
  -22.2550   15.7020   15.4690 C   0  0  0  0  0  1  0  0  0  0  0  0
  -21.6080   16.7870   14.6180 C   0  0  1  0  0  0  0  0  0  0  0  0
  -20.5720   16.2410   13.6030 C   0  0  0  0  0  2  0  0  0  0  0  0
  -21.2420   17.0920   12.4850 C   0  0  1  0  0  0  0  0  0  0  0  0
  -22.4640   17.2850   13.4260 C   0  0  0  0  0  2  0  0  0  0  0  0
  -21.5880   16.2160   11.3340 N   0  0  0  0  0  4  0  0  0  0  0  0
  -22.3030   16.6480   10.7360 H   0  0  0  0  0  0  0  0  0  0  0  0
  -20.7590   16.0420   10.7500 H   0  0  0  0  0  0  0  0  0  0  0  0
  -21.9530   15.3000   11.6230 H   0  0  0  0  0  0  0  0  0  0  0  0
  -21.0970   17.8280   15.4700 O   0  0  0  0  0  0  0  0  0  0  0  0
  -21.8200   18.0830   16.0750 H   0  0  0  0  0  0  0  0  0  0  0  0
  -17.1760   21.1490    8.3430 C   0  0  0  0  0  0  0  0  0  0  0  0
  -16.1050   20.2510    8.4140 C   0  0  0  0  0  3  0  0  0  0  0  0
  -15.8120   19.4270    7.3270 C   0  0  0  0  0  3  0  0  0  0  0  0
  -16.5840   19.4970    6.1670 C   0  0  0  0  0  3  0  0  0  0  0  0
  -17.6520   20.3890    6.0900 C   0  0  0  0  0  3  0  0  0  0  0  0
  -17.9460   21.2160    7.1750 C   0  0  0  0  0  3  0  0  0  0  0  0
  1 23  1  0  0  0  0
  1  2  1  0  0  0  0
  3 13  1  0  0  0  0
  3  2  2  0  0  0  0
  4  3  1  0  0  0  0
  5  4  1  0  0  0  0
  5  1  2  0  0  0  0
  6  7  1  0  0  0  0
  6  4  1  0  0  0  0
  7  8  1  0  0  0  0
  8  9  2  0  0  0  0
  8 13  1  0  0  0  0
  9 10  1  0  0  0  0
 10 11  2  0  0  0  0
 11 14  1  0  0  0  0
 12 11  1  0  0  0  0
 13 12  2  0  0  0  0
 14 18  1  0  0  0  0
 14 15  2  0  0  0  0
 15 16  1  0  0  0  0
 17 16  2  0  0  0  0
 18 17  1  0  0  0  0
 19 18  1  0  0  0  0
 20 29  1  0  0  0  0
 20 25  1  0  0  0  0
 21 20  2  0  0  0  0
 22 21  1  0  0  0  0
 22 23  2  0  0  0  0
 23 24  1  0  0  0  0
 24 25  2  0  0  0  0
 27 26  1  1  0  0  0
 27 35  1  0  0  0  0
 28 27  1  0  0  0  0
 29 31  1  6  0  0  0
 29 30  1  0  0  0  0
 29 28  1  0  0  0  0
 30 27  1  0  0  0  0
 31 34  1  0  0  0  0
 32 31  1  0  0  0  0
 33 31  1  0  0  0  0
 35 36  1  0  0  0  0
 37 38  1  0  0  0  0
 37  5  1  0  0  0  0
 39 38  2  0  0  0  0
 40 39  1  0  0  0  0
 41 40  2  0  0  0  0
 41 42  1  0  0  0  0
 42 37  2  0  0  0  0
M  END
>  <minimizedAffinity>
-12.2143068

$$$$
