
 OpenBabel11232420463D

 42 48  0  0  1  0  0  0  0  0999 V2000
  -17.5170   31.0820   11.6670 C   0  0  0  0  0  0  0  0  0  0  0  0
  -18.1720   31.8950   12.5810 N   0  0  0  0  0  0  0  0  0  0  0  0
  -19.1020   31.1480   13.1270 C   0  0  0  0  0  0  0  0  0  0  0  0
  -19.1210   29.9070   12.5610 N   0  0  0  0  0  0  0  0  0  0  0  0
  -18.0680   29.8030   11.6780 C   0  0  0  0  0  0  0  0  0  0  0  0
  -20.0080   28.8660   13.0450 C   0  0  0  0  0  2  0  0  0  0  0  0
  -21.1970   29.3820   13.6840 O   0  0  0  0  0  0  0  0  0  0  0  0
  -21.0240   30.5010   14.4610 C   0  0  0  0  0  0  0  0  0  0  0  0
  -21.9350   30.7170   15.4880 C   0  0  0  0  0  3  0  0  0  0  0  0
  -21.7940   31.8370   16.3140 C   0  0  0  0  0  3  0  0  0  0  0  0
  -20.7570   32.7600   16.1030 C   0  0  0  0  0  0  0  0  0  0  0  0
  -19.8780   32.5580   15.0290 C   0  0  0  0  0  3  0  0  0  0  0  0
  -20.0100   31.4300   14.2150 C   0  0  0  0  0  0  0  0  0  0  0  0
  -20.5710   33.9030   16.9920 C   0  0  0  0  0  0  0  0  0  0  0  0
  -21.2750   34.3280   18.1020 C   0  0  0  0  0  3  0  0  0  0  0  0
  -20.6480   35.5170   18.5110 C   0  0  0  0  0  3  0  0  0  0  0  0
  -19.6260   35.8460   17.7210 N   0  0  0  0  0  0  0  0  0  0  0  0
  -19.5990   34.8570   16.8120 N   0  0  0  0  0  0  0  0  0  0  0  0
  -18.9020   34.9030   16.0770 H   0  0  0  0  0  0  0  0  0  0  0  0
  -14.0160   32.4610    9.4630 C   0  0  0  0  0  0  0  0  0  0  0  0
  -13.9410   31.6560   10.6210 C   0  0  0  0  0  3  0  0  0  0  0  0
  -15.0830   31.2290   11.3170 C   0  0  0  0  0  3  0  0  0  0  0  0
  -16.3720   31.5970   10.9150 C   0  0  0  0  0  0  0  0  0  0  0  0
  -16.4700   32.4400    9.8110 C   0  0  0  0  0  3  0  0  0  0  0  0
  -15.3250   32.8500    9.1060 C   0  0  0  0  0  3  0  0  0  0  0  0
  -10.4000   31.5710    6.4610 C   0  0  0  0  0  1  0  0  0  0  0  0
  -11.6240   31.5030    7.3630 C   0  0  1  0  0  0  0  0  0  0  0  0
  -11.3970   32.1330    8.7610 C   0  0  0  0  0  2  0  0  0  0  0  0
  -12.7320   32.9190    8.6060 C   0  0  1  0  0  0  0  0  0  0  0  0
  -12.7030   32.5800    7.0890 C   0  0  0  0  0  2  0  0  0  0  0  0
  -12.4850   34.3680    8.8340 N   0  0  0  0  0  4  0  0  0  0  0  0
  -13.2340   34.9440    8.4310 H   0  0  0  0  0  0  0  0  0  0  0  0
  -12.4430   34.5730    9.8410 H   0  0  0  0  0  0  0  0  0  0  0  0
  -11.6020   34.6940    8.4210 H   0  0  0  0  0  0  0  0  0  0  0  0
  -12.1170   30.1520    7.4070 O   0  0  0  0  0  0  0  0  0  0  0  0
  -12.2070   29.8510    6.4820 H   0  0  0  0  0  0  0  0  0  0  0  0
  -17.6890   28.5370   11.0690 C   0  0  0  0  0  0  0  0  0  0  0  0
  -16.4460   27.9550   11.3400 C   0  0  0  0  0  3  0  0  0  0  0  0
  -16.0890   26.7530   10.7280 C   0  0  0  0  0  3  0  0  0  0  0  0
  -16.9700   26.1290    9.8440 C   0  0  0  0  0  3  0  0  0  0  0  0
  -18.2090   26.7040    9.5700 C   0  0  0  0  0  3  0  0  0  0  0  0
  -18.5680   27.9070   10.1790 C   0  0  0  0  0  3  0  0  0  0  0  0
  1  5  2  0  0  0  0
  1  2  1  0  0  0  0
  2  3  2  0  0  0  0
  3 13  1  0  0  0  0
  4  6  1  0  0  0  0
  4  3  1  0  0  0  0
  5  4  1  0  0  0  0
  6  7  1  0  0  0  0
  7  8  1  0  0  0  0
  8  9  1  0  0  0  0
  9 10  2  0  0  0  0
 11 10  1  0  0  0  0
 11 14  1  0  0  0  0
 12 11  2  0  0  0  0
 13  8  2  0  0  0  0
 13 12  1  0  0  0  0
 14 15  2  0  0  0  0
 15 16  1  0  0  0  0
 17 16  2  0  0  0  0
 18 14  1  0  0  0  0
 18 17  1  0  0  0  0
 19 18  1  0  0  0  0
 20 21  1  0  0  0  0
 21 22  2  0  0  0  0
 23 22  1  0  0  0  0
 23  1  1  0  0  0  0
 24 23  2  0  0  0  0
 25 20  2  0  0  0  0
 25 24  1  0  0  0  0
 27 26  1  6  0  0  0
 27 35  1  0  0  0  0
 27 28  1  0  0  0  0
 29 28  1  0  0  0  0
 29 31  1  1  0  0  0
 29 20  1  0  0  0  0
 30 27  1  0  0  0  0
 30 29  1  0  0  0  0
 31 33  1  0  0  0  0
 32 31  1  0  0  0  0
 34 31  1  0  0  0  0
 36 35  1  0  0  0  0
 37 38  1  0  0  0  0
 37  5  1  0  0  0  0
 39 38  2  0  0  0  0
 40 39  1  0  0  0  0
 41 40  2  0  0  0  0
 41 42  1  0  0  0  0
 42 37  2  0  0  0  0
M  END
>  <minimizedAffinity>
-10.6185532

$$$$
