
 OpenBabel11232420463D

 42 48  0  0  1  0  0  0  0  0999 V2000
  -19.7370   20.7630   11.2270 C   0  0  0  0  0  0  0  0  0  0  0  0
  -20.3830   20.1700   12.3030 N   0  0  0  0  0  0  0  0  0  0  0  0
  -20.2320   18.8770   12.1470 C   0  0  0  0  0  0  0  0  0  0  0  0
  -19.5740   18.6020   10.9840 N   0  0  0  0  0  0  0  0  0  0  0  0
  -19.1720   19.7870   10.4080 C   0  0  0  0  0  0  0  0  0  0  0  0
  -19.2120   17.2450   10.6190 C   0  0  0  0  0  2  0  0  0  0  0  0
  -20.0750   16.2470   11.2090 O   0  0  0  0  0  0  0  0  0  0  0  0
  -20.4770   16.4880   12.4990 C   0  0  0  0  0  0  0  0  0  0  0  0
  -20.8200   15.3900   13.2810 C   0  0  0  0  0  3  0  0  0  0  0  0
  -21.2240   15.5830   14.6060 C   0  0  0  0  0  3  0  0  0  0  0  0
  -21.3120   16.8750   15.1500 C   0  0  0  0  0  0  0  0  0  0  0  0
  -21.0160   17.9750   14.3330 C   0  0  0  0  0  3  0  0  0  0  0  0
  -20.5970   17.7810   13.0150 C   0  0  0  0  0  0  0  0  0  0  0  0
  -21.6830   17.0820   16.5470 C   0  0  0  0  0  0  0  0  0  0  0  0
  -22.7660   16.6430   17.2850 C   0  0  0  0  0  3  0  0  0  0  0  0
  -22.5980   17.2010   18.5630 C   0  0  0  0  0  3  0  0  0  0  0  0
  -21.5010   17.9530   18.6460 N   0  0  0  0  0  0  0  0  0  0  0  0
  -20.9650   17.8660   17.4170 N   0  0  0  0  0  0  0  0  0  0  0  0
  -20.1160   18.3860   17.2280 H   0  0  0  0  0  0  0  0  0  0  0  0
  -19.3700   25.1020   11.0150 C   0  0  0  0  0  0  0  0  0  0  0  0
  -18.9440   24.3370   12.1230 C   0  0  0  0  0  3  0  0  0  0  0  0
  -19.0770   22.9400   12.1690 C   0  0  0  0  0  3  0  0  0  0  0  0
  -19.6660   22.2210   11.1240 C   0  0  0  0  0  0  0  0  0  0  0  0
  -20.1490   22.9580   10.0460 C   0  0  0  0  0  3  0  0  0  0  0  0
  -19.9970   24.3550    9.9960 C   0  0  0  0  0  3  0  0  0  0  0  0
  -16.6680   29.0490   11.0570 C   0  0  0  0  0  1  0  0  0  0  0  0
  -17.2090   27.6270   11.0940 C   0  0  1  0  0  0  0  0  0  0  0  0
  -18.4270   27.4540   12.0360 C   0  0  0  0  0  2  0  0  0  0  0  0
  -19.1780   26.6970   10.9010 C   0  0  1  0  0  0  0  0  0  0  0  0
  -18.1190   27.2400    9.9010 C   0  0  0  0  0  2  0  0  0  0  0  0
  -20.5030   27.3330   10.6730 N   0  0  0  0  0  4  0  0  0  0  0  0
  -20.8810   27.0910    9.7480 H   0  0  0  0  0  0  0  0  0  0  0  0
  -21.1820   27.0170   11.3780 H   0  0  0  0  0  0  0  0  0  0  0  0
  -20.4700   28.3590   10.7230 H   0  0  0  0  0  0  0  0  0  0  0  0
  -16.1340   26.7080   11.3560 O   0  0  0  0  0  0  0  0  0  0  0  0
  -15.4200   26.9150   10.7230 H   0  0  0  0  0  0  0  0  0  0  0  0
  -18.2680   19.8280    9.2680 C   0  0  0  0  0  0  0  0  0  0  0  0
  -17.3370   20.8640    9.1290 C   0  0  0  0  0  3  0  0  0  0  0  0
  -16.4950   20.9010    8.0170 C   0  0  0  0  0  3  0  0  0  0  0  0
  -16.5780   19.9060    7.0420 C   0  0  0  0  0  3  0  0  0  0  0  0
  -17.5030   18.8730    7.1750 C   0  0  0  0  0  3  0  0  0  0  0  0
  -18.3480   18.8350    8.2850 C   0  0  0  0  0  3  0  0  0  0  0  0
  1  2  1  0  0  0  0
  3  2  2  0  0  0  0
  3 13  1  0  0  0  0
  4  3  1  0  0  0  0
  5  4  1  0  0  0  0
  5  1  2  0  0  0  0
  6  4  1  0  0  0  0
  6  7  1  0  0  0  0
  7  8  1  0  0  0  0
  8 13  2  0  0  0  0
  8  9  1  0  0  0  0
  9 10  2  0  0  0  0
 10 11  1  0  0  0  0
 11 14  1  0  0  0  0
 12 11  2  0  0  0  0
 13 12  1  0  0  0  0
 14 15  2  0  0  0  0
 14 18  1  0  0  0  0
 15 16  1  0  0  0  0
 16 17  2  0  0  0  0
 18 17  1  0  0  0  0
 19 18  1  0  0  0  0
 20 21  1  0  0  0  0
 21 22  2  0  0  0  0
 23  1  1  0  0  0  0
 23 22  1  0  0  0  0
 24 23  2  0  0  0  0
 25 24  1  0  0  0  0
 25 20  2  0  0  0  0
 27 26  1  6  0  0  0
 27 35  1  0  0  0  0
 27 28  1  0  0  0  0
 29 31  1  6  0  0  0
 29 20  1  0  0  0  0
 29 28  1  0  0  0  0
 30 29  1  0  0  0  0
 30 27  1  0  0  0  0
 31 34  1  0  0  0  0
 31 33  1  0  0  0  0
 32 31  1  0  0  0  0
 36 35  1  0  0  0  0
 37  5  1  0  0  0  0
 38 37  1  0  0  0  0
 39 38  2  0  0  0  0
 40 41  2  0  0  0  0
 40 39  1  0  0  0  0
 41 42  1  0  0  0  0
 42 37  2  0  0  0  0
M  END
>  <minimizedAffinity>
-12.3688917

$$$$
