
 OpenBabel11232420463D

 42 48  0  0  1  0  0  0  0  0999 V2000
  -20.6890   17.2070   14.4840 C   0  0  0  0  0  0  0  0  0  0  0  0
  -20.2010   17.7690   13.3120 N   0  0  0  0  0  0  0  0  0  0  0  0
  -20.8370   18.9060   13.1650 C   0  0  0  0  0  0  0  0  0  0  0  0
  -21.7620   19.0760   14.1530 N   0  0  0  0  0  0  0  0  0  0  0  0
  -21.6400   18.0460   15.0600 C   0  0  0  0  0  0  0  0  0  0  0  0
  -22.5440   20.2940   14.2600 C   0  0  0  0  0  2  0  0  0  0  0  0
  -22.7080   20.9780   12.9980 O   0  0  0  0  0  0  0  0  0  0  0  0
  -21.6140   20.9790   12.1680 C   0  0  0  0  0  0  0  0  0  0  0  0
  -21.5050   22.0170   11.2500 C   0  0  0  0  0  3  0  0  0  0  0  0
  -20.4020   22.0690   10.3910 C   0  0  0  0  0  3  0  0  0  0  0  0
  -19.4150   21.0700   10.4280 C   0  0  0  0  0  0  0  0  0  0  0  0
  -19.5670   20.0000   11.3220 C   0  0  0  0  0  3  0  0  0  0  0  0
  -20.6600   19.9590   12.1910 C   0  0  0  0  0  0  0  0  0  0  0  0
  -18.2350   21.1430    9.5720 C   0  0  0  0  0  0  0  0  0  0  0  0
  -17.5330   22.2200    9.0630 C   0  0  0  0  0  3  0  0  0  0  0  0
  -16.5160   21.6620    8.2690 C   0  0  0  0  0  3  0  0  0  0  0  0
  -16.5620   20.3300    8.2520 N   0  0  0  0  0  0  0  0  0  0  0  0
  -17.6070   20.0400    9.0460 N   0  0  0  0  0  0  0  0  0  0  0  0
  -17.8550   19.0650    9.1710 H   0  0  0  0  0  0  0  0  0  0  0  0
  -18.9220   13.5330   16.0290 C   0  0  0  0  0  0  0  0  0  0  0  0
  -18.1630   14.6520   15.6230 C   0  0  0  0  0  3  0  0  0  0  0  0
  -18.7550   15.8230   15.1230 C   0  0  0  0  0  3  0  0  0  0  0  0
  -20.1410   15.9430   14.9760 C   0  0  0  0  0  0  0  0  0  0  0  0
  -20.9090   14.8310   15.3130 C   0  0  0  0  0  3  0  0  0  0  0  0
  -20.3130   13.6670   15.8300 C   0  0  0  0  0  3  0  0  0  0  0  0
  -19.1260    9.6680   18.8420 C   0  0  0  0  0  1  0  0  0  0  0  0
  -19.4020   10.9460   18.0610 C   0  0  1  0  0  0  0  0  0  0  0  0
  -18.2890   12.0140   18.2090 C   0  0  0  0  0  2  0  0  0  0  0  0
  -18.2820   12.1980   16.6630 C   0  0  1  0  0  0  0  0  0  0  0  0
  -19.0830   10.8720   16.5460 C   0  0  0  0  0  2  0  0  0  0  0  0
  -16.8960   12.0310   16.1500 N   0  0  0  0  0  4  0  0  0  0  0  0
  -16.8910   11.8200   15.1440 H   0  0  0  0  0  0  0  0  0  0  0  0
  -16.3520   12.8940   16.2880 H   0  0  0  0  0  0  0  0  0  0  0  0
  -16.3840   11.2730   16.6170 H   0  0  0  0  0  0  0  0  0  0  0  0
  -20.7200   11.4300   18.3770 O   0  0  0  0  0  0  0  0  0  0  0  0
  -21.3330   10.6780   18.2680 H   0  0  0  0  0  0  0  0  0  0  0  0
  -22.3410   18.0490   16.3360 C   0  0  0  0  0  0  0  0  0  0  0  0
  -23.6310   17.5180   16.4460 C   0  0  0  0  0  3  0  0  0  0  0  0
  -24.2970   17.5510   17.6710 C   0  0  0  0  0  3  0  0  0  0  0  0
  -23.6790   18.1120   18.7900 C   0  0  0  0  0  3  0  0  0  0  0  0
  -22.3940   18.6420   18.6860 C   0  0  0  0  0  3  0  0  0  0  0  0
  -21.7270   18.6130   17.4610 C   0  0  0  0  0  3  0  0  0  0  0  0
  1 23  1  0  0  0  0
  1  5  2  0  0  0  0
  2  1  1  0  0  0  0
  3  2  2  0  0  0  0
  3  4  1  0  0  0  0
  4  6  1  0  0  0  0
  4  5  1  0  0  0  0
  5 37  1  0  0  0  0
  7  6  1  0  0  0  0
  8 13  1  0  0  0  0
  8  7  1  0  0  0  0
  9  8  2  0  0  0  0
 10 11  2  0  0  0  0
 10  9  1  0  0  0  0
 11 12  1  0  0  0  0
 12 13  2  0  0  0  0
 13  3  1  0  0  0  0
 14 11  1  0  0  0  0
 15 14  2  0  0  0  0
 16 15  1  0  0  0  0
 17 16  2  0  0  0  0
 17 18  1  0  0  0  0
 18 19  1  0  0  0  0
 18 14  1  0  0  0  0
 20 29  1  0  0  0  0
 21 20  2  0  0  0  0
 22 21  1  0  0  0  0
 23 22  2  0  0  0  0
 23 24  1  0  0  0  0
 24 25  2  0  0  0  0
 25 20  1  0  0  0  0
 27 28  1  0  0  0  0
 27 35  1  0  0  0  0
 27 26  1  1  0  0  0
 29 31  1  6  0  0  0
 29 28  1  0  0  0  0
 30 29  1  0  0  0  0
 30 27  1  0  0  0  0
 31 33  1  0  0  0  0
 31 34  1  0  0  0  0
 32 31  1  0  0  0  0
 36 35  1  0  0  0  0
 37 38  2  0  0  0  0
 37 42  1  0  0  0  0
 38 39  1  0  0  0  0
 39 40  2  0  0  0  0
 41 40  1  0  0  0  0
 42 41  2  0  0  0  0
M  END
>  <minimizedAffinity>
-11.7016191

$$$$
