
 OpenBabel11232420463D

 42 48  0  0  1  0  0  0  0  0999 V2000
  -22.4190   17.7610   14.2140 C   0  0  0  0  0  0  0  0  0  0  0  0
  -22.7690   16.6370   13.4780 N   0  0  0  0  0  0  0  0  0  0  0  0
  -23.1970   15.7550   14.3500 C   0  0  0  0  0  0  0  0  0  0  0  0
  -23.0780   16.2330   15.6220 N   0  0  0  0  0  0  0  0  0  0  0  0
  -22.6580   17.5440   15.5690 C   0  0  0  0  0  0  0  0  0  0  0  0
  -23.5580   15.4770   16.7640 C   0  0  0  0  0  2  0  0  0  0  0  0
  -23.5860   14.0510   16.5320 O   0  0  0  0  0  0  0  0  0  0  0  0
  -23.9810   13.6540   15.2780 C   0  0  0  0  0  0  0  0  0  0  0  0
  -24.5400   12.3870   15.1520 C   0  0  0  0  0  3  0  0  0  0  0  0
  -24.9680   11.9420   13.8970 C   0  0  0  0  0  3  0  0  0  0  0  0
  -24.8190   12.7500   12.7580 C   0  0  0  0  0  0  0  0  0  0  0  0
  -24.2030   14.0020   12.8920 C   0  0  0  0  0  3  0  0  0  0  0  0
  -23.7900   14.4530   14.1480 C   0  0  0  0  0  0  0  0  0  0  0  0
  -25.3090   12.3150   11.4540 C   0  0  0  0  0  0  0  0  0  0  0  0
  -24.7020   11.6110   10.4310 C   0  0  0  0  0  3  0  0  0  0  0  0
  -25.6630   11.5330    9.4090 C   0  0  0  0  0  3  0  0  0  0  0  0
  -26.8000   12.1470    9.7360 N   0  0  0  0  0  0  0  0  0  0  0  0
  -26.5620   12.6110   10.9750 N   0  0  0  0  0  0  0  0  0  0  0  0
  -27.2930   13.1440   11.4330 H   0  0  0  0  0  0  0  0  0  0  0  0
  -20.9210   21.2500   12.0700 C   0  0  0  0  0  0  0  0  0  0  0  0
  -20.1640   20.0750   12.2730 C   0  0  0  0  0  3  0  0  0  0  0  0
  -20.6670   18.9660   12.9720 C   0  0  0  0  0  3  0  0  0  0  0  0
  -21.9490   18.9680   13.5320 C   0  0  0  0  0  0  0  0  0  0  0  0
  -22.6940   20.1360   13.3970 C   0  0  0  0  0  3  0  0  0  0  0  0
  -22.1930   21.2370   12.6810 C   0  0  0  0  0  3  0  0  0  0  0  0
  -18.2660   25.1970   11.5650 C   0  0  0  0  0  1  0  0  0  0  0  0
  -18.9510   23.9270   12.0500 C   0  0  1  0  0  0  0  0  0  0  0  0
  -20.4870   23.9370   11.8510 C   0  0  0  0  0  2  0  0  0  0  0  0
  -20.4000   22.5160   11.2220 C   0  0  1  0  0  0  0  0  0  0  0  0
  -18.8660   22.7230   11.0790 C   0  0  0  0  0  2  0  0  0  0  0  0
  -21.0650   22.5200    9.8920 N   0  0  0  0  0  4  0  0  0  0  0  0
  -20.7560   21.7270    9.3150 H   0  0  0  0  0  0  0  0  0  0  0  0
  -22.0860   22.4460    9.9980 H   0  0  0  0  0  0  0  0  0  0  0  0
  -20.8780   23.3730    9.3520 H   0  0  0  0  0  0  0  0  0  0  0  0
  -18.5400   23.6430   13.4000 O   0  0  0  0  0  0  0  0  0  0  0  0
  -17.5650   23.6790   13.4150 H   0  0  0  0  0  0  0  0  0  0  0  0
  -22.6350   18.3990   16.7460 C   0  0  0  0  0  0  0  0  0  0  0  0
  -21.4900   18.4870   17.5460 C   0  0  0  0  0  3  0  0  0  0  0  0
  -21.4930   19.2930   18.6840 C   0  0  0  0  0  3  0  0  0  0  0  0
  -22.6380   20.0140   19.0290 C   0  0  0  0  0  3  0  0  0  0  0  0
  -23.7810   19.9300   18.2360 C   0  0  0  0  0  3  0  0  0  0  0  0
  -23.7810   19.1230   17.0990 C   0  0  0  0  0  3  0  0  0  0  0  0
  1  5  2  0  0  0  0
  2  1  1  0  0  0  0
  2  3  2  0  0  0  0
  3  4  1  0  0  0  0
  4  6  1  0  0  0  0
  5  4  1  0  0  0  0
  5 37  1  0  0  0  0
  7  6  1  0  0  0  0
  8  7  1  0  0  0  0
  9  8  1  0  0  0  0
 10  9  2  0  0  0  0
 11 12  2  0  0  0  0
 11 10  1  0  0  0  0
 12 13  1  0  0  0  0
 13  3  1  0  0  0  0
 13  8  2  0  0  0  0
 14 11  1  0  0  0  0
 15 14  2  0  0  0  0
 16 17  2  0  0  0  0
 16 15  1  0  0  0  0
 17 18  1  0  0  0  0
 18 19  1  0  0  0  0
 18 14  1  0  0  0  0
 20 21  2  0  0  0  0
 20 25  1  0  0  0  0
 21 22  1  0  0  0  0
 22 23  2  0  0  0  0
 23  1  1  0  0  0  0
 24 23  1  0  0  0  0
 25 24  2  0  0  0  0
 27 26  1  6  0  0  0
 27 35  1  0  0  0  0
 28 27  1  0  0  0  0
 29 31  1  6  0  0  0
 29 28  1  0  0  0  0
 29 20  1  0  0  0  0
 30 29  1  0  0  0  0
 30 27  1  0  0  0  0
 31 33  1  0  0  0  0
 32 31  1  0  0  0  0
 34 31  1  0  0  0  0
 35 36  1  0  0  0  0
 37 42  2  0  0  0  0
 37 38  1  0  0  0  0
 38 39  2  0  0  0  0
 39 40  1  0  0  0  0
 41 40  2  0  0  0  0
 42 41  1  0  0  0  0
M  END
>  <minimizedAffinity>
-11.3392391

$$$$
