
 OpenBabel11232420463D

 42 48  0  0  1  0  0  0  0  0999 V2000
  -18.8450   25.0460   11.1890 C   0  0  0  0  0  0  0  0  0  0  0  0
  -19.6440   24.0200   11.6750 N   0  0  0  0  0  0  0  0  0  0  0  0
  -19.2490   22.9330   11.0570 C   0  0  0  0  0  0  0  0  0  0  0  0
  -18.2760   23.2190   10.1460 N   0  0  0  0  0  0  0  0  0  0  0  0
  -17.9350   24.5490   10.2590 C   0  0  0  0  0  0  0  0  0  0  0  0
  -17.6140   22.1730    9.3880 C   0  0  0  0  0  2  0  0  0  0  0  0
  -18.4270   20.9890    9.2220 O   0  0  0  0  0  0  0  0  0  0  0  0
  -19.1860   20.6250   10.3070 C   0  0  0  0  0  0  0  0  0  0  0  0
  -19.5360   19.2850   10.4250 C   0  0  0  0  0  3  0  0  0  0  0  0
  -20.2990   18.8620   11.5190 C   0  0  0  0  0  3  0  0  0  0  0  0
  -20.7350   19.7800   12.4890 C   0  0  0  0  0  0  0  0  0  0  0  0
  -20.4200   21.1370   12.3270 C   0  0  0  0  0  3  0  0  0  0  0  0
  -19.6450   21.5550   11.2430 C   0  0  0  0  0  0  0  0  0  0  0  0
  -21.4860   19.3400   13.6610 C   0  0  0  0  0  0  0  0  0  0  0  0
  -22.6510   19.8110   14.2360 C   0  0  0  0  0  3  0  0  0  0  0  0
  -22.8590   19.0090   15.3710 C   0  0  0  0  0  3  0  0  0  0  0  0
  -21.8990   18.0980   15.5280 N   0  0  0  0  0  0  0  0  0  0  0  0
  -21.0820   18.3170   14.4840 N   0  0  0  0  0  0  0  0  0  0  0  0
  -20.2490   17.7450   14.4010 H   0  0  0  0  0  0  0  0  0  0  0  0
  -19.4190   29.0300   12.8660 C   0  0  0  0  0  0  0  0  0  0  0  0
  -20.4820   28.1500   12.5660 C   0  0  0  0  0  3  0  0  0  0  0  0
  -20.2720   26.8730   12.0220 C   0  0  0  0  0  3  0  0  0  0  0  0
  -18.9890   26.4030   11.7190 C   0  0  0  0  0  0  0  0  0  0  0  0
  -17.9280   27.2740   11.9500 C   0  0  0  0  0  3  0  0  0  0  0  0
  -18.1420   28.5450   12.5120 C   0  0  0  0  0  3  0  0  0  0  0  0
  -21.7680   32.0790   15.7070 C   0  0  0  0  0  1  0  0  0  0  0  0
  -21.2740   30.8760   14.9160 C   0  0  1  0  0  0  0  0  0  0  0  0
  -20.9970   31.1890   13.4240 C   0  0  0  0  0  2  0  0  0  0  0  0
  -19.6180   30.4760   13.5460 C   0  0  1  0  0  0  0  0  0  0  0  0
  -19.7700   30.5460   15.0920 C   0  0  0  0  0  2  0  0  0  0  0  0
  -18.5430   31.3900   13.0750 N   0  0  0  0  0  4  0  0  0  0  0  0
  -17.6230   31.1030   13.4330 H   0  0  0  0  0  0  0  0  0  0  0  0
  -18.4900   31.3860   12.0470 H   0  0  0  0  0  0  0  0  0  0  0  0
  -18.6870   32.3640   13.3670 H   0  0  0  0  0  0  0  0  0  0  0  0
  -22.1640   29.7640   15.1220 O   0  0  0  0  0  0  0  0  0  0  0  0
  -22.2810   29.6680   16.0870 H   0  0  0  0  0  0  0  0  0  0  0  0
  -16.7850   25.1170    9.5730 C   0  0  0  0  0  0  0  0  0  0  0  0
  -15.4840   24.8480   10.0120 C   0  0  0  0  0  3  0  0  0  0  0  0
  -14.3930   25.4200    9.3570 C   0  0  0  0  0  3  0  0  0  0  0  0
  -14.5960   26.2620    8.2630 C   0  0  0  0  0  3  0  0  0  0  0  0
  -15.8890   26.5330    7.8200 C   0  0  0  0  0  3  0  0  0  0  0  0
  -16.9820   25.9640    8.4750 C   0  0  0  0  0  3  0  0  0  0  0  0
  1  2  1  0  0  0  0
  1 23  1  0  0  0  0
  3 13  1  0  0  0  0
  3  2  2  0  0  0  0
  4  5  1  0  0  0  0
  4  3  1  0  0  0  0
  5  1  2  0  0  0  0
  6  4  1  0  0  0  0
  7  6  1  0  0  0  0
  7  8  1  0  0  0  0
  8  9  2  0  0  0  0
  8 13  1  0  0  0  0
  9 10  1  0  0  0  0
 10 11  2  0  0  0  0
 11 14  1  0  0  0  0
 12 11  1  0  0  0  0
 13 12  2  0  0  0  0
 14 15  2  0  0  0  0
 14 18  1  0  0  0  0
 15 16  1  0  0  0  0
 16 17  2  0  0  0  0
 18 17  1  0  0  0  0
 19 18  1  0  0  0  0
 20 29  1  0  0  0  0
 21 20  1  0  0  0  0
 22 21  2  0  0  0  0
 23 24  2  0  0  0  0
 23 22  1  0  0  0  0
 24 25  1  0  0  0  0
 25 20  2  0  0  0  0
 27 30  1  0  0  0  0
 27 35  1  0  0  0  0
 27 26  1  1  0  0  0
 28 29  1  0  0  0  0
 28 27  1  0  0  0  0
 29 31  1  6  0  0  0
 29 30  1  0  0  0  0
 31 34  1  0  0  0  0
 31 32  1  0  0  0  0
 33 31  1  0  0  0  0
 35 36  1  0  0  0  0
 37 38  1  0  0  0  0
 37  5  1  0  0  0  0
 39 38  2  0  0  0  0
 40 39  1  0  0  0  0
 41 40  2  0  0  0  0
 41 42  1  0  0  0  0
 42 37  2  0  0  0  0
M  END
>  <minimizedAffinity>
-10.4803457

$$$$
