
 OpenBabel10152419523D

 36 39  0  0  0  0  0  0  0  0999 V2000
   -0.6350   -6.5970  -23.9950 C   0  0  0  0  0  2  0  0  0  0  0  0
   -1.4750  -11.9570  -21.1680 C   0  0  0  0  0  0  0  0  0  0  0  0
   -0.7220  -12.7930  -22.0060 C   0  0  0  0  0  3  0  0  0  0  0  0
   -0.0960  -12.2560  -23.1180 C   0  0  0  0  0  3  0  0  0  0  0  0
   -0.2190  -10.8930  -23.3690 C   0  0  0  0  0  3  0  0  0  0  0  0
   -0.9680  -10.0390  -22.5100 C   0  0  0  0  0  0  0  0  0  0  0  0
   -1.1000   -8.6460  -22.6930 C   0  0  0  0  0  0  0  0  0  0  0  0
   -0.4470   -8.0140  -23.7440 N   0  0  0  0  0  0  0  0  0  0  0  0
   -1.8630   -7.8950  -21.8840 N   0  0  0  0  0  0  0  0  0  0  0  0
   -2.4490   -8.5140  -20.8590 C   0  0  0  0  0  3  0  0  0  0  0  0
   -2.3430   -9.8100  -20.5600 N   0  0  0  0  0  0  0  0  0  0  0  0
   -1.6230  -10.5820  -21.3930 C   0  0  0  0  0  0  0  0  0  0  0  0
    0.4630   -8.3810  -23.9880 H   0  0  0  0  0  0  0  0  0  0  0  0
   -3.4730  -12.8450  -20.1720 N   0  0  0  0  0  0  0  0  0  0  0  0
   -2.1380  -12.5900  -20.0140 C   0  0  0  0  0  0  0  0  0  0  0  0
   -1.5510  -12.8110  -18.9660 O   0  0  0  0  0  0  0  0  0  0  0  0
   -3.9600  -13.2760  -19.3980 H   0  0  0  0  0  0  0  0  0  0  0  0
   -3.9700  -12.6850  -21.0370 H   0  0  0  0  0  0  0  0  0  0  0  0
   -0.3830   -6.3440  -25.4660 C   0  0  0  0  0  0  0  0  0  0  0  0
   -1.4370   -6.1750  -26.3650 C   0  0  0  0  0  3  0  0  0  0  0  0
   -1.1710   -6.0200  -27.7230 C   0  0  0  0  0  3  0  0  0  0  0  0
    0.1460   -6.0380  -28.1990 C   0  0  0  0  0  3  0  0  0  0  0  0
    1.2160   -6.1920  -27.3180 C   0  0  0  0  0  0  0  0  0  0  0  0
    0.9350   -6.3550  -25.9550 C   0  0  0  0  0  3  0  0  0  0  0  0
    2.5730   -6.2540  -27.6810 N   0  0  0  0  0  0  0  0  0  0  0  0
    3.5470   -7.2120  -27.5570 C   0  0  0  0  0  0  0  0  0  0  0  0
    4.7210   -6.9310  -27.7950 O   0  0  0  0  0  0  0  0  0  0  0  0
    2.9500   -5.4230  -28.1250 H   0  0  0  0  0  0  0  0  0  0  0  0
    3.2500   -8.5910  -27.1600 C   0  0  0  0  0  0  0  0  0  0  0  0
    2.7490   -8.7950  -25.8660 C   0  0  0  0  0  3  0  0  0  0  0  0
    2.4790  -10.0900  -25.4220 C   0  0  0  0  0  3  0  0  0  0  0  0
    2.7310  -11.1740  -26.2630 C   0  0  0  0  0  0  0  0  0  0  0  0
    2.3950  -12.7700  -25.7140 Cl  0  0  0  0  0  0  0  0  0  0  0  0
    3.2580  -10.9790  -27.5400 C   0  0  0  0  0  3  0  0  0  0  0  0
    3.5300   -9.6840  -27.9890 C   0  0  0  0  0  0  0  0  0  0  0  0
    4.2260   -9.5040  -29.5580 Cl  0  0  0  0  0  0  0  0  0  0  0  0
  1  8  1  0  0  0  0
  2 15  1  0  0  0  0
  3  2  2  0  0  0  0
  4  3  1  0  0  0  0
  5  4  2  0  0  0  0
  5  6  1  0  0  0  0
  6 12  1  0  0  0  0
  7  6  2  0  0  0  0
  7  9  1  0  0  0  0
  8  7  1  0  0  0  0
  9 10  2  0  0  0  0
 10 11  1  0  0  0  0
 12  2  1  0  0  0  0
 12 11  2  0  0  0  0
 13  8  1  0  0  0  0
 14 15  1  0  0  0  0
 14 17  1  0  0  0  0
 15 16  2  0  0  0  0
 18 14  1  0  0  0  0
 19  1  1  0  0  0  0
 20 19  2  0  0  0  0
 21 20  1  0  0  0  0
 22 21  2  0  0  0  0
 22 23  1  0  0  0  0
 23 24  2  0  0  0  0
 24 19  1  0  0  0  0
 25 26  1  0  0  0  0
 25 23  1  0  0  0  0
 26 29  1  0  0  0  0
 27 26  2  0  0  0  0
 28 25  1  0  0  0  0
 29 30  1  0  0  0  0
 30 31  2  0  0  0  0
 32 33  1  0  0  0  0
 32 31  1  0  0  0  0
 34 32  2  0  0  0  0
 35 34  1  0  0  0  0
 35 29  2  0  0  0  0
 36 35  1  0  0  0  0
M  END
>  <minimizedAffinity>
-9.76447964

$$$$
