
 OpenBabel10152419523D

 36 39  0  0  0  0  0  0  0  0999 V2000
   -1.6560   -6.3690  -26.4050 C   0  0  0  0  0  2  0  0  0  0  0  0
   -0.7750  -11.7390  -23.6090 C   0  0  0  0  0  0  0  0  0  0  0  0
   -0.3180  -12.5030  -24.6930 C   0  0  0  0  0  3  0  0  0  0  0  0
   -0.2270  -11.9220  -25.9450 C   0  0  0  0  0  3  0  0  0  0  0  0
   -0.5810  -10.5840  -26.0960 C   0  0  0  0  0  3  0  0  0  0  0  0
   -1.0280   -9.8010  -24.9940 C   0  0  0  0  0  0  0  0  0  0  0  0
   -1.3660   -8.4330  -25.0770 C   0  0  0  0  0  0  0  0  0  0  0  0
   -1.2370   -7.7530  -26.2810 N   0  0  0  0  0  0  0  0  0  0  0  0
   -1.8350   -7.7540  -24.0180 N   0  0  0  0  0  0  0  0  0  0  0  0
   -1.9140   -8.4150  -22.8630 C   0  0  0  0  0  3  0  0  0  0  0  0
   -1.5650   -9.6860  -22.6610 N   0  0  0  0  0  0  0  0  0  0  0  0
   -1.1430  -10.3910  -23.7240 C   0  0  0  0  0  0  0  0  0  0  0  0
   -0.4580   -8.0240  -26.8650 H   0  0  0  0  0  0  0  0  0  0  0  0
   -2.1080  -12.3840  -21.7170 N   0  0  0  0  0  0  0  0  0  0  0  0
   -0.8740  -12.4190  -22.3050 C   0  0  0  0  0  0  0  0  0  0  0  0
    0.0960  -12.9210  -21.7580 O   0  0  0  0  0  0  0  0  0  0  0  0
   -2.2110  -12.8380  -20.8200 H   0  0  0  0  0  0  0  0  0  0  0  0
   -2.9240  -11.9880  -22.1630 H   0  0  0  0  0  0  0  0  0  0  0  0
   -0.4910   -5.5740  -26.9560 C   0  0  0  0  0  0  0  0  0  0  0  0
   -0.4310   -4.1860  -26.8230 C   0  0  0  0  0  3  0  0  0  0  0  0
    0.6170   -3.4790  -27.4090 C   0  0  0  0  0  3  0  0  0  0  0  0
    1.6100   -4.1470  -28.1370 C   0  0  0  0  0  3  0  0  0  0  0  0
    1.5770   -5.5340  -28.2710 C   0  0  0  0  0  0  0  0  0  0  0  0
    0.5150   -6.2340  -27.6840 C   0  0  0  0  0  3  0  0  0  0  0  0
    2.4990   -6.3070  -28.9990 N   0  0  0  0  0  0  0  0  0  0  0  0
    3.2400   -7.4260  -28.7100 C   0  0  0  0  0  0  0  0  0  0  0  0
    4.1260   -7.7930  -29.4800 O   0  0  0  0  0  0  0  0  0  0  0  0
    2.6920   -5.9920  -29.9440 H   0  0  0  0  0  0  0  0  0  0  0  0
    3.0120   -8.2330  -27.5080 C   0  0  0  0  0  0  0  0  0  0  0  0
    2.5570   -7.5650  -26.3610 C   0  0  0  0  0  3  0  0  0  0  0  0
    2.3540   -8.2770  -25.1780 C   0  0  0  0  0  3  0  0  0  0  0  0
    2.6250   -9.6450  -25.1410 C   0  0  0  0  0  0  0  0  0  0  0  0
    2.3720  -10.5210  -23.6820 Cl  0  0  0  0  0  0  0  0  0  0  0  0
    3.1070  -10.3080  -26.2700 C   0  0  0  0  0  3  0  0  0  0  0  0
    3.3120   -9.5990  -27.4580 C   0  0  0  0  0  0  0  0  0  0  0  0
    3.9540  -10.4580  -28.8100 Cl  0  0  0  0  0  0  0  0  0  0  0  0
  1  8  1  0  0  0  0
  2 15  1  0  0  0  0
  3  2  2  0  0  0  0
  4  3  1  0  0  0  0
  5  4  2  0  0  0  0
  5  6  1  0  0  0  0
  6 12  1  0  0  0  0
  7  6  2  0  0  0  0
  7  9  1  0  0  0  0
  8  7  1  0  0  0  0
  9 10  2  0  0  0  0
 10 11  1  0  0  0  0
 12  2  1  0  0  0  0
 12 11  2  0  0  0  0
 13  8  1  0  0  0  0
 14 17  1  0  0  0  0
 15 16  2  0  0  0  0
 15 14  1  0  0  0  0
 18 14  1  0  0  0  0
 19 20  1  0  0  0  0
 19  1  1  0  0  0  0
 21 20  2  0  0  0  0
 22 21  1  0  0  0  0
 23 22  2  0  0  0  0
 23 24  1  0  0  0  0
 24 19  2  0  0  0  0
 25 26  1  0  0  0  0
 25 23  1  0  0  0  0
 26 29  1  0  0  0  0
 27 26  2  0  0  0  0
 28 25  1  0  0  0  0
 29 35  2  0  0  0  0
 29 30  1  0  0  0  0
 30 31  2  0  0  0  0
 31 32  1  0  0  0  0
 32 33  1  0  0  0  0
 34 32  2  0  0  0  0
 35 34  1  0  0  0  0
 36 35  1  0  0  0  0
M  END
>  <minimizedAffinity>
-8.74290562

$$$$
