
 OpenBabel10152419523D

 36 39  0  0  0  0  0  0  0  0999 V2000
    2.2390  -10.6840  -26.4020 C   0  0  0  0  0  2  0  0  0  0  0  0
    0.3470   -4.9330  -27.2840 C   0  0  0  0  0  0  0  0  0  0  0  0
   -0.8620   -4.9640  -26.5730 C   0  0  0  0  0  3  0  0  0  0  0  0
   -1.2630   -6.1410  -25.9660 C   0  0  0  0  0  3  0  0  0  0  0  0
   -0.4470   -7.2650  -26.0650 C   0  0  0  0  0  3  0  0  0  0  0  0
    0.7880   -7.2300  -26.7710 C   0  0  0  0  0  0  0  0  0  0  0  0
    1.6740   -8.3240  -26.8770 C   0  0  0  0  0  0  0  0  0  0  0  0
    1.3820   -9.5240  -26.2390 N   0  0  0  0  0  0  0  0  0  0  0  0
    2.8010   -8.2560  -27.6010 N   0  0  0  0  0  0  0  0  0  0  0  0
    3.0820   -7.0840  -28.1730 C   0  0  0  0  0  3  0  0  0  0  0  0
    2.3480   -5.9740  -28.0870 N   0  0  0  0  0  0  0  0  0  0  0  0
    1.1910   -6.0450  -27.4080 C   0  0  0  0  0  0  0  0  0  0  0  0
    0.9170   -9.4510  -25.3450 H   0  0  0  0  0  0  0  0  0  0  0  0
    0.2030   -2.5350  -27.3360 N   0  0  0  0  0  0  0  0  0  0  0  0
    0.7100   -3.6590  -27.9300 C   0  0  0  0  0  0  0  0  0  0  0  0
    1.3630   -3.6140  -28.9610 O   0  0  0  0  0  0  0  0  0  0  0  0
    0.4300   -1.6430  -27.7550 H   0  0  0  0  0  0  0  0  0  0  0  0
   -0.3230   -2.5530  -26.4740 H   0  0  0  0  0  0  0  0  0  0  0  0
    2.2670  -11.4350  -25.0880 C   0  0  0  0  0  0  0  0  0  0  0  0
    3.4710  -11.8360  -24.5060 C   0  0  0  0  0  3  0  0  0  0  0  0
    3.4560  -12.5920  -23.3360 C   0  0  0  0  0  3  0  0  0  0  0  0
    2.2440  -12.9590  -22.7390 C   0  0  0  0  0  3  0  0  0  0  0  0
    1.0300  -12.5580  -23.2950 C   0  0  0  0  0  0  0  0  0  0  0  0
    1.0570  -11.8050  -24.4760 C   0  0  0  0  0  3  0  0  0  0  0  0
   -0.2450  -12.8890  -22.8020 N   0  0  0  0  0  0  0  0  0  0  0  0
   -1.2770  -12.1590  -22.2680 C   0  0  0  0  0  0  0  0  0  0  0  0
   -2.2250  -12.7340  -21.7330 O   0  0  0  0  0  0  0  0  0  0  0  0
   -0.4830  -13.8760  -22.8190 H   0  0  0  0  0  0  0  0  0  0  0  0
   -1.3150  -10.6950  -22.3180 C   0  0  0  0  0  0  0  0  0  0  0  0
   -1.2430  -10.0080  -21.0980 C   0  0  0  0  0  3  0  0  0  0  0  0
   -1.3080   -8.6140  -21.0820 C   0  0  0  0  0  3  0  0  0  0  0  0
   -1.4650   -7.9170  -22.2810 C   0  0  0  0  0  0  0  0  0  0  0  0
   -1.5430   -6.1980  -22.2590 Cl  0  0  0  0  0  0  0  0  0  0  0  0
   -1.5680   -8.5970  -23.4940 C   0  0  0  0  0  3  0  0  0  0  0  0
   -1.5040   -9.9940  -23.5150 C   0  0  0  0  0  0  0  0  0  0  0  0
   -1.6840  -10.7870  -25.0370 Cl  0  0  0  0  0  0  0  0  0  0  0  0
  1  8  1  0  0  0  0
  1 19  1  0  0  0  0
  2  3  1  0  0  0  0
  3  4  2  0  0  0  0
  5  4  1  0  0  0  0
  6  5  2  0  0  0  0
  7  6  1  0  0  0  0
  7  8  1  0  0  0  0
  8 13  1  0  0  0  0
  9  7  2  0  0  0  0
 10 11  2  0  0  0  0
 10  9  1  0  0  0  0
 11 12  1  0  0  0  0
 12  2  2  0  0  0  0
 12  6  1  0  0  0  0
 14 18  1  0  0  0  0
 15 14  1  0  0  0  0
 15  2  1  0  0  0  0
 16 15  2  0  0  0  0
 17 14  1  0  0  0  0
 19 20  2  0  0  0  0
 19 24  1  0  0  0  0
 20 21  1  0  0  0  0
 21 22  2  0  0  0  0
 23 25  1  0  0  0  0
 23 22  1  0  0  0  0
 24 23  2  0  0  0  0
 25 26  1  0  0  0  0
 26 27  2  0  0  0  0
 28 25  1  0  0  0  0
 29 26  1  0  0  0  0
 29 30  1  0  0  0  0
 30 31  2  0  0  0  0
 32 33  1  0  0  0  0
 32 31  1  0  0  0  0
 34 32  2  0  0  0  0
 35 34  1  0  0  0  0
 35 29  2  0  0  0  0
 36 35  1  0  0  0  0
M  END
>  <minimizedAffinity>
-7.15346193

$$$$
