
 OpenBabel10152419523D

 36 39  0  0  0  0  0  0  0  0999 V2000
    3.7770   -9.7330  -26.0580 C   0  0  0  0  0  2  0  0  0  0  0  0
    0.1450   -4.9090  -27.0410 C   0  0  0  0  0  0  0  0  0  0  0  0
    0.5570   -4.5560  -28.3350 C   0  0  0  0  0  3  0  0  0  0  0  0
    1.5620   -5.2820  -28.9510 C   0  0  0  0  0  3  0  0  0  0  0  0
    2.1320   -6.3550  -28.2720 C   0  0  0  0  0  3  0  0  0  0  0  0
    1.7030   -6.7260  -26.9660 C   0  0  0  0  0  0  0  0  0  0  0  0
    2.2160   -7.8240  -26.2440 C   0  0  0  0  0  0  0  0  0  0  0  0
    3.1790   -8.6480  -26.8140 N   0  0  0  0  0  0  0  0  0  0  0  0
    1.8170   -8.0980  -24.9920 N   0  0  0  0  0  0  0  0  0  0  0  0
    0.8650   -7.3190  -24.4780 C   0  0  0  0  0  3  0  0  0  0  0  0
    0.2700   -6.2970  -25.0940 N   0  0  0  0  0  0  0  0  0  0  0  0
    0.6980   -5.9800  -26.3280 C   0  0  0  0  0  0  0  0  0  0  0  0
    3.0950   -8.8080  -27.8090 H   0  0  0  0  0  0  0  0  0  0  0  0
   -0.5920   -3.5220  -25.2230 N   0  0  0  0  0  0  0  0  0  0  0  0
   -0.9120   -4.0850  -26.4280 C   0  0  0  0  0  0  0  0  0  0  0  0
   -2.0190   -3.9660  -26.9310 O   0  0  0  0  0  0  0  0  0  0  0  0
   -1.2960   -2.9530  -24.7720 H   0  0  0  0  0  0  0  0  0  0  0  0
    0.3230   -3.5950  -24.8020 H   0  0  0  0  0  0  0  0  0  0  0  0
    2.8170  -10.9030  -26.0770 C   0  0  0  0  0  0  0  0  0  0  0  0
    2.4290  -11.5050  -27.2750 C   0  0  0  0  0  3  0  0  0  0  0  0
    1.4860  -12.5300  -27.2610 C   0  0  0  0  0  3  0  0  0  0  0  0
    0.9160  -12.9590  -26.0560 C   0  0  0  0  0  3  0  0  0  0  0  0
    1.2990  -12.3820  -24.8460 C   0  0  0  0  0  0  0  0  0  0  0  0
    2.2430  -11.3470  -24.8730 C   0  0  0  0  0  3  0  0  0  0  0  0
    0.7770  -12.7100  -23.5820 N   0  0  0  0  0  0  0  0  0  0  0  0
   -0.0850  -12.0830  -22.7180 C   0  0  0  0  0  0  0  0  0  0  0  0
   -0.2290  -12.5120  -21.5730 O   0  0  0  0  0  0  0  0  0  0  0  0
    1.0930  -13.5900  -23.1880 H   0  0  0  0  0  0  0  0  0  0  0  0
   -0.8730  -10.9100  -23.1040 C   0  0  0  0  0  0  0  0  0  0  0  0
   -1.1470  -10.7390  -24.4690 C   0  0  0  0  0  3  0  0  0  0  0  0
   -1.8650   -9.6230  -24.8980 C   0  0  0  0  0  3  0  0  0  0  0  0
   -2.2880   -8.6740  -23.9670 C   0  0  0  0  0  0  0  0  0  0  0  0
   -3.1750   -7.2990  -24.4990 Cl  0  0  0  0  0  0  0  0  0  0  0  0
   -1.9920   -8.8230  -22.6120 C   0  0  0  0  0  3  0  0  0  0  0  0
   -1.2720   -9.9390  -22.1760 C   0  0  0  0  0  0  0  0  0  0  0  0
   -0.8920  -10.0500  -20.4960 Cl  0  0  0  0  0  0  0  0  0  0  0  0
  2 15  1  0  0  0  0
  2 12  1  0  0  0  0
  3  2  2  0  0  0  0
  4  3  1  0  0  0  0
  4  5  2  0  0  0  0
  5  6  1  0  0  0  0
  6 12  2  0  0  0  0
  6  7  1  0  0  0  0
  7  9  2  0  0  0  0
  8  7  1  0  0  0  0
  8  1  1  0  0  0  0
  9 10  1  0  0  0  0
 11 10  2  0  0  0  0
 12 11  1  0  0  0  0
 13  8  1  0  0  0  0
 14 18  1  0  0  0  0
 14 17  1  0  0  0  0
 15 14  1  0  0  0  0
 16 15  2  0  0  0  0
 19  1  1  0  0  0  0
 19 24  1  0  0  0  0
 20 21  1  0  0  0  0
 20 19  2  0  0  0  0
 21 22  2  0  0  0  0
 22 23  1  0  0  0  0
 23 25  1  0  0  0  0
 24 23  2  0  0  0  0
 25 28  1  0  0  0  0
 25 26  1  0  0  0  0
 26 27  2  0  0  0  0
 29 26  1  0  0  0  0
 29 35  1  0  0  0  0
 30 29  2  0  0  0  0
 31 30  1  0  0  0  0
 31 32  2  0  0  0  0
 32 34  1  0  0  0  0
 33 32  1  0  0  0  0
 34 35  2  0  0  0  0
 35 36  1  0  0  0  0
M  END
>  <minimizedAffinity>
-7.19564486

$$$$
