
 OpenBabel10152419523D

 36 39  0  0  0  0  0  0  0  0999 V2000
   -1.6680   -7.1040  -26.7510 C   0  0  0  0  0  2  0  0  0  0  0  0
   -1.7110  -10.1270  -21.4320 C   0  0  0  0  0  0  0  0  0  0  0  0
   -1.7250   -9.0450  -20.5390 C   0  0  0  0  0  3  0  0  0  0  0  0
   -1.7000   -7.7530  -21.0350 C   0  0  0  0  0  3  0  0  0  0  0  0
   -1.6750   -7.5600  -22.4140 C   0  0  0  0  0  3  0  0  0  0  0  0
   -1.6800   -8.6560  -23.3220 C   0  0  0  0  0  0  0  0  0  0  0  0
   -1.6910   -8.5240  -24.7270 C   0  0  0  0  0  0  0  0  0  0  0  0
   -1.7370   -7.2630  -25.3100 N   0  0  0  0  0  0  0  0  0  0  0  0
   -1.6390   -9.5900  -25.5400 N   0  0  0  0  0  0  0  0  0  0  0  0
   -1.6350  -10.7910  -24.9610 C   0  0  0  0  0  3  0  0  0  0  0  0
   -1.6830  -11.0310  -23.6490 N   0  0  0  0  0  0  0  0  0  0  0  0
   -1.6830   -9.9700  -22.8240 C   0  0  0  0  0  0  0  0  0  0  0  0
   -2.2840   -6.5670  -24.8220 H   0  0  0  0  0  0  0  0  0  0  0  0
   -0.5900  -12.2210  -21.0760 N   0  0  0  0  0  0  0  0  0  0  0  0
   -1.7150  -11.4780  -20.8450 C   0  0  0  0  0  0  0  0  0  0  0  0
   -2.6820  -11.9270  -20.2490 O   0  0  0  0  0  0  0  0  0  0  0  0
   -0.5590  -13.1550  -20.6890 H   0  0  0  0  0  0  0  0  0  0  0  0
    0.2260  -11.8600  -21.5500 H   0  0  0  0  0  0  0  0  0  0  0  0
   -0.5610   -6.1190  -27.0620 C   0  0  0  0  0  0  0  0  0  0  0  0
   -0.7630   -4.7420  -26.9570 C   0  0  0  0  0  3  0  0  0  0  0  0
    0.2540   -3.8640  -27.3240 C   0  0  0  0  0  3  0  0  0  0  0  0
    1.4770   -4.3480  -27.8050 C   0  0  0  0  0  3  0  0  0  0  0  0
    1.7050   -5.7200  -27.9050 C   0  0  0  0  0  0  0  0  0  0  0  0
    0.6730   -6.5940  -27.5400 C   0  0  0  0  0  3  0  0  0  0  0  0
    2.8780   -6.3200  -28.3980 N   0  0  0  0  0  0  0  0  0  0  0  0
    3.6130   -7.4170  -28.0250 C   0  0  0  0  0  0  0  0  0  0  0  0
    4.7220   -7.6130  -28.5230 O   0  0  0  0  0  0  0  0  0  0  0  0
    3.3080   -5.8610  -29.1950 H   0  0  0  0  0  0  0  0  0  0  0  0
    3.1250   -8.4000  -27.0540 C   0  0  0  0  0  0  0  0  0  0  0  0
    2.6060   -7.9090  -25.8470 C   0  0  0  0  0  3  0  0  0  0  0  0
    2.1570   -8.7990  -24.8710 C   0  0  0  0  0  3  0  0  0  0  0  0
    2.2480  -10.1730  -25.0970 C   0  0  0  0  0  0  0  0  0  0  0  0
    1.6920  -11.2690  -23.8930 Cl  0  0  0  0  0  0  0  0  0  0  0  0
    2.7920  -10.6670  -26.2820 C   0  0  0  0  0  3  0  0  0  0  0  0
    3.2430   -9.7790  -27.2630 C   0  0  0  0  0  0  0  0  0  0  0  0
    3.9500  -10.4440  -28.6900 Cl  0  0  0  0  0  0  0  0  0  0  0  0
  1  8  1  0  0  0  0
  2 15  1  0  0  0  0
  2  3  1  0  0  0  0
  4  3  2  0  0  0  0
  5  4  1  0  0  0  0
  6 12  1  0  0  0  0
  6  5  2  0  0  0  0
  7  6  1  0  0  0  0
  8 13  1  0  0  0  0
  8  7  1  0  0  0  0
  9 10  1  0  0  0  0
  9  7  2  0  0  0  0
 10 11  2  0  0  0  0
 11 12  1  0  0  0  0
 12  2  2  0  0  0  0
 14 15  1  0  0  0  0
 14 17  1  0  0  0  0
 15 16  2  0  0  0  0
 18 14  1  0  0  0  0
 19 20  1  0  0  0  0
 19  1  1  0  0  0  0
 21 20  2  0  0  0  0
 22 21  1  0  0  0  0
 23 22  2  0  0  0  0
 23 24  1  0  0  0  0
 24 19  2  0  0  0  0
 25 26  1  0  0  0  0
 25 23  1  0  0  0  0
 26 29  1  0  0  0  0
 27 26  2  0  0  0  0
 28 25  1  0  0  0  0
 29 30  1  0  0  0  0
 30 31  2  0  0  0  0
 32 31  1  0  0  0  0
 32 33  1  0  0  0  0
 34 32  2  0  0  0  0
 35 29  2  0  0  0  0
 35 34  1  0  0  0  0
 36 35  1  0  0  0  0
M  END
>  <minimizedAffinity>
-9.07551575

$$$$
