
 OpenBabel11232419123D

 37 41  0  0  1  0  0  0  0  0999 V2000
   33.5100   42.7410   17.8890 C   0  0  1  0  0  3  0  0  0  0  0  0
   33.1180   41.6940   18.5960 N   0  0  0  0  0  2  0  0  0  0  0  0
   31.8120   41.4410   18.2660 C   0  0  2  0  0  3  0  0  0  0  0  0
   31.3480   42.4500   17.4590 C   0  0  0  0  0  2  0  0  0  0  0  0
   32.3930   43.3400   17.3410 N   0  0  0  0  0  0  0  0  0  0  0  0
   31.0700   40.2890   18.7540 C   0  0  0  0  0  0  0  0  0  0  0  0
   29.8500   39.9520   18.1480 C   0  0  0  0  0  3  0  0  0  0  0  0
   29.1180   38.8470   18.5870 C   0  0  0  0  0  3  0  0  0  0  0  0
   29.5960   38.0810   19.6420 C   0  0  0  0  0  0  0  0  0  0  0  0
   28.8870   37.0180   20.0440 F   0  0  0  0  0  0  0  0  0  0  0  0
   30.7940   38.4030   20.2840 C   0  0  0  0  0  0  0  0  0  0  0  0
   31.2900   37.5550   21.4150 C   0  0  0  0  0  1  0  0  0  0  0  0
   31.5330   39.5050   19.8250 C   0  0  0  0  0  3  0  0  0  0  0  0
   37.3100   44.4870   16.7570 N   0  0  0  0  0  0  0  0  0  0  0  0
   36.9160   43.2240   16.1350 C   0  0  0  0  0  2  0  0  0  0  0  0
   35.4280   42.9390   16.3210 C   0  0  0  0  0  2  0  0  0  0  0  0
   34.9820   43.1000   17.7920 C   0  0  1  0  0  3  0  0  0  0  0  0
   35.4210   44.4640   18.3220 C   0  0  0  0  0  2  0  0  0  0  0  0
   36.9290   44.6680   18.1480 C   0  0  0  0  0  2  0  0  0  0  0  0
   38.0470   46.7300   16.2040 C   0  0  0  0  0  0  0  0  0  0  0  0
   37.8760   47.8160   15.3520 C   0  0  0  0  0  0  0  0  0  0  0  0
   38.6140   48.9800   15.4780 N   0  0  0  0  0  0  0  0  0  0  0  0
   36.9580   47.8430   14.3800 N   0  0  0  0  0  0  0  0  0  0  0  0
   36.2350   46.7340   14.2250 C   0  0  0  0  0  3  0  0  0  0  0  0
   36.3180   45.6260   14.9670 N   0  0  0  0  0  0  0  0  0  0  0  0
   37.2260   45.6290   15.9580 C   0  0  0  0  0  0  0  0  0  0  0  0
   38.3460   49.6730   14.7880 H   0  0  0  0  0  0  0  0  0  0  0  0
   39.6050   48.8870   15.6440 H   0  0  0  0  0  0  0  0  0  0  0  0
   40.4680   46.3080   16.7200 C   0  0  0  0  0  1  0  0  0  0  0  0
   39.1100   46.7190   17.2720 C   0  0  0  0  0  2  0  0  0  0  0  0
   32.1830   44.6990   16.8710 C   0  0  0  0  0  2  0  0  0  0  0  0
   30.9310   44.8720   16.0160 C   0  0  0  0  0  3  0  0  0  0  0  0
   30.5920   46.2700   15.4480 C   0  0  0  0  0  2  0  0  0  0  0  0
   30.1080   45.6060   14.2220 N   0  0  0  0  0  4  0  0  0  0  0  0
   30.6260   46.2790   13.0020 C   0  0  0  0  0  1  0  0  0  0  0  0
   30.8980   44.4030   14.5440 C   0  0  0  0  0  2  0  0  0  0  0  0
   29.0910   45.4510   14.2020 H   0  0  0  0  0  0  0  0  0  0  0  0
  1  2  1  1  0  0  0
  3  2  1  0  0  0  0
  3  6  1  1  0  0  0
  4  3  1  0  0  0  0
  5  4  1  0  0  0  0
  5  1  1  0  0  0  0
  6 13  1  0  0  0  0
  7  8  1  0  0  0  0
  7  6  2  0  0  0  0
  8  9  2  0  0  0  0
  9 10  1  0  0  0  0
  9 11  1  0  0  0  0
 11 12  1  0  0  0  0
 13 11  2  0  0  0  0
 14 19  1  0  0  0  0
 15 16  1  0  0  0  0
 15 14  1  0  0  0  0
 17 16  1  6  0  0  0
 17  1  1  0  0  0  0
 17 18  1  0  0  0  0
 19 18  1  0  0  0  0
 20 30  1  0  0  0  0
 21 22  1  0  0  0  0
 21 20  2  0  0  0  0
 22 28  1  0  0  0  0
 23 21  1  0  0  0  0
 24 23  2  0  0  0  0
 24 25  1  0  0  0  0
 25 26  2  0  0  0  0
 26 20  1  0  0  0  0
 26 14  1  0  0  0  0
 27 22  1  0  0  0  0
 29 30  1  0  0  0  0
 31  5  1  0  0  0  0
 32 31  1  0  0  0  0
 33 32  1  0  0  0  0
 34 36  1  0  0  0  0
 34 33  1  0  0  0  0
 35 34  1  0  0  0  0
 36 32  1  0  0  0  0
 37 34  1  0  0  0  0
M  END
>  <minimizedAffinity>
-10.1628323

$$$$
