
 OpenBabel11232419123D

 37 41  0  0  1  0  0  0  0  0999 V2000
   36.9460   44.1210   19.2300 C   0  0  2  0  0  3  0  0  0  0  0  0
   35.6250   44.1760   19.2590 N   0  0  0  0  0  2  0  0  0  0  0  0
   35.1860   44.2360   17.9620 C   0  0  2  0  0  3  0  0  0  0  0  0
   36.2670   44.3800   17.1280 C   0  0  0  0  0  2  0  0  0  0  0  0
   37.3670   44.4440   17.9550 N   0  0  0  0  0  0  0  0  0  0  0  0
   33.7820   44.1900   17.5880 C   0  0  0  0  0  0  0  0  0  0  0  0
   32.8830   43.4670   18.3860 C   0  0  0  0  0  3  0  0  0  0  0  0
   31.5260   43.4100   18.0590 C   0  0  0  0  0  3  0  0  0  0  0  0
   31.0650   44.0670   16.9260 C   0  0  0  0  0  0  0  0  0  0  0  0
   29.7590   44.0120   16.6310 F   0  0  0  0  0  0  0  0  0  0  0  0
   31.9370   44.7760   16.0960 C   0  0  0  0  0  0  0  0  0  0  0  0
   31.4100   45.4810   14.8830 C   0  0  0  0  0  1  0  0  0  0  0  0
   33.2960   44.8420   16.4410 C   0  0  0  0  0  3  0  0  0  0  0  0
   38.9160   44.1700   23.0880 N   0  0  0  0  0  0  0  0  0  0  0  0
   39.7090   44.4900   21.9020 C   0  0  0  0  0  2  0  0  0  0  0  0
   38.8270   44.8140   20.7000 C   0  0  0  0  0  2  0  0  0  0  0  0
   37.7320   43.7470   20.4740 C   0  0  1  0  0  3  0  0  0  0  0  0
   36.9520   43.5200   21.7690 C   0  0  0  0  0  2  0  0  0  0  0  0
   37.8890   43.1530   22.9230 C   0  0  0  0  0  2  0  0  0  0  0  0
   37.9200   45.0180   25.1300 C   0  0  0  0  0  0  0  0  0  0  0  0
   37.6210   46.1540   25.8750 C   0  0  0  0  0  0  0  0  0  0  0  0
   36.9690   46.0910   27.0940 N   0  0  0  0  0  0  0  0  0  0  0  0
   37.8920   47.3940   25.4540 N   0  0  0  0  0  0  0  0  0  0  0  0
   38.5290   47.4920   24.2860 C   0  0  0  0  0  3  0  0  0  0  0  0
   38.8810   46.4770   23.4910 N   0  0  0  0  0  0  0  0  0  0  0  0
   38.5740   45.2400   23.9170 C   0  0  0  0  0  0  0  0  0  0  0  0
   36.8150   47.0130   27.4870 H   0  0  0  0  0  0  0  0  0  0  0  0
   37.2690   45.3810   27.7450 H   0  0  0  0  0  0  0  0  0  0  0  0
   38.7630   43.0910   26.5020 C   0  0  0  0  0  1  0  0  0  0  0  0
   37.6270   43.6330   25.6450 C   0  0  0  0  0  2  0  0  0  0  0  0
   38.6430   44.9520   17.4810 C   0  0  0  0  0  2  0  0  0  0  0  0
   38.6820   46.4670   17.3060 C   0  0  0  0  0  3  0  0  0  0  0  0
   40.0490   47.1850   17.2300 C   0  0  0  0  0  2  0  0  0  0  0  0
   39.4640   48.1000   16.2310 N   0  0  0  0  0  4  0  0  0  0  0  0
   40.3710   48.2810   15.0670 C   0  0  0  0  0  1  0  0  0  0  0  0
   38.4020   47.1200   15.9330 C   0  0  0  0  0  2  0  0  0  0  0  0
   39.1220   48.9880   16.6230 H   0  0  0  0  0  0  0  0  0  0  0  0
  1  2  1  6  0  0  0
  1 17  1  0  0  0  0
  3  6  1  1  0  0  0
  3  2  1  0  0  0  0
  4  5  1  0  0  0  0
  4  3  1  0  0  0  0
  5  1  1  0  0  0  0
  6  7  1  0  0  0  0
  8  7  2  0  0  0  0
  9  8  1  0  0  0  0
 10  9  1  0  0  0  0
 11 13  1  0  0  0  0
 11  9  2  0  0  0  0
 12 11  1  0  0  0  0
 13  6  2  0  0  0  0
 14 26  1  0  0  0  0
 15 14  1  0  0  0  0
 16 15  1  0  0  0  0
 17 16  1  1  0  0  0
 17 18  1  0  0  0  0
 18 19  1  0  0  0  0
 19 14  1  0  0  0  0
 20 30  1  0  0  0  0
 20 21  1  0  0  0  0
 21 22  1  0  0  0  0
 22 27  1  0  0  0  0
 22 28  1  0  0  0  0
 23 21  2  0  0  0  0
 24 23  1  0  0  0  0
 25 26  1  0  0  0  0
 25 24  2  0  0  0  0
 26 20  2  0  0  0  0
 30 29  1  0  0  0  0
 31  5  1  0  0  0  0
 32 31  1  0  0  0  0
 33 32  1  0  0  0  0
 34 37  1  0  0  0  0
 34 33  1  0  0  0  0
 35 34  1  0  0  0  0
 36 34  1  0  0  0  0
 36 32  1  0  0  0  0
M  END
>  <minimizedAffinity>
-9.66154099

$$$$
