
 OpenBabel11232419123D

 37 41  0  0  1  0  0  0  0  0999 V2000
   36.2370   43.8180   18.4940 C   0  0  2  0  0  3  0  0  0  0  0  0
   37.0930   43.8030   19.5030 N   0  0  0  0  0  2  0  0  0  0  0  0
   38.0770   44.7140   19.2210 C   0  0  2  0  0  3  0  0  0  0  0  0
   37.9040   45.1830   17.9430 C   0  0  0  0  0  2  0  0  0  0  0  0
   36.8150   44.5040   17.4430 N   0  0  0  0  0  0  0  0  0  0  0  0
   39.1370   45.0640   20.1540 C   0  0  0  0  0  0  0  0  0  0  0  0
   40.4170   45.3550   19.6590 C   0  0  0  0  0  3  0  0  0  0  0  0
   41.4540   45.7030   20.5270 C   0  0  0  0  0  3  0  0  0  0  0  0
   41.2190   45.7490   21.8950 C   0  0  0  0  0  0  0  0  0  0  0  0
   42.2210   46.0950   22.7140 F   0  0  0  0  0  0  0  0  0  0  0  0
   39.9630   45.4410   22.4230 C   0  0  0  0  0  0  0  0  0  0  0  0
   39.7350   45.5050   23.9030 C   0  0  0  0  0  1  0  0  0  0  0  0
   38.9210   45.1090   21.5420 C   0  0  0  0  0  3  0  0  0  0  0  0
   32.0180   42.8690   18.2500 N   0  0  0  0  0  0  0  0  0  0  0  0
   32.5020   43.5660   19.4390 C   0  0  0  0  0  2  0  0  0  0  0  0
   33.8860   44.1700   19.2190 C   0  0  0  0  0  2  0  0  0  0  0  0
   34.8810   43.1490   18.6220 C   0  0  1  0  0  3  0  0  0  0  0  0
   34.2800   42.5090   17.3700 C   0  0  0  0  0  2  0  0  0  0  0  0
   32.9150   41.8820   17.6700 C   0  0  0  0  0  2  0  0  0  0  0  0
   30.0060   43.2370   16.9450 C   0  0  0  0  0  0  0  0  0  0  0  0
   29.3730   44.0640   16.0240 C   0  0  0  0  0  0  0  0  0  0  0  0
   28.1030   43.7990   15.5420 N   0  0  0  0  0  0  0  0  0  0  0  0
   29.9530   45.1460   15.4940 N   0  0  0  0  0  0  0  0  0  0  0  0
   31.1750   45.4350   15.9430 C   0  0  0  0  0  3  0  0  0  0  0  0
   31.8770   44.7300   16.8350 N   0  0  0  0  0  0  0  0  0  0  0  0
   31.2890   43.6290   17.3330 C   0  0  0  0  0  0  0  0  0  0  0  0
   27.8050   44.4920   14.8640 H   0  0  0  0  0  0  0  0  0  0  0  0
   27.4030   43.5080   16.2080 H   0  0  0  0  0  0  0  0  0  0  0  0
   29.5370   40.7810   16.7180 C   0  0  0  0  0  1  0  0  0  0  0  0
   29.3150   42.0400   17.5450 C   0  0  0  0  0  2  0  0  0  0  0  0
   36.5400   44.4550   16.0170 C   0  0  0  0  0  2  0  0  0  0  0  0
   36.6560   45.8050   15.3160 C   0  0  0  0  0  3  0  0  0  0  0  0
   37.6930   45.9810   14.1830 C   0  0  0  0  0  2  0  0  0  0  0  0
   36.7190   46.8420   13.4850 N   0  0  0  0  0  4  0  0  0  0  0  0
   36.6140   46.4840   12.0460 C   0  0  0  0  0  1  0  0  0  0  0  0
   35.6150   46.2510   14.2650 C   0  0  0  0  0  2  0  0  0  0  0  0
   36.8570   47.8490   13.6450 H   0  0  0  0  0  0  0  0  0  0  0  0
  1 17  1  0  0  0  0
  1  2  1  1  0  0  0
  3  2  1  0  0  0  0
  3  6  1  6  0  0  0
  4  3  1  0  0  0  0
  5  4  1  0  0  0  0
  5  1  1  0  0  0  0
  6 13  1  0  0  0  0
  7  6  2  0  0  0  0
  7  8  1  0  0  0  0
  8  9  2  0  0  0  0
  9 11  1  0  0  0  0
  9 10  1  0  0  0  0
 11 12  1  0  0  0  0
 13 11  2  0  0  0  0
 14 15  1  0  0  0  0
 16 15  1  0  0  0  0
 17 18  1  6  0  0  0
 17 16  1  0  0  0  0
 18 19  1  0  0  0  0
 19 14  1  0  0  0  0
 20 26  1  0  0  0  0
 20 30  1  0  0  0  0
 21 20  2  0  0  0  0
 22 21  1  0  0  0  0
 22 28  1  0  0  0  0
 23 24  2  0  0  0  0
 23 21  1  0  0  0  0
 24 25  1  0  0  0  0
 25 26  2  0  0  0  0
 26 14  1  0  0  0  0
 27 22  1  0  0  0  0
 29 30  1  0  0  0  0
 31  5  1  0  0  0  0
 32 31  1  0  0  0  0
 33 32  1  0  0  0  0
 34 37  1  0  0  0  0
 34 33  1  0  0  0  0
 34 36  1  0  0  0  0
 35 34  1  0  0  0  0
 36 32  1  0  0  0  0
M  END
>  <minimizedAffinity>
-10.8454952

$$$$
