
 OpenBabel11232419123D

 37 41  0  0  1  0  0  0  0  0999 V2000
   31.1420   41.1940   17.8300 C   0  0  2  0  0  3  0  0  0  0  0  0
   31.0980   40.6220   19.0220 N   0  0  0  0  0  2  0  0  0  0  0  0
   30.2990   39.5130   18.9170 C   0  0  2  0  0  3  0  0  0  0  0  0
   29.7170   39.4940   17.6740 C   0  0  0  0  0  2  0  0  0  0  0  0
   30.1520   40.6400   17.0440 N   0  0  0  0  0  0  0  0  0  0  0  0
   30.1050   38.5600   19.9970 C   0  0  0  0  0  0  0  0  0  0  0  0
   31.1880   38.2320   20.8260 C   0  0  0  0  0  3  0  0  0  0  0  0
   31.0330   37.3270   21.8780 C   0  0  0  0  0  3  0  0  0  0  0  0
   29.7950   36.7360   22.0980 C   0  0  0  0  0  0  0  0  0  0  0  0
   29.6600   35.8780   23.1180 F   0  0  0  0  0  0  0  0  0  0  0  0
   28.7020   37.0200   21.2770 C   0  0  0  0  0  0  0  0  0  0  0  0
   27.3760   36.3730   21.5420 C   0  0  0  0  0  1  0  0  0  0  0  0
   28.8620   37.9450   20.2330 C   0  0  0  0  0  3  0  0  0  0  0  0
   34.4910   43.9350   18.0330 N   0  0  0  0  0  0  0  0  0  0  0  0
   33.1800   44.4100   18.4730 C   0  0  0  0  0  2  0  0  0  0  0  0
   32.2100   43.2570   18.7140 C   0  0  0  0  0  2  0  0  0  0  0  0
   32.1710   42.2680   17.5270 C   0  0  1  0  0  3  0  0  0  0  0  0
   33.5900   41.8190   17.1780 C   0  0  0  0  0  2  0  0  0  0  0  0
   34.5000   43.0200   16.9030 C   0  0  0  0  0  2  0  0  0  0  0  0
   36.6610   44.3070   19.0490 C   0  0  0  0  0  0  0  0  0  0  0  0
   37.5170   43.9550   20.0870 C   0  0  0  0  0  0  0  0  0  0  0  0
   38.7780   44.5070   20.2260 N   0  0  0  0  0  0  0  0  0  0  0  0
   37.2130   43.0270   20.9990 N   0  0  0  0  0  0  0  0  0  0  0  0
   36.0010   42.4800   20.9000 C   0  0  0  0  0  3  0  0  0  0  0  0
   35.0890   42.7460   19.9610 N   0  0  0  0  0  0  0  0  0  0  0  0
   35.4240   43.6610   19.0340 C   0  0  0  0  0  0  0  0  0  0  0  0
   39.2720   44.1230   21.0240 H   0  0  0  0  0  0  0  0  0  0  0  0
   38.8680   45.5030   20.0940 H   0  0  0  0  0  0  0  0  0  0  0  0
   37.7190   44.8040   16.8260 C   0  0  0  0  0  1  0  0  0  0  0  0
   37.0220   45.3780   18.0520 C   0  0  0  0  0  2  0  0  0  0  0  0
   29.4800   41.1580   15.8640 C   0  0  0  0  0  2  0  0  0  0  0  0
   28.2090   41.9450   16.1700 C   0  0  0  0  0  3  0  0  0  0  0  0
   26.9170   41.1810   16.5380 C   0  0  0  0  0  2  0  0  0  0  0  0
   26.6040   42.2580   17.4970 N   0  0  0  0  0  4  0  0  0  0  0  0
   26.1760   41.7070   18.8090 C   0  0  0  0  0  1  0  0  0  0  0  0
   28.0220   42.6650   17.5260 C   0  0  0  0  0  2  0  0  0  0  0  0
   25.9670   42.9770   17.1280 H   0  0  0  0  0  0  0  0  0  0  0  0
  1  2  1  6  0  0  0
  3  2  1  0  0  0  0
  3  6  1  1  0  0  0
  4  3  1  0  0  0  0
  5  4  1  0  0  0  0
  5  1  1  0  0  0  0
  6 13  2  0  0  0  0
  6  7  1  0  0  0  0
  7  8  2  0  0  0  0
  8  9  1  0  0  0  0
  9 10  1  0  0  0  0
 11 12  1  0  0  0  0
 11  9  2  0  0  0  0
 13 11  1  0  0  0  0
 14 15  1  0  0  0  0
 14 26  1  0  0  0  0
 15 16  1  0  0  0  0
 17 18  1  1  0  0  0
 17  1  1  0  0  0  0
 17 16  1  0  0  0  0
 19 18  1  0  0  0  0
 19 14  1  0  0  0  0
 20 21  1  0  0  0  0
 21 22  1  0  0  0  0
 21 23  2  0  0  0  0
 22 27  1  0  0  0  0
 24 23  1  0  0  0  0
 25 24  2  0  0  0  0
 26 20  2  0  0  0  0
 26 25  1  0  0  0  0
 28 22  1  0  0  0  0
 29 30  1  0  0  0  0
 30 20  1  0  0  0  0
 31 32  1  0  0  0  0
 31  5  1  0  0  0  0
 32 33  1  0  0  0  0
 32 36  1  0  0  0  0
 33 34  1  0  0  0  0
 34 36  1  0  0  0  0
 34 35  1  0  0  0  0
 37 34  1  0  0  0  0
M  END
>  <minimizedAffinity>
-9.68117142

$$$$
