
 OpenBabel11232419123D

 37 41  0  0  1  0  0  0  0  0999 V2000
   36.1170   43.9610   18.9130 C   0  0  2  0  0  3  0  0  0  0  0  0
   36.4140   44.9000   18.0290 N   0  0  0  0  0  2  0  0  0  0  0  0
   37.7430   45.2000   18.1790 C   0  0  2  0  0  3  0  0  0  0  0  0
   38.2310   44.5440   19.2820 C   0  0  0  0  0  2  0  0  0  0  0  0
   37.1550   43.8710   19.8190 N   0  0  0  0  0  0  0  0  0  0  0  0
   38.4640   46.1080   17.3020 C   0  0  0  0  0  0  0  0  0  0  0  0
   39.7110   46.6060   17.7060 C   0  0  0  0  0  3  0  0  0  0  0  0
   40.4330   47.4730   16.8830 C   0  0  0  0  0  3  0  0  0  0  0  0
   39.9050   47.8540   15.6570 C   0  0  0  0  0  0  0  0  0  0  0  0
   40.6150   48.6780   14.8740 F   0  0  0  0  0  0  0  0  0  0  0  0
   38.6550   47.3970   15.2340 C   0  0  0  0  0  0  0  0  0  0  0  0
   38.1130   47.8190   13.9020 C   0  0  0  0  0  1  0  0  0  0  0  0
   37.9440   46.5120   16.0600 C   0  0  0  0  0  3  0  0  0  0  0  0
   32.0230   42.7830   18.1230 N   0  0  0  0  0  0  0  0  0  0  0  0
   32.3420   43.3380   19.4370 C   0  0  0  0  0  2  0  0  0  0  0  0
   33.6890   44.0550   19.4390 C   0  0  0  0  0  2  0  0  0  0  0  0
   34.8100   43.1940   18.8150 C   0  0  1  0  0  3  0  0  0  0  0  0
   34.3770   42.6970   17.4360 C   0  0  0  0  0  2  0  0  0  0  0  0
   33.0430   41.9470   17.5110 C   0  0  0  0  0  2  0  0  0  0  0  0
   30.0230   43.2960   16.8520 C   0  0  0  0  0  0  0  0  0  0  0  0
   29.4210   44.1890   15.9720 C   0  0  0  0  0  0  0  0  0  0  0  0
   28.1380   44.0020   15.4880 N   0  0  0  0  0  0  0  0  0  0  0  0
   30.0450   45.2680   15.4870 N   0  0  0  0  0  0  0  0  0  0  0  0
   31.2800   45.4840   15.9400 C   0  0  0  0  0  3  0  0  0  0  0  0
   31.9560   44.7100   16.7940 N   0  0  0  0  0  0  0  0  0  0  0  0
   31.3230   43.6140   17.2470 C   0  0  0  0  0  0  0  0  0  0  0  0
   27.8670   44.7370   14.8440 H   0  0  0  0  0  0  0  0  0  0  0  0
   27.4300   43.7120   16.1460 H   0  0  0  0  0  0  0  0  0  0  0  0
   29.4690   40.8680   16.5350 C   0  0  0  0  0  1  0  0  0  0  0  0
   29.2830   42.1050   17.4020 C   0  0  0  0  0  2  0  0  0  0  0  0
   37.1810   43.3610   21.1790 C   0  0  0  0  0  2  0  0  0  0  0  0
   38.0260   44.1950   22.1380 C   0  0  0  0  0  3  0  0  0  0  0  0
   37.6470   44.2390   23.6360 C   0  0  0  0  0  2  0  0  0  0  0  0
   39.0880   44.2580   23.9550 N   0  0  0  0  0  4  0  0  0  0  0  0
   39.4140   43.2950   25.0390 C   0  0  0  0  0  1  0  0  0  0  0  0
   39.4040   43.6960   22.6290 C   0  0  0  0  0  2  0  0  0  0  0  0
   39.4700   45.1990   24.1170 H   0  0  0  0  0  0  0  0  0  0  0  0
  1  2  1  6  0  0  0
  1  5  1  0  0  0  0
  2  3  1  0  0  0  0
  3  6  1  1  0  0  0
  3  4  1  0  0  0  0
  4  5  1  0  0  0  0
  5 31  1  0  0  0  0
  6  7  1  0  0  0  0
  8  7  2  0  0  0  0
  9  8  1  0  0  0  0
 10  9  1  0  0  0  0
 11  9  2  0  0  0  0
 11 13  1  0  0  0  0
 12 11  1  0  0  0  0
 13  6  2  0  0  0  0
 14 15  1  0  0  0  0
 15 16  1  0  0  0  0
 17 18  1  6  0  0  0
 17  1  1  0  0  0  0
 17 16  1  0  0  0  0
 18 19  1  0  0  0  0
 19 14  1  0  0  0  0
 20 26  1  0  0  0  0
 20 30  1  0  0  0  0
 21 20  2  0  0  0  0
 22 21  1  0  0  0  0
 22 28  1  0  0  0  0
 23 24  2  0  0  0  0
 23 21  1  0  0  0  0
 24 25  1  0  0  0  0
 25 26  2  0  0  0  0
 26 14  1  0  0  0  0
 27 22  1  0  0  0  0
 29 30  1  0  0  0  0
 31 32  1  0  0  0  0
 32 36  1  0  0  0  0
 32 33  1  0  0  0  0
 33 34  1  0  0  0  0
 34 37  1  0  0  0  0
 34 35  1  0  0  0  0
 36 34  1  0  0  0  0
M  END
>  <minimizedAffinity>
-11.3983698

$$$$

 OpenBabel11232419123D

 37 41  0  0  1  0  0  0  0  0999 V2000
   34.0790   43.8360   16.7350 C   0  0  1  0  0  3  0  0  0  0  0  0
   32.8860   43.7480   16.1710 N   0  0  0  0  0  2  0  0  0  0  0  0
   32.0470   43.1480   17.0740 C   0  0  2  0  0  3  0  0  0  0  0  0
   32.7800   42.7170   18.1520 C   0  0  0  0  0  2  0  0  0  0  0  0
   34.0890   43.0370   17.8610 N   0  0  0  0  0  0  0  0  0  0  0  0
   30.6190   42.9850   16.8560 C   0  0  0  0  0  0  0  0  0  0  0  0
   29.8850   44.0430   16.3010 C   0  0  0  0  0  3  0  0  0  0  0  0
   28.5130   43.9160   16.0710 C   0  0  0  0  0  3  0  0  0  0  0  0
   27.8680   42.7330   16.4050 C   0  0  0  0  0  0  0  0  0  0  0  0
   26.5540   42.6220   16.1680 F   0  0  0  0  0  0  0  0  0  0  0  0
   28.5640   41.6680   16.9820 C   0  0  0  0  0  0  0  0  0  0  0  0
   27.8430   40.4000   17.3270 C   0  0  0  0  0  1  0  0  0  0  0  0
   29.9450   41.7980   17.1950 C   0  0  0  0  0  3  0  0  0  0  0  0
   37.6560   46.1880   16.0680 N   0  0  0  0  0  0  0  0  0  0  0  0
   36.4480   46.8770   16.5180 C   0  0  0  0  0  2  0  0  0  0  0  0
   35.4140   45.9050   17.0770 C   0  0  0  0  0  2  0  0  0  0  0  0
   35.1580   44.7130   16.1270 C   0  0  1  0  0  3  0  0  0  0  0  0
   36.4860   44.0550   15.7500 C   0  0  0  0  0  2  0  0  0  0  0  0
   37.4600   45.0740   15.1530 C   0  0  0  0  0  2  0  0  0  0  0  0
   39.7370   46.9090   17.0830 C   0  0  0  0  0  0  0  0  0  0  0  0
   40.6900   46.6410   18.0590 C   0  0  0  0  0  0  0  0  0  0  0  0
   41.8090   47.4340   18.2400 N   0  0  0  0  0  0  0  0  0  0  0  0
   40.6290   45.5750   18.8650 N   0  0  0  0  0  0  0  0  0  0  0  0
   39.5580   44.7930   18.7240 C   0  0  0  0  0  3  0  0  0  0  0  0
   38.5720   44.9560   17.8370 N   0  0  0  0  0  0  0  0  0  0  0  0
   38.6660   46.0160   17.0160 C   0  0  0  0  0  0  0  0  0  0  0  0
   42.4060   47.0810   18.9800 H   0  0  0  0  0  0  0  0  0  0  0  0
   41.6790   48.4340   18.2210 H   0  0  0  0  0  0  0  0  0  0  0  0
   40.4140   47.8210   14.8440 C   0  0  0  0  0  1  0  0  0  0  0  0
   39.8190   48.1340   16.2090 C   0  0  0  0  0  2  0  0  0  0  0  0
   35.1960   42.4280   18.5800 C   0  0  0  0  0  2  0  0  0  0  0  0
   35.3540   42.9260   20.0130 C   0  0  0  0  0  3  0  0  0  0  0  0
   36.2570   42.1410   20.9910 C   0  0  0  0  0  2  0  0  0  0  0  0
   36.6800   43.4310   21.5700 N   0  0  0  0  0  4  0  0  0  0  0  0
   38.1540   43.4890   21.7440 C   0  0  0  0  0  1  0  0  0  0  0  0
   36.2590   44.1350   20.3430 C   0  0  0  0  0  2  0  0  0  0  0  0
   36.1580   43.7040   22.4130 H   0  0  0  0  0  0  0  0  0  0  0  0
  1  2  1  6  0  0  0
  1  5  1  0  0  0  0
  2  3  1  0  0  0  0
  3  6  1  6  0  0  0
  3  4  1  0  0  0  0
  5  4  1  0  0  0  0
  5 31  1  0  0  0  0
  6 13  1  0  0  0  0
  7  6  2  0  0  0  0
  8  7  1  0  0  0  0
  8  9  2  0  0  0  0
  9 11  1  0  0  0  0
 10  9  1  0  0  0  0
 11 13  2  0  0  0  0
 11 12  1  0  0  0  0
 14 15  1  0  0  0  0
 14 26  1  0  0  0  0
 15 16  1  0  0  0  0
 17 18  1  1  0  0  0
 17  1  1  0  0  0  0
 17 16  1  0  0  0  0
 19 18  1  0  0  0  0
 19 14  1  0  0  0  0
 20 21  1  0  0  0  0
 21 22  1  0  0  0  0
 21 23  2  0  0  0  0
 22 27  1  0  0  0  0
 24 23  1  0  0  0  0
 25 24  2  0  0  0  0
 26 20  2  0  0  0  0
 26 25  1  0  0  0  0
 28 22  1  0  0  0  0
 29 30  1  0  0  0  0
 30 20  1  0  0  0  0
 31 32  1  0  0  0  0
 32 36  1  0  0  0  0
 32 33  1  0  0  0  0
 33 34  1  0  0  0  0
 34 35  1  0  0  0  0
 34 37  1  0  0  0  0
 36 34  1  0  0  0  0
M  END
>  <minimizedAffinity>
-10.9150572

$$$$

 OpenBabel11232419123D

 37 41  0  0  1  0  0  0  0  0999 V2000
   36.2370   43.8180   18.4940 C   0  0  2  0  0  3  0  0  0  0  0  0
   37.0930   43.8030   19.5030 N   0  0  0  0  0  2  0  0  0  0  0  0
   38.0770   44.7140   19.2210 C   0  0  2  0  0  3  0  0  0  0  0  0
   37.9040   45.1830   17.9430 C   0  0  0  0  0  2  0  0  0  0  0  0
   36.8150   44.5040   17.4430 N   0  0  0  0  0  0  0  0  0  0  0  0
   39.1370   45.0640   20.1540 C   0  0  0  0  0  0  0  0  0  0  0  0
   40.4170   45.3550   19.6590 C   0  0  0  0  0  3  0  0  0  0  0  0
   41.4540   45.7030   20.5270 C   0  0  0  0  0  3  0  0  0  0  0  0
   41.2190   45.7490   21.8950 C   0  0  0  0  0  0  0  0  0  0  0  0
   42.2210   46.0950   22.7140 F   0  0  0  0  0  0  0  0  0  0  0  0
   39.9630   45.4410   22.4230 C   0  0  0  0  0  0  0  0  0  0  0  0
   39.7350   45.5050   23.9030 C   0  0  0  0  0  1  0  0  0  0  0  0
   38.9210   45.1090   21.5420 C   0  0  0  0  0  3  0  0  0  0  0  0
   32.0180   42.8690   18.2500 N   0  0  0  0  0  0  0  0  0  0  0  0
   32.5020   43.5660   19.4390 C   0  0  0  0  0  2  0  0  0  0  0  0
   33.8860   44.1700   19.2190 C   0  0  0  0  0  2  0  0  0  0  0  0
   34.8810   43.1490   18.6220 C   0  0  1  0  0  3  0  0  0  0  0  0
   34.2800   42.5090   17.3700 C   0  0  0  0  0  2  0  0  0  0  0  0
   32.9150   41.8820   17.6700 C   0  0  0  0  0  2  0  0  0  0  0  0
   30.0060   43.2370   16.9450 C   0  0  0  0  0  0  0  0  0  0  0  0
   29.3730   44.0640   16.0240 C   0  0  0  0  0  0  0  0  0  0  0  0
   28.1030   43.7990   15.5420 N   0  0  0  0  0  0  0  0  0  0  0  0
   29.9530   45.1460   15.4940 N   0  0  0  0  0  0  0  0  0  0  0  0
   31.1750   45.4350   15.9430 C   0  0  0  0  0  3  0  0  0  0  0  0
   31.8770   44.7300   16.8350 N   0  0  0  0  0  0  0  0  0  0  0  0
   31.2890   43.6290   17.3330 C   0  0  0  0  0  0  0  0  0  0  0  0
   27.8050   44.4920   14.8640 H   0  0  0  0  0  0  0  0  0  0  0  0
   27.4030   43.5080   16.2080 H   0  0  0  0  0  0  0  0  0  0  0  0
   29.5370   40.7810   16.7180 C   0  0  0  0  0  1  0  0  0  0  0  0
   29.3150   42.0400   17.5450 C   0  0  0  0  0  2  0  0  0  0  0  0
   36.5400   44.4550   16.0170 C   0  0  0  0  0  2  0  0  0  0  0  0
   36.6560   45.8050   15.3160 C   0  0  0  0  0  3  0  0  0  0  0  0
   37.6930   45.9810   14.1830 C   0  0  0  0  0  2  0  0  0  0  0  0
   36.7190   46.8420   13.4850 N   0  0  0  0  0  4  0  0  0  0  0  0
   36.6140   46.4840   12.0460 C   0  0  0  0  0  1  0  0  0  0  0  0
   35.6150   46.2510   14.2650 C   0  0  0  0  0  2  0  0  0  0  0  0
   36.8570   47.8490   13.6450 H   0  0  0  0  0  0  0  0  0  0  0  0
  1 17  1  0  0  0  0
  1  2  1  1  0  0  0
  3  2  1  0  0  0  0
  3  6  1  6  0  0  0
  4  3  1  0  0  0  0
  5  4  1  0  0  0  0
  5  1  1  0  0  0  0
  6 13  1  0  0  0  0
  7  6  2  0  0  0  0
  7  8  1  0  0  0  0
  8  9  2  0  0  0  0
  9 11  1  0  0  0  0
  9 10  1  0  0  0  0
 11 12  1  0  0  0  0
 13 11  2  0  0  0  0
 14 15  1  0  0  0  0
 16 15  1  0  0  0  0
 17 18  1  6  0  0  0
 17 16  1  0  0  0  0
 18 19  1  0  0  0  0
 19 14  1  0  0  0  0
 20 26  1  0  0  0  0
 20 30  1  0  0  0  0
 21 20  2  0  0  0  0
 22 21  1  0  0  0  0
 22 28  1  0  0  0  0
 23 24  2  0  0  0  0
 23 21  1  0  0  0  0
 24 25  1  0  0  0  0
 25 26  2  0  0  0  0
 26 14  1  0  0  0  0
 27 22  1  0  0  0  0
 29 30  1  0  0  0  0
 31  5  1  0  0  0  0
 32 31  1  0  0  0  0
 33 32  1  0  0  0  0
 34 37  1  0  0  0  0
 34 33  1  0  0  0  0
 34 36  1  0  0  0  0
 35 34  1  0  0  0  0
 36 32  1  0  0  0  0
M  END
>  <minimizedAffinity>
-10.8454952

$$$$

 OpenBabel11232419123D

 37 41  0  0  1  0  0  0  0  0999 V2000
   38.1380   44.4050   20.1600 C   0  0  2  0  0  3  0  0  0  0  0  0
   38.9910   45.0850   19.4110 N   0  0  0  0  0  2  0  0  0  0  0  0
   38.3140   45.5050   18.2960 C   0  0  2  0  0  3  0  0  0  0  0  0
   37.0640   44.9380   18.2880 C   0  0  0  0  0  2  0  0  0  0  0  0
   37.0150   44.1330   19.4050 N   0  0  0  0  0  0  0  0  0  0  0  0
   38.8910   46.3830   17.2910 C   0  0  0  0  0  0  0  0  0  0  0  0
   40.1340   46.9870   17.5400 C   0  0  0  0  0  3  0  0  0  0  0  0
   40.7200   47.8280   16.5920 C   0  0  0  0  0  3  0  0  0  0  0  0
   40.0600   48.0800   15.3960 C   0  0  0  0  0  0  0  0  0  0  0  0
   40.6410   48.8810   14.4930 F   0  0  0  0  0  0  0  0  0  0  0  0
   38.8110   47.5160   15.1260 C   0  0  0  0  0  0  0  0  0  0  0  0
   38.1250   47.8000   13.8240 C   0  0  0  0  0  1  0  0  0  0  0  0
   38.2370   46.6570   16.0770 C   0  0  0  0  0  3  0  0  0  0  0  0
   38.8640   44.5640   24.4280 N   0  0  0  0  0  0  0  0  0  0  0  0
   39.9990   44.7470   23.5260 C   0  0  0  0  0  2  0  0  0  0  0  0
   39.5480   45.0550   22.1010 C   0  0  0  0  0  2  0  0  0  0  0  0
   38.4810   44.0580   21.5980 C   0  0  1  0  0  3  0  0  0  0  0  0
   37.3340   43.9730   22.6040 C   0  0  0  0  0  2  0  0  0  0  0  0
   37.8480   43.6150   24.0020 C   0  0  0  0  0  2  0  0  0  0  0  0
   37.7830   45.6170   26.3260 C   0  0  0  0  0  0  0  0  0  0  0  0
   37.3370   46.8160   26.8720 C   0  0  0  0  0  0  0  0  0  0  0  0
   36.7130   46.8820   28.1060 N   0  0  0  0  0  0  0  0  0  0  0  0
   37.4310   47.9880   26.2340 N   0  0  0  0  0  0  0  0  0  0  0  0
   38.0350   47.9620   25.0460 C   0  0  0  0  0  3  0  0  0  0  0  0
   38.5160   46.8800   24.4270 N   0  0  0  0  0  0  0  0  0  0  0  0
   38.3860   45.7070   25.0710 C   0  0  0  0  0  0  0  0  0  0  0  0
   36.4380   47.8300   28.3380 H   0  0  0  0  0  0  0  0  0  0  0  0
   37.1140   46.3450   28.8600 H   0  0  0  0  0  0  0  0  0  0  0  0
   36.2810   43.7400   27.0500 C   0  0  0  0  0  1  0  0  0  0  0  0
   37.6890   44.3180   27.0830 C   0  0  0  0  0  2  0  0  0  0  0  0
   36.0060   43.0980   19.5500 C   0  0  0  0  0  2  0  0  0  0  0  0
   34.7310   43.3580   18.7530 C   0  0  0  0  0  3  0  0  0  0  0  0
   34.2360   42.2910   17.7500 C   0  0  0  0  0  2  0  0  0  0  0  0
   32.8530   42.6280   18.1400 N   0  0  0  0  0  4  0  0  0  0  0  0
   32.0470   41.4050   18.3880 C   0  0  0  0  0  1  0  0  0  0  0  0
   33.3370   43.2130   19.4050 C   0  0  0  0  0  2  0  0  0  0  0  0
   32.3920   43.3010   17.5130 H   0  0  0  0  0  0  0  0  0  0  0  0
  1  2  1  1  0  0  0
  1 17  1  0  0  0  0
  3  6  1  6  0  0  0
  3  2  1  0  0  0  0
  4  3  1  0  0  0  0
  4  5  1  0  0  0  0
  5 31  1  0  0  0  0
  5  1  1  0  0  0  0
  6  7  1  0  0  0  0
  8  7  2  0  0  0  0
  9  8  1  0  0  0  0
 10  9  1  0  0  0  0
 11  9  2  0  0  0  0
 11 13  1  0  0  0  0
 12 11  1  0  0  0  0
 13  6  2  0  0  0  0
 14 26  1  0  0  0  0
 15 14  1  0  0  0  0
 16 15  1  0  0  0  0
 17 16  1  1  0  0  0
 17 18  1  0  0  0  0
 18 19  1  0  0  0  0
 19 14  1  0  0  0  0
 20 21  1  0  0  0  0
 20 30  1  0  0  0  0
 21 22  1  0  0  0  0
 22 27  1  0  0  0  0
 22 28  1  0  0  0  0
 23 21  2  0  0  0  0
 24 23  1  0  0  0  0
 25 24  2  0  0  0  0
 25 26  1  0  0  0  0
 26 20  2  0  0  0  0
 29 30  1  0  0  0  0
 32 36  1  0  0  0  0
 32 31  1  0  0  0  0
 33 34  1  0  0  0  0
 33 32  1  0  0  0  0
 34 35  1  0  0  0  0
 34 36  1  0  0  0  0
 37 34  1  0  0  0  0
M  END
>  <minimizedAffinity>
-10.2701054

$$$$

 OpenBabel11232419123D

 37 41  0  0  1  0  0  0  0  0999 V2000
   33.5100   42.7410   17.8890 C   0  0  1  0  0  3  0  0  0  0  0  0
   33.1180   41.6940   18.5960 N   0  0  0  0  0  2  0  0  0  0  0  0
   31.8120   41.4410   18.2660 C   0  0  2  0  0  3  0  0  0  0  0  0
   31.3480   42.4500   17.4590 C   0  0  0  0  0  2  0  0  0  0  0  0
   32.3930   43.3400   17.3410 N   0  0  0  0  0  0  0  0  0  0  0  0
   31.0700   40.2890   18.7540 C   0  0  0  0  0  0  0  0  0  0  0  0
   29.8500   39.9520   18.1480 C   0  0  0  0  0  3  0  0  0  0  0  0
   29.1180   38.8470   18.5870 C   0  0  0  0  0  3  0  0  0  0  0  0
   29.5960   38.0810   19.6420 C   0  0  0  0  0  0  0  0  0  0  0  0
   28.8870   37.0180   20.0440 F   0  0  0  0  0  0  0  0  0  0  0  0
   30.7940   38.4030   20.2840 C   0  0  0  0  0  0  0  0  0  0  0  0
   31.2900   37.5550   21.4150 C   0  0  0  0  0  1  0  0  0  0  0  0
   31.5330   39.5050   19.8250 C   0  0  0  0  0  3  0  0  0  0  0  0
   37.3100   44.4870   16.7570 N   0  0  0  0  0  0  0  0  0  0  0  0
   36.9160   43.2240   16.1350 C   0  0  0  0  0  2  0  0  0  0  0  0
   35.4280   42.9390   16.3210 C   0  0  0  0  0  2  0  0  0  0  0  0
   34.9820   43.1000   17.7920 C   0  0  1  0  0  3  0  0  0  0  0  0
   35.4210   44.4640   18.3220 C   0  0  0  0  0  2  0  0  0  0  0  0
   36.9290   44.6680   18.1480 C   0  0  0  0  0  2  0  0  0  0  0  0
   38.0470   46.7300   16.2040 C   0  0  0  0  0  0  0  0  0  0  0  0
   37.8760   47.8160   15.3520 C   0  0  0  0  0  0  0  0  0  0  0  0
   38.6140   48.9800   15.4780 N   0  0  0  0  0  0  0  0  0  0  0  0
   36.9580   47.8430   14.3800 N   0  0  0  0  0  0  0  0  0  0  0  0
   36.2350   46.7340   14.2250 C   0  0  0  0  0  3  0  0  0  0  0  0
   36.3180   45.6260   14.9670 N   0  0  0  0  0  0  0  0  0  0  0  0
   37.2260   45.6290   15.9580 C   0  0  0  0  0  0  0  0  0  0  0  0
   38.3460   49.6730   14.7880 H   0  0  0  0  0  0  0  0  0  0  0  0
   39.6050   48.8870   15.6440 H   0  0  0  0  0  0  0  0  0  0  0  0
   40.4680   46.3080   16.7200 C   0  0  0  0  0  1  0  0  0  0  0  0
   39.1100   46.7190   17.2720 C   0  0  0  0  0  2  0  0  0  0  0  0
   32.1830   44.6990   16.8710 C   0  0  0  0  0  2  0  0  0  0  0  0
   30.9310   44.8720   16.0160 C   0  0  0  0  0  3  0  0  0  0  0  0
   30.5920   46.2700   15.4480 C   0  0  0  0  0  2  0  0  0  0  0  0
   30.1080   45.6060   14.2220 N   0  0  0  0  0  4  0  0  0  0  0  0
   30.6260   46.2790   13.0020 C   0  0  0  0  0  1  0  0  0  0  0  0
   30.8980   44.4030   14.5440 C   0  0  0  0  0  2  0  0  0  0  0  0
   29.0910   45.4510   14.2020 H   0  0  0  0  0  0  0  0  0  0  0  0
  1  2  1  1  0  0  0
  3  2  1  0  0  0  0
  3  6  1  1  0  0  0
  4  3  1  0  0  0  0
  5  4  1  0  0  0  0
  5  1  1  0  0  0  0
  6 13  1  0  0  0  0
  7  8  1  0  0  0  0
  7  6  2  0  0  0  0
  8  9  2  0  0  0  0
  9 10  1  0  0  0  0
  9 11  1  0  0  0  0
 11 12  1  0  0  0  0
 13 11  2  0  0  0  0
 14 19  1  0  0  0  0
 15 16  1  0  0  0  0
 15 14  1  0  0  0  0
 17 16  1  6  0  0  0
 17  1  1  0  0  0  0
 17 18  1  0  0  0  0
 19 18  1  0  0  0  0
 20 30  1  0  0  0  0
 21 22  1  0  0  0  0
 21 20  2  0  0  0  0
 22 28  1  0  0  0  0
 23 21  1  0  0  0  0
 24 23  2  0  0  0  0
 24 25  1  0  0  0  0
 25 26  2  0  0  0  0
 26 20  1  0  0  0  0
 26 14  1  0  0  0  0
 27 22  1  0  0  0  0
 29 30  1  0  0  0  0
 31  5  1  0  0  0  0
 32 31  1  0  0  0  0
 33 32  1  0  0  0  0
 34 36  1  0  0  0  0
 34 33  1  0  0  0  0
 35 34  1  0  0  0  0
 36 32  1  0  0  0  0
 37 34  1  0  0  0  0
M  END
>  <minimizedAffinity>
-10.1628323

$$$$

 OpenBabel11232419123D

 37 41  0  0  1  0  0  0  0  0999 V2000
   32.0430   41.6270   18.2260 C   0  0  2  0  0  3  0  0  0  0  0  0
   31.8310   40.8620   19.2850 N   0  0  0  0  0  2  0  0  0  0  0  0
   30.8370   39.9760   18.9600 C   0  0  2  0  0  3  0  0  0  0  0  0
   30.3220   40.3080   17.7320 C   0  0  0  0  0  2  0  0  0  0  0  0
   31.0020   41.4410   17.3390 N   0  0  0  0  0  0  0  0  0  0  0  0
   30.4090   38.8960   19.8350 C   0  0  0  0  0  0  0  0  0  0  0  0
   31.3320   38.3280   20.7250 C   0  0  0  0  0  3  0  0  0  0  0  0
   30.9510   37.2950   21.5840 C   0  0  0  0  0  3  0  0  0  0  0  0
   29.6470   36.8180   21.5480 C   0  0  0  0  0  0  0  0  0  0  0  0
   29.2940   35.8340   22.3860 F   0  0  0  0  0  0  0  0  0  0  0  0
   28.7090   37.3440   20.6570 C   0  0  0  0  0  0  0  0  0  0  0  0
   27.3070   36.8160   20.6450 C   0  0  0  0  0  1  0  0  0  0  0  0
   29.0960   38.3940   19.8090 C   0  0  0  0  0  3  0  0  0  0  0  0
   35.7180   43.7460   19.1040 N   0  0  0  0  0  0  0  0  0  0  0  0
   34.4510   44.4360   19.3310 C   0  0  0  0  0  2  0  0  0  0  0  0
   33.2730   43.4660   19.3580 C   0  0  0  0  0  2  0  0  0  0  0  0
   33.2760   42.5090   18.1450 C   0  0  1  0  0  3  0  0  0  0  0  0
   34.6370   41.8240   18.0270 C   0  0  0  0  0  2  0  0  0  0  0  0
   35.7700   42.8520   17.9580 C   0  0  0  0  0  2  0  0  0  0  0  0
   37.6070   43.9010   20.6180 C   0  0  0  0  0  0  0  0  0  0  0  0
   38.2060   43.3820   21.7600 C   0  0  0  0  0  0  0  0  0  0  0  0
   39.4060   43.8660   22.2520 N   0  0  0  0  0  0  0  0  0  0  0  0
   37.7020   42.3480   22.4430 N   0  0  0  0  0  0  0  0  0  0  0  0
   36.5420   41.8630   22.0010 C   0  0  0  0  0  3  0  0  0  0  0  0
   35.8650   42.2860   20.9300 N   0  0  0  0  0  0  0  0  0  0  0  0
   36.4020   43.3060   20.2390 C   0  0  0  0  0  0  0  0  0  0  0  0
   39.7060   43.3590   23.0780 H   0  0  0  0  0  0  0  0  0  0  0  0
   39.5260   44.8670   22.2840 H   0  0  0  0  0  0  0  0  0  0  0  0
   39.1380   44.6590   18.7780 C   0  0  0  0  0  1  0  0  0  0  0  0
   38.1850   45.0850   19.8860 C   0  0  0  0  0  2  0  0  0  0  0  0
   30.5010   42.2950   16.2760 C   0  0  0  0  0  2  0  0  0  0  0  0
   30.7070   43.7850   16.5290 C   0  0  0  0  0  3  0  0  0  0  0  0
   31.8190   44.5360   15.7610 C   0  0  0  0  0  2  0  0  0  0  0  0
   30.9210   45.7050   15.6890 N   0  0  0  0  0  4  0  0  0  0  0  0
   30.8950   46.2840   14.3210 C   0  0  0  0  0  1  0  0  0  0  0  0
   29.7500   44.8380   15.9240 C   0  0  0  0  0  2  0  0  0  0  0  0
   31.0830   46.4050   16.4260 H   0  0  0  0  0  0  0  0  0  0  0  0
  1  2  1  6  0  0  0
  3  2  1  0  0  0  0
  3  6  1  1  0  0  0
  4  3  1  0  0  0  0
  5  4  1  0  0  0  0
  5  1  1  0  0  0  0
  6  7  1  0  0  0  0
  7  8  2  0  0  0  0
  9  8  1  0  0  0  0
  9 10  1  0  0  0  0
 11  9  2  0  0  0  0
 12 11  1  0  0  0  0
 13  6  2  0  0  0  0
 13 11  1  0  0  0  0
 14 15  1  0  0  0  0
 14 26  1  0  0  0  0
 15 16  1  0  0  0  0
 17 18  1  1  0  0  0
 17  1  1  0  0  0  0
 17 16  1  0  0  0  0
 19 18  1  0  0  0  0
 19 14  1  0  0  0  0
 20 21  1  0  0  0  0
 21 22  1  0  0  0  0
 21 23  2  0  0  0  0
 22 28  1  0  0  0  0
 22 27  1  0  0  0  0
 24 23  1  0  0  0  0
 25 24  2  0  0  0  0
 26 20  2  0  0  0  0
 26 25  1  0  0  0  0
 29 30  1  0  0  0  0
 30 20  1  0  0  0  0
 31 32  1  0  0  0  0
 31  5  1  0  0  0  0
 33 32  1  0  0  0  0
 34 33  1  0  0  0  0
 34 36  1  0  0  0  0
 34 37  1  0  0  0  0
 35 34  1  0  0  0  0
 36 32  1  0  0  0  0
M  END
>  <minimizedAffinity>
-10.0250158

$$$$

 OpenBabel11232419123D

 37 41  0  0  1  0  0  0  0  0999 V2000
   35.1140   42.9140   19.4050 C   0  0  2  0  0  3  0  0  0  0  0  0
   34.0490   42.1480   19.5720 N   0  0  0  0  0  2  0  0  0  0  0  0
   33.2300   42.3400   18.4900 C   0  0  2  0  0  3  0  0  0  0  0  0
   33.7300   43.3630   17.7230 C   0  0  0  0  0  2  0  0  0  0  0  0
   34.8510   43.8110   18.3880 N   0  0  0  0  0  0  0  0  0  0  0  0
   32.0130   41.5790   18.2600 C   0  0  0  0  0  0  0  0  0  0  0  0
   30.9710   42.1580   17.5200 C   0  0  0  0  0  3  0  0  0  0  0  0
   29.7930   41.4500   17.2730 C   0  0  0  0  0  3  0  0  0  0  0  0
   29.6460   40.1640   17.7760 C   0  0  0  0  0  0  0  0  0  0  0  0
   28.5140   39.4940   17.5220 F   0  0  0  0  0  0  0  0  0  0  0  0
   30.6530   39.5670   18.5380 C   0  0  0  0  0  0  0  0  0  0  0  0
   30.4710   38.1750   19.0630 C   0  0  0  0  0  1  0  0  0  0  0  0
   31.8410   40.2780   18.7660 C   0  0  0  0  0  3  0  0  0  0  0  0
   37.9700   42.9300   22.6630 N   0  0  0  0  0  0  0  0  0  0  0  0
   38.0430   44.0030   21.6740 C   0  0  0  0  0  2  0  0  0  0  0  0
   36.7700   44.0920   20.8370 C   0  0  0  0  0  2  0  0  0  0  0  0
   36.3490   42.7190   20.2660 C   0  0  1  0  0  3  0  0  0  0  0  0
   36.2770   41.6880   21.3930 C   0  0  0  0  0  2  0  0  0  0  0  0
   37.5990   41.6150   22.1620 C   0  0  0  0  0  2  0  0  0  0  0  0
   37.7300   44.5030   24.4930 C   0  0  0  0  0  0  0  0  0  0  0  0
   37.1620   44.7320   25.7410 C   0  0  0  0  0  0  0  0  0  0  0  0
   37.3610   45.9080   26.4420 N   0  0  0  0  0  0  0  0  0  0  0  0
   36.4220   43.8210   26.3840 N   0  0  0  0  0  0  0  0  0  0  0  0
   36.2030   42.6780   25.7340 C   0  0  0  0  0  3  0  0  0  0  0  0
   36.6790   42.3500   24.5300 N   0  0  0  0  0  0  0  0  0  0  0  0
   37.4450   43.2660   23.9120 C   0  0  0  0  0  0  0  0  0  0  0  0
   36.8900   45.8970   27.3400 H   0  0  0  0  0  0  0  0  0  0  0  0
   37.2990   46.7730   25.9260 H   0  0  0  0  0  0  0  0  0  0  0  0
   39.9960   45.5460   24.2100 C   0  0  0  0  0  1  0  0  0  0  0  0
   38.5350   45.5600   23.7820 C   0  0  0  0  0  2  0  0  0  0  0  0
   35.4450   45.1030   18.0900 C   0  0  0  0  0  2  0  0  0  0  0  0
   36.5910   45.0420   17.0850 C   0  0  0  0  0  3  0  0  0  0  0  0
   36.9570   46.3090   16.2780 C   0  0  0  0  0  2  0  0  0  0  0  0
   38.3750   45.9170   16.3880 N   0  0  0  0  0  4  0  0  0  0  0  0
   39.2270   47.0700   16.7800 C   0  0  0  0  0  1  0  0  0  0  0  0
   38.0640   45.0640   17.5510 C   0  0  0  0  0  2  0  0  0  0  0  0
   38.7340   45.4030   15.5720 H   0  0  0  0  0  0  0  0  0  0  0  0
  1  2  1  6  0  0  0
  1 17  1  0  0  0  0
  3  6  1  1  0  0  0
  3  2  1  0  0  0  0
  4  5  1  0  0  0  0
  4  3  1  0  0  0  0
  5  1  1  0  0  0  0
  6 13  1  0  0  0  0
  7  6  2  0  0  0  0
  8  7  1  0  0  0  0
  8  9  2  0  0  0  0
  9 11  1  0  0  0  0
 10  9  1  0  0  0  0
 11 13  2  0  0  0  0
 11 12  1  0  0  0  0
 14 26  1  0  0  0  0
 15 14  1  0  0  0  0
 16 15  1  0  0  0  0
 17 16  1  1  0  0  0
 17 18  1  0  0  0  0
 18 19  1  0  0  0  0
 19 14  1  0  0  0  0
 20 21  1  0  0  0  0
 21 23  2  0  0  0  0
 21 22  1  0  0  0  0
 22 27  1  0  0  0  0
 24 23  1  0  0  0  0
 25 24  2  0  0  0  0
 26 20  2  0  0  0  0
 26 25  1  0  0  0  0
 28 22  1  0  0  0  0
 30 29  1  0  0  0  0
 30 20  1  0  0  0  0
 31  5  1  0  0  0  0
 32 36  1  0  0  0  0
 32 31  1  0  0  0  0
 33 34  1  0  0  0  0
 33 32  1  0  0  0  0
 34 35  1  0  0  0  0
 34 36  1  0  0  0  0
 37 34  1  0  0  0  0
M  END
>  <minimizedAffinity>
-9.82532501

$$$$

 OpenBabel11232419123D

 37 41  0  0  1  0  0  0  0  0999 V2000
   31.1420   41.1940   17.8300 C   0  0  2  0  0  3  0  0  0  0  0  0
   31.0980   40.6220   19.0220 N   0  0  0  0  0  2  0  0  0  0  0  0
   30.2990   39.5130   18.9170 C   0  0  2  0  0  3  0  0  0  0  0  0
   29.7170   39.4940   17.6740 C   0  0  0  0  0  2  0  0  0  0  0  0
   30.1520   40.6400   17.0440 N   0  0  0  0  0  0  0  0  0  0  0  0
   30.1050   38.5600   19.9970 C   0  0  0  0  0  0  0  0  0  0  0  0
   31.1880   38.2320   20.8260 C   0  0  0  0  0  3  0  0  0  0  0  0
   31.0330   37.3270   21.8780 C   0  0  0  0  0  3  0  0  0  0  0  0
   29.7950   36.7360   22.0980 C   0  0  0  0  0  0  0  0  0  0  0  0
   29.6600   35.8780   23.1180 F   0  0  0  0  0  0  0  0  0  0  0  0
   28.7020   37.0200   21.2770 C   0  0  0  0  0  0  0  0  0  0  0  0
   27.3760   36.3730   21.5420 C   0  0  0  0  0  1  0  0  0  0  0  0
   28.8620   37.9450   20.2330 C   0  0  0  0  0  3  0  0  0  0  0  0
   34.4910   43.9350   18.0330 N   0  0  0  0  0  0  0  0  0  0  0  0
   33.1800   44.4100   18.4730 C   0  0  0  0  0  2  0  0  0  0  0  0
   32.2100   43.2570   18.7140 C   0  0  0  0  0  2  0  0  0  0  0  0
   32.1710   42.2680   17.5270 C   0  0  1  0  0  3  0  0  0  0  0  0
   33.5900   41.8190   17.1780 C   0  0  0  0  0  2  0  0  0  0  0  0
   34.5000   43.0200   16.9030 C   0  0  0  0  0  2  0  0  0  0  0  0
   36.6610   44.3070   19.0490 C   0  0  0  0  0  0  0  0  0  0  0  0
   37.5170   43.9550   20.0870 C   0  0  0  0  0  0  0  0  0  0  0  0
   38.7780   44.5070   20.2260 N   0  0  0  0  0  0  0  0  0  0  0  0
   37.2130   43.0270   20.9990 N   0  0  0  0  0  0  0  0  0  0  0  0
   36.0010   42.4800   20.9000 C   0  0  0  0  0  3  0  0  0  0  0  0
   35.0890   42.7460   19.9610 N   0  0  0  0  0  0  0  0  0  0  0  0
   35.4240   43.6610   19.0340 C   0  0  0  0  0  0  0  0  0  0  0  0
   39.2720   44.1230   21.0240 H   0  0  0  0  0  0  0  0  0  0  0  0
   38.8680   45.5030   20.0940 H   0  0  0  0  0  0  0  0  0  0  0  0
   37.7190   44.8040   16.8260 C   0  0  0  0  0  1  0  0  0  0  0  0
   37.0220   45.3780   18.0520 C   0  0  0  0  0  2  0  0  0  0  0  0
   29.4800   41.1580   15.8640 C   0  0  0  0  0  2  0  0  0  0  0  0
   28.2090   41.9450   16.1700 C   0  0  0  0  0  3  0  0  0  0  0  0
   26.9170   41.1810   16.5380 C   0  0  0  0  0  2  0  0  0  0  0  0
   26.6040   42.2580   17.4970 N   0  0  0  0  0  4  0  0  0  0  0  0
   26.1760   41.7070   18.8090 C   0  0  0  0  0  1  0  0  0  0  0  0
   28.0220   42.6650   17.5260 C   0  0  0  0  0  2  0  0  0  0  0  0
   25.9670   42.9770   17.1280 H   0  0  0  0  0  0  0  0  0  0  0  0
  1  2  1  6  0  0  0
  3  2  1  0  0  0  0
  3  6  1  1  0  0  0
  4  3  1  0  0  0  0
  5  4  1  0  0  0  0
  5  1  1  0  0  0  0
  6 13  2  0  0  0  0
  6  7  1  0  0  0  0
  7  8  2  0  0  0  0
  8  9  1  0  0  0  0
  9 10  1  0  0  0  0
 11 12  1  0  0  0  0
 11  9  2  0  0  0  0
 13 11  1  0  0  0  0
 14 15  1  0  0  0  0
 14 26  1  0  0  0  0
 15 16  1  0  0  0  0
 17 18  1  1  0  0  0
 17  1  1  0  0  0  0
 17 16  1  0  0  0  0
 19 18  1  0  0  0  0
 19 14  1  0  0  0  0
 20 21  1  0  0  0  0
 21 22  1  0  0  0  0
 21 23  2  0  0  0  0
 22 27  1  0  0  0  0
 24 23  1  0  0  0  0
 25 24  2  0  0  0  0
 26 20  2  0  0  0  0
 26 25  1  0  0  0  0
 28 22  1  0  0  0  0
 29 30  1  0  0  0  0
 30 20  1  0  0  0  0
 31 32  1  0  0  0  0
 31  5  1  0  0  0  0
 32 33  1  0  0  0  0
 32 36  1  0  0  0  0
 33 34  1  0  0  0  0
 34 36  1  0  0  0  0
 34 35  1  0  0  0  0
 37 34  1  0  0  0  0
M  END
>  <minimizedAffinity>
-9.68117142

$$$$

 OpenBabel11232419123D

 37 41  0  0  1  0  0  0  0  0999 V2000
   36.9460   44.1210   19.2300 C   0  0  2  0  0  3  0  0  0  0  0  0
   35.6250   44.1760   19.2590 N   0  0  0  0  0  2  0  0  0  0  0  0
   35.1860   44.2360   17.9620 C   0  0  2  0  0  3  0  0  0  0  0  0
   36.2670   44.3800   17.1280 C   0  0  0  0  0  2  0  0  0  0  0  0
   37.3670   44.4440   17.9550 N   0  0  0  0  0  0  0  0  0  0  0  0
   33.7820   44.1900   17.5880 C   0  0  0  0  0  0  0  0  0  0  0  0
   32.8830   43.4670   18.3860 C   0  0  0  0  0  3  0  0  0  0  0  0
   31.5260   43.4100   18.0590 C   0  0  0  0  0  3  0  0  0  0  0  0
   31.0650   44.0670   16.9260 C   0  0  0  0  0  0  0  0  0  0  0  0
   29.7590   44.0120   16.6310 F   0  0  0  0  0  0  0  0  0  0  0  0
   31.9370   44.7760   16.0960 C   0  0  0  0  0  0  0  0  0  0  0  0
   31.4100   45.4810   14.8830 C   0  0  0  0  0  1  0  0  0  0  0  0
   33.2960   44.8420   16.4410 C   0  0  0  0  0  3  0  0  0  0  0  0
   38.9160   44.1700   23.0880 N   0  0  0  0  0  0  0  0  0  0  0  0
   39.7090   44.4900   21.9020 C   0  0  0  0  0  2  0  0  0  0  0  0
   38.8270   44.8140   20.7000 C   0  0  0  0  0  2  0  0  0  0  0  0
   37.7320   43.7470   20.4740 C   0  0  1  0  0  3  0  0  0  0  0  0
   36.9520   43.5200   21.7690 C   0  0  0  0  0  2  0  0  0  0  0  0
   37.8890   43.1530   22.9230 C   0  0  0  0  0  2  0  0  0  0  0  0
   37.9200   45.0180   25.1300 C   0  0  0  0  0  0  0  0  0  0  0  0
   37.6210   46.1540   25.8750 C   0  0  0  0  0  0  0  0  0  0  0  0
   36.9690   46.0910   27.0940 N   0  0  0  0  0  0  0  0  0  0  0  0
   37.8920   47.3940   25.4540 N   0  0  0  0  0  0  0  0  0  0  0  0
   38.5290   47.4920   24.2860 C   0  0  0  0  0  3  0  0  0  0  0  0
   38.8810   46.4770   23.4910 N   0  0  0  0  0  0  0  0  0  0  0  0
   38.5740   45.2400   23.9170 C   0  0  0  0  0  0  0  0  0  0  0  0
   36.8150   47.0130   27.4870 H   0  0  0  0  0  0  0  0  0  0  0  0
   37.2690   45.3810   27.7450 H   0  0  0  0  0  0  0  0  0  0  0  0
   38.7630   43.0910   26.5020 C   0  0  0  0  0  1  0  0  0  0  0  0
   37.6270   43.6330   25.6450 C   0  0  0  0  0  2  0  0  0  0  0  0
   38.6430   44.9520   17.4810 C   0  0  0  0  0  2  0  0  0  0  0  0
   38.6820   46.4670   17.3060 C   0  0  0  0  0  3  0  0  0  0  0  0
   40.0490   47.1850   17.2300 C   0  0  0  0  0  2  0  0  0  0  0  0
   39.4640   48.1000   16.2310 N   0  0  0  0  0  4  0  0  0  0  0  0
   40.3710   48.2810   15.0670 C   0  0  0  0  0  1  0  0  0  0  0  0
   38.4020   47.1200   15.9330 C   0  0  0  0  0  2  0  0  0  0  0  0
   39.1220   48.9880   16.6230 H   0  0  0  0  0  0  0  0  0  0  0  0
  1  2  1  6  0  0  0
  1 17  1  0  0  0  0
  3  6  1  1  0  0  0
  3  2  1  0  0  0  0
  4  5  1  0  0  0  0
  4  3  1  0  0  0  0
  5  1  1  0  0  0  0
  6  7  1  0  0  0  0
  8  7  2  0  0  0  0
  9  8  1  0  0  0  0
 10  9  1  0  0  0  0
 11 13  1  0  0  0  0
 11  9  2  0  0  0  0
 12 11  1  0  0  0  0
 13  6  2  0  0  0  0
 14 26  1  0  0  0  0
 15 14  1  0  0  0  0
 16 15  1  0  0  0  0
 17 16  1  1  0  0  0
 17 18  1  0  0  0  0
 18 19  1  0  0  0  0
 19 14  1  0  0  0  0
 20 30  1  0  0  0  0
 20 21  1  0  0  0  0
 21 22  1  0  0  0  0
 22 27  1  0  0  0  0
 22 28  1  0  0  0  0
 23 21  2  0  0  0  0
 24 23  1  0  0  0  0
 25 26  1  0  0  0  0
 25 24  2  0  0  0  0
 26 20  2  0  0  0  0
 30 29  1  0  0  0  0
 31  5  1  0  0  0  0
 32 31  1  0  0  0  0
 33 32  1  0  0  0  0
 34 37  1  0  0  0  0
 34 33  1  0  0  0  0
 35 34  1  0  0  0  0
 36 34  1  0  0  0  0
 36 32  1  0  0  0  0
M  END
>  <minimizedAffinity>
-9.66154099

$$$$
