
 OpenBabel11232419123D

 37 41  0  0  1  0  0  0  0  0999 V2000
   34.0790   43.8360   16.7350 C   0  0  1  0  0  3  0  0  0  0  0  0
   32.8860   43.7480   16.1710 N   0  0  0  0  0  2  0  0  0  0  0  0
   32.0470   43.1480   17.0740 C   0  0  2  0  0  3  0  0  0  0  0  0
   32.7800   42.7170   18.1520 C   0  0  0  0  0  2  0  0  0  0  0  0
   34.0890   43.0370   17.8610 N   0  0  0  0  0  0  0  0  0  0  0  0
   30.6190   42.9850   16.8560 C   0  0  0  0  0  0  0  0  0  0  0  0
   29.8850   44.0430   16.3010 C   0  0  0  0  0  3  0  0  0  0  0  0
   28.5130   43.9160   16.0710 C   0  0  0  0  0  3  0  0  0  0  0  0
   27.8680   42.7330   16.4050 C   0  0  0  0  0  0  0  0  0  0  0  0
   26.5540   42.6220   16.1680 F   0  0  0  0  0  0  0  0  0  0  0  0
   28.5640   41.6680   16.9820 C   0  0  0  0  0  0  0  0  0  0  0  0
   27.8430   40.4000   17.3270 C   0  0  0  0  0  1  0  0  0  0  0  0
   29.9450   41.7980   17.1950 C   0  0  0  0  0  3  0  0  0  0  0  0
   37.6560   46.1880   16.0680 N   0  0  0  0  0  0  0  0  0  0  0  0
   36.4480   46.8770   16.5180 C   0  0  0  0  0  2  0  0  0  0  0  0
   35.4140   45.9050   17.0770 C   0  0  0  0  0  2  0  0  0  0  0  0
   35.1580   44.7130   16.1270 C   0  0  1  0  0  3  0  0  0  0  0  0
   36.4860   44.0550   15.7500 C   0  0  0  0  0  2  0  0  0  0  0  0
   37.4600   45.0740   15.1530 C   0  0  0  0  0  2  0  0  0  0  0  0
   39.7370   46.9090   17.0830 C   0  0  0  0  0  0  0  0  0  0  0  0
   40.6900   46.6410   18.0590 C   0  0  0  0  0  0  0  0  0  0  0  0
   41.8090   47.4340   18.2400 N   0  0  0  0  0  0  0  0  0  0  0  0
   40.6290   45.5750   18.8650 N   0  0  0  0  0  0  0  0  0  0  0  0
   39.5580   44.7930   18.7240 C   0  0  0  0  0  3  0  0  0  0  0  0
   38.5720   44.9560   17.8370 N   0  0  0  0  0  0  0  0  0  0  0  0
   38.6660   46.0160   17.0160 C   0  0  0  0  0  0  0  0  0  0  0  0
   42.4060   47.0810   18.9800 H   0  0  0  0  0  0  0  0  0  0  0  0
   41.6790   48.4340   18.2210 H   0  0  0  0  0  0  0  0  0  0  0  0
   40.4140   47.8210   14.8440 C   0  0  0  0  0  1  0  0  0  0  0  0
   39.8190   48.1340   16.2090 C   0  0  0  0  0  2  0  0  0  0  0  0
   35.1960   42.4280   18.5800 C   0  0  0  0  0  2  0  0  0  0  0  0
   35.3540   42.9260   20.0130 C   0  0  0  0  0  3  0  0  0  0  0  0
   36.2570   42.1410   20.9910 C   0  0  0  0  0  2  0  0  0  0  0  0
   36.6800   43.4310   21.5700 N   0  0  0  0  0  4  0  0  0  0  0  0
   38.1540   43.4890   21.7440 C   0  0  0  0  0  1  0  0  0  0  0  0
   36.2590   44.1350   20.3430 C   0  0  0  0  0  2  0  0  0  0  0  0
   36.1580   43.7040   22.4130 H   0  0  0  0  0  0  0  0  0  0  0  0
  1  2  1  6  0  0  0
  1  5  1  0  0  0  0
  2  3  1  0  0  0  0
  3  6  1  6  0  0  0
  3  4  1  0  0  0  0
  5  4  1  0  0  0  0
  5 31  1  0  0  0  0
  6 13  1  0  0  0  0
  7  6  2  0  0  0  0
  8  7  1  0  0  0  0
  8  9  2  0  0  0  0
  9 11  1  0  0  0  0
 10  9  1  0  0  0  0
 11 13  2  0  0  0  0
 11 12  1  0  0  0  0
 14 15  1  0  0  0  0
 14 26  1  0  0  0  0
 15 16  1  0  0  0  0
 17 18  1  1  0  0  0
 17  1  1  0  0  0  0
 17 16  1  0  0  0  0
 19 18  1  0  0  0  0
 19 14  1  0  0  0  0
 20 21  1  0  0  0  0
 21 22  1  0  0  0  0
 21 23  2  0  0  0  0
 22 27  1  0  0  0  0
 24 23  1  0  0  0  0
 25 24  2  0  0  0  0
 26 20  2  0  0  0  0
 26 25  1  0  0  0  0
 28 22  1  0  0  0  0
 29 30  1  0  0  0  0
 30 20  1  0  0  0  0
 31 32  1  0  0  0  0
 32 36  1  0  0  0  0
 32 33  1  0  0  0  0
 33 34  1  0  0  0  0
 34 35  1  0  0  0  0
 34 37  1  0  0  0  0
 36 34  1  0  0  0  0
M  END
>  <minimizedAffinity>
-10.9150572

$$$$
