
 OpenBabel11232419583D

 35 39  0  0  1  0  0  0  0  0999 V2000
  -12.0770   -2.2410  -19.3320 O   0  0  0  0  0  0  0  0  0  0  0  0
  -10.0440   -4.7140  -21.2280 C   0  0  0  0  0  0  0  0  0  0  0  0
   -9.7420   -3.8620  -22.2880 C   0  0  0  0  0  3  0  0  0  0  0  0
  -10.1480   -2.5750  -22.3570 N   0  0  0  0  0  0  0  0  0  0  0  0
  -10.8730   -2.1040  -21.3210 C   0  0  0  0  0  3  0  0  0  0  0  0
  -11.2540   -2.8650  -20.2210 C   0  0  0  0  0  0  0  0  0  0  0  0
  -10.8100   -4.1840  -20.1750 C   0  0  0  0  0  3  0  0  0  0  0  0
  -11.5460   -9.8430  -19.0300 C   0  0  0  0  0  1  0  0  0  0  0  0
  -10.3490   -9.6260  -19.8780 C   0  0  0  0  0  0  0  0  0  0  0  0
   -9.5320  -10.6480  -20.1610 N   0  0  0  0  0  0  0  0  0  0  0  0
   -8.5880  -10.1020  -20.9460 N   0  0  0  0  0  0  0  0  0  0  0  0
   -8.7490   -8.7580  -21.1610 C   0  0  0  0  0  0  0  0  0  0  0  0
   -7.9990   -7.8370  -21.8950 C   0  0  0  0  0  3  0  0  0  0  0  0
   -8.4510   -6.5100  -21.9080 C   0  0  0  0  0  3  0  0  0  0  0  0
   -9.6070   -6.1130  -21.2160 C   0  0  0  0  0  0  0  0  0  0  0  0
  -10.3430   -7.0770  -20.4990 C   0  0  0  0  0  3  0  0  0  0  0  0
   -9.9020   -8.4140  -20.4690 C   0  0  0  0  0  0  0  0  0  0  0  0
   -7.8540  -10.7040  -21.3040 H   0  0  0  0  0  0  0  0  0  0  0  0
  -11.7040   -2.1180  -17.9550 C   0  0  0  0  0  2  0  0  0  0  0  0
  -11.4330   -3.5140  -17.3530 C   0  0  1  0  0  3  0  0  0  0  0  0
  -11.4010   -4.5470  -18.4490 N   0  0  0  0  0  4  0  0  0  0  0  0
  -10.6400   -4.3960  -19.1220 H   0  0  0  0  0  0  0  0  0  0  0  0
  -11.3150   -5.4990  -18.0690 H   0  0  0  0  0  0  0  0  0  0  0  0
  -12.2880   -4.5170  -18.9750 H   0  0  0  0  0  0  0  0  0  0  0  0
  -10.1140   -3.5790  -16.5690 C   0  0  0  0  0  2  0  0  0  0  0  0
   -9.0110   -4.1720  -17.3780 C   0  0  0  0  0  0  0  0  0  0  0  0
   -8.4300   -5.4080  -17.1650 C   0  0  0  0  0  3  0  0  0  0  0  0
   -7.4580   -5.5970  -18.1110 N   0  0  0  0  0  0  0  0  0  0  0  0
   -7.3850   -4.5020  -18.9370 C   0  0  0  0  0  0  0  0  0  0  0  0
   -6.5420   -4.2600  -20.0280 C   0  0  0  0  0  3  0  0  0  0  0  0
   -6.6970   -3.0530  -20.7110 C   0  0  0  0  0  3  0  0  0  0  0  0
   -7.6590   -2.1270  -20.3190 C   0  0  0  0  0  3  0  0  0  0  0  0
   -8.4960   -2.3830  -19.2250 C   0  0  0  0  0  3  0  0  0  0  0  0
   -8.3550   -3.5940  -18.5130 C   0  0  0  0  0  0  0  0  0  0  0  0
   -6.8780   -6.4220  -18.2040 H   0  0  0  0  0  0  0  0  0  0  0  0
  1 19  1  0  0  0  0
  2 15  1  0  0  0  0
  2  7  1  0  0  0  0
  3  2  2  0  0  0  0
  4  3  1  0  0  0  0
  4  5  2  0  0  0  0
  5  6  1  0  0  0  0
  6  7  2  0  0  0  0
  6  1  1  0  0  0  0
  9  8  1  0  0  0  0
 10  9  2  0  0  0  0
 11 10  1  0  0  0  0
 12 11  1  0  0  0  0
 12 17  1  0  0  0  0
 13 12  2  0  0  0  0
 14 13  1  0  0  0  0
 14 15  2  0  0  0  0
 15 16  1  0  0  0  0
 16 17  2  0  0  0  0
 17  9  1  0  0  0  0
 18 11  1  0  0  0  0
 20 19  1  6  0  0  0
 20 25  1  0  0  0  0
 21 23  1  0  0  0  0
 21 20  1  0  0  0  0
 22 21  1  0  0  0  0
 24 21  1  0  0  0  0
 26 27  2  0  0  0  0
 26 25  1  0  0  0  0
 28 27  1  0  0  0  0
 29 34  1  0  0  0  0
 29 28  1  0  0  0  0
 30 29  2  0  0  0  0
 31 32  2  0  0  0  0
 31 30  1  0  0  0  0
 32 33  1  0  0  0  0
 33 34  2  0  0  0  0
 34 26  1  0  0  0  0
 35 28  1  0  0  0  0
M  END
>  <minimizedAffinity>
22.8071594

$$$$
