
 OpenBabel11232419263D

 37 42  0  0  1  0  0  0  0  0999 V2000
   24.8330   66.1240   19.7410 C   0  0  0  0  0  0  0  0  0  0  0  0
   25.9430   66.5630   19.4250 O   0  0  0  0  0  0  0  0  0  0  0  0
   24.5440   65.7390   21.0420 N   0  0  0  0  0  0  0  0  0  0  0  0
   23.3550   65.0040   21.5170 C   0  0  2  0  0  3  0  0  0  0  0  0
   23.6830   63.9460   22.5900 C   0  0  0  0  0  2  0  0  0  0  0  0
   24.2900   64.5700   23.7690 N   0  0  0  0  0  0  0  0  0  0  0  0
   25.3660   65.5450   23.4780 C   0  0  1  0  0  3  0  0  0  0  0  0
   26.5390   65.2330   22.5920 C   0  0  0  0  0  2  0  0  0  0  0  0
   25.4620   66.1550   22.0940 C   0  0  1  0  0  3  0  0  0  0  0  0
   24.4950   63.6570   24.8250 C   0  0  0  0  0  0  0  0  0  0  0  0
   25.7340   63.5690   25.3440 N   0  0  0  0  0  0  0  0  0  0  0  0
   25.9260   62.6890   26.3340 C   0  0  0  0  0  3  0  0  0  0  0  0
   25.0060   61.8620   26.8360 N   0  0  0  0  0  0  0  0  0  0  0  0
   23.7880   61.9690   26.2960 C   0  0  0  0  0  0  0  0  0  0  0  0
   23.4530   62.8680   25.2970 C   0  0  0  0  0  0  0  0  0  0  0  0
   22.0060   63.0200   24.9010 C   0  0  2  0  0  3  0  0  0  0  0  0
   21.3200   64.0860   25.7620 C   0  0  0  0  0  1  0  0  0  0  0  0
   21.2850   61.6760   24.9970 C   0  0  0  0  0  2  0  0  0  0  0  0
   21.5660   60.9590   26.2970 C   0  0  0  0  0  0  0  0  0  0  0  0
   20.7510   60.1970   26.8080 O   0  0  0  0  0  0  0  0  0  0  0  0
   22.8200   61.1120   26.8080 N   0  0  0  0  0  0  0  0  0  0  0  0
   23.0780   60.5530   27.6110 H   0  0  0  0  0  0  0  0  0  0  0  0
   23.7680   65.9600   18.6540 C   0  0  1  0  0  3  0  0  0  0  0  0
   23.0550   64.6130   18.7710 C   0  0  0  0  0  0  0  0  0  0  0  0
   21.6500   64.5600   18.7490 C   0  0  0  0  0  3  0  0  0  0  0  0
   20.9800   63.3390   18.8720 C   0  0  0  0  0  3  0  0  0  0  0  0
   21.7020   62.1570   19.0040 C   0  0  0  0  0  0  0  0  0  0  0  0
   20.8760   60.6600   19.1640 Cl  0  0  0  0  0  0  0  0  0  0  0  0
   23.0930   62.1850   18.9990 C   0  0  0  0  0  3  0  0  0  0  0  0
   23.7650   63.4040   18.8760 C   0  0  0  0  0  3  0  0  0  0  0  0
   22.8190   67.1690   18.7890 C   0  0  0  0  0  2  0  0  0  0  0  0
   21.9350   67.0950   20.0210 N   0  0  0  0  0  4  0  0  0  0  0  0
   21.0200   66.7160   19.7470 H   0  0  0  0  0  0  0  0  0  0  0  0
   21.7370   68.0660   20.3100 H   0  0  0  0  0  0  0  0  0  0  0  0
   21.2700   66.0080   22.1510 C   0  0  0  0  0  1  0  0  0  0  0  0
   22.4320   66.3500   21.2330 C   0  0  1  0  0  3  0  0  0  0  0  0
   23.1340   65.0900   20.7340 C   0  0  0  0  0  2  0  0  0  0  0  0
  1  3  1  0  0  0  0
  2  1  2  0  0  0  0
  3  4  1  0  0  0  0
  3  9  1  0  0  0  0
  4 37  1  6  0  0  0
  4  5  1  0  0  0  0
  5  6  1  0  0  0  0
  6 10  1  0  0  0  0
  7  8  1  6  0  0  0
  7  6  1  0  0  0  0
  9  8  1  6  0  0  0
  9  7  1  0  0  0  0
 10 15  2  0  0  0  0
 10 11  1  0  0  0  0
 11 12  2  0  0  0  0
 12 13  1  0  0  0  0
 14 21  1  0  0  0  0
 14 13  2  0  0  0  0
 15 14  1  0  0  0  0
 16 18  1  0  0  0  0
 16 15  1  0  0  0  0
 16 17  1  1  0  0  0
 18 19  1  0  0  0  0
 19 20  2  0  0  0  0
 19 21  1  0  0  0  0
 21 22  1  0  0  0  0
 23 24  1  1  0  0  0
 23 31  1  0  0  0  0
 23  1  1  0  0  0  0
 24 30  1  0  0  0  0
 25 24  2  0  0  0  0
 25 26  1  0  0  0  0
 26 27  2  0  0  0  0
 27 28  1  0  0  0  0
 29 27  1  0  0  0  0
 30 29  2  0  0  0  0
 31 32  1  0  0  0  0
 32 34  1  0  0  0  0
 32 36  1  0  0  0  0
 33 32  1  0  0  0  0
 36 35  1  1  0  0  0
 37 36  1  0  0  0  0
M  END
>  <minimizedAffinity>
90.4292374

$$$$
