
 OpenBabel11232420433D

 39 45  0  0  1  0  0  0  0  0999 V2000
  -18.1370   30.3930   13.4130 C   0  0  0  0  0  0  0  0  0  0  0  0
  -18.6350   30.5970   14.6820 N   0  0  0  0  0  0  0  0  0  0  0  0
  -18.1720   31.7630   15.0680 C   0  0  0  0  0  0  0  0  0  0  0  0
  -17.4100   32.3260   14.0810 N   0  0  0  0  0  0  0  0  0  0  0  0
  -17.3780   31.4800   12.9960 C   0  0  0  0  0  0  0  0  0  0  0  0
  -16.9010   33.6790   14.2050 C   0  0  0  0  0  2  0  0  0  0  0  0
  -16.6470   34.0590   15.5740 O   0  0  0  0  0  0  0  0  0  0  0  0
  -17.5560   33.6200   16.5070 C   0  0  0  0  0  0  0  0  0  0  0  0
  -17.6160   34.3270   17.7080 C   0  0  0  0  0  3  0  0  0  0  0  0
  -18.4920   33.9140   18.7140 C   0  0  0  0  0  3  0  0  0  0  0  0
  -19.2940   32.7890   18.5190 C   0  0  0  0  0  3  0  0  0  0  0  0
  -19.2120   32.0740   17.3250 C   0  0  0  0  0  0  0  0  0  0  0  0
  -19.9930   30.9940   17.1780 F   0  0  0  0  0  0  0  0  0  0  0  0
  -18.3430   32.4770   16.3140 C   0  0  0  0  0  0  0  0  0  0  0  0
  -16.7270   31.8060   11.7350 C   0  0  0  0  0  0  0  0  0  0  0  0
  -15.4160   31.3880   11.4840 C   0  0  0  0  0  3  0  0  0  0  0  0
  -14.7920   31.7120   10.2780 C   0  0  0  0  0  3  0  0  0  0  0  0
  -15.4760   32.4570    9.3180 C   0  0  0  0  0  3  0  0  0  0  0  0
  -16.7840   32.8740    9.5600 C   0  0  0  0  0  3  0  0  0  0  0  0
  -17.4090   32.5490   10.7640 C   0  0  0  0  0  3  0  0  0  0  0  0
  -19.1580   26.7140   11.3920 C   0  0  0  0  0  0  0  0  0  0  0  0
  -20.1310   27.5990   11.8950 C   0  0  0  0  0  3  0  0  0  0  0  0
  -19.7850   28.7970   12.5310 C   0  0  0  0  0  3  0  0  0  0  0  0
  -18.4480   29.1730   12.6810 C   0  0  0  0  0  0  0  0  0  0  0  0
  -17.4650   28.3210   12.1800 C   0  0  0  0  0  3  0  0  0  0  0  0
  -17.8150   27.1200   11.5460 C   0  0  0  0  0  3  0  0  0  0  0  0
  -19.5470   25.3550   10.6970 C   0  0  2  0  0  0  0  0  0  0  0  0
  -19.2370   24.0090   11.4130 C   0  0  0  0  0  2  0  0  0  0  0  0
  -19.0520   23.3670    9.9930 C   0  0  1  0  0  0  0  0  0  0  0  0
  -18.6640   24.8160    9.5300 C   0  0  0  0  0  2  0  0  0  0  0  0
  -20.9780   25.4360   10.3100 N   0  0  0  0  0  4  0  0  0  0  0  0
  -21.1580   26.1970    9.6460 H   0  0  0  0  0  0  0  0  0  0  0  0
  -21.5860   25.5800   11.1240 H   0  0  0  0  0  0  0  0  0  0  0  0
  -21.2690   24.5460    9.8580 H   0  0  0  0  0  0  0  0  0  0  0  0
  -18.0270   22.2550    9.9050 C   0  0  0  0  0  3  0  0  0  0  0  0
  -18.3960   20.7970    9.8470 C   0  0  0  0  0  2  0  0  0  0  0  0
  -17.7020   21.4460    8.6810 C   0  0  0  0  0  2  0  0  0  0  0  0
  -20.3370   22.9790    9.4150 O   0  0  0  0  0  0  0  0  0  0  0  0
  -20.1100   22.2880    8.7570 H   0  0  0  0  0  0  0  0  0  0  0  0
  1  2  1  0  0  0  0
  2  3  2  0  0  0  0
  3 14  1  0  0  0  0
  4  6  1  0  0  0  0
  4  3  1  0  0  0  0
  5  1  2  0  0  0  0
  5  4  1  0  0  0  0
  6  7  1  0  0  0  0
  7  8  1  0  0  0  0
  8  9  1  0  0  0  0
  9 10  2  0  0  0  0
 11 10  1  0  0  0  0
 12 11  2  0  0  0  0
 13 12  1  0  0  0  0
 14  8  2  0  0  0  0
 14 12  1  0  0  0  0
 15  5  1  0  0  0  0
 16 15  1  0  0  0  0
 17 16  2  0  0  0  0
 18 19  2  0  0  0  0
 18 17  1  0  0  0  0
 19 20  1  0  0  0  0
 20 15  2  0  0  0  0
 21 26  2  0  0  0  0
 21 22  1  0  0  0  0
 22 23  2  0  0  0  0
 23 24  1  0  0  0  0
 24  1  1  0  0  0  0
 25 24  2  0  0  0  0
 26 25  1  0  0  0  0
 27 31  1  6  0  0  0
 27 21  1  0  0  0  0
 27 28  1  0  0  0  0
 29 38  1  6  0  0  0
 29 28  1  0  0  0  0
 30 29  1  0  0  0  0
 30 27  1  0  0  0  0
 31 33  1  0  0  0  0
 32 31  1  0  0  0  0
 34 31  1  0  0  0  0
 35 29  1  0  0  0  0
 36 35  1  0  0  0  0
 37 36  1  0  0  0  0
 37 35  1  0  0  0  0
 39 38  1  0  0  0  0
M  END
>  <minimizedAffinity>
-10.7070312

$$$$
