
 OpenBabel11232420433D

 39 45  0  0  1  0  0  0  0  0999 V2000
  -22.3560   17.6820   13.8690 C   0  0  0  0  0  0  0  0  0  0  0  0
  -22.6890   16.6130   13.0650 N   0  0  0  0  0  0  0  0  0  0  0  0
  -23.1370   15.6800   13.8720 C   0  0  0  0  0  0  0  0  0  0  0  0
  -23.1220   16.1200   15.1670 N   0  0  0  0  0  0  0  0  0  0  0  0
  -22.6400   17.4090   15.2020 C   0  0  0  0  0  0  0  0  0  0  0  0
  -23.7010   15.3280   16.2360 C   0  0  0  0  0  2  0  0  0  0  0  0
  -23.6200   13.9090   15.9880 O   0  0  0  0  0  0  0  0  0  0  0  0
  -23.8310   13.5020   14.6930 C   0  0  0  0  0  0  0  0  0  0  0  0
  -24.2210   12.1760   14.5050 C   0  0  0  0  0  3  0  0  0  0  0  0
  -24.4180   11.6870   13.2120 C   0  0  0  0  0  3  0  0  0  0  0  0
  -24.2130   12.5220   12.1130 C   0  0  0  0  0  3  0  0  0  0  0  0
  -23.8030   13.8410   12.3080 C   0  0  0  0  0  0  0  0  0  0  0  0
  -23.6080   14.6100   11.2270 F   0  0  0  0  0  0  0  0  0  0  0  0
  -23.6030   14.3400   13.5930 C   0  0  0  0  0  0  0  0  0  0  0  0
  -22.5710   18.2150   16.4130 C   0  0  0  0  0  0  0  0  0  0  0  0
  -21.4120   18.2190   17.1970 C   0  0  0  0  0  3  0  0  0  0  0  0
  -21.3550   18.9850   18.3630 C   0  0  0  0  0  3  0  0  0  0  0  0
  -22.4550   19.7480   18.7510 C   0  0  0  0  0  3  0  0  0  0  0  0
  -23.6120   19.7510   17.9720 C   0  0  0  0  0  3  0  0  0  0  0  0
  -23.6700   18.9870   16.8050 C   0  0  0  0  0  3  0  0  0  0  0  0
  -20.8710   21.3030   12.0390 C   0  0  0  0  0  0  0  0  0  0  0  0
  -22.1610   21.2080   12.5960 C   0  0  0  0  0  3  0  0  0  0  0  0
  -22.6220   20.0330   13.2030 C   0  0  0  0  0  3  0  0  0  0  0  0
  -21.8060   18.9010   13.2930 C   0  0  0  0  0  0  0  0  0  0  0  0
  -20.5200   18.9730   12.7610 C   0  0  0  0  0  3  0  0  0  0  0  0
  -20.0640   20.1510   12.1520 C   0  0  0  0  0  3  0  0  0  0  0  0
  -20.3620   22.6170   11.3360 C   0  0  2  0  0  0  0  0  0  0  0  0
  -19.2270   22.5320   10.2760 C   0  0  0  0  0  2  0  0  0  0  0  0
  -18.7740   23.9620   10.7360 C   0  0  1  0  0  0  0  0  0  0  0  0
  -19.4170   23.5820   12.1160 C   0  0  0  0  0  2  0  0  0  0  0  0
  -21.5470   23.3290   10.7930 N   0  0  0  0  0  4  0  0  0  0  0  0
  -22.2090   23.5970   11.5280 H   0  0  0  0  0  0  0  0  0  0  0  0
  -22.0530   22.7590   10.1060 H   0  0  0  0  0  0  0  0  0  0  0  0
  -21.2410   24.1980   10.3100 H   0  0  0  0  0  0  0  0  0  0  0  0
  -17.2860   24.2360   10.6550 C   0  0  0  0  0  3  0  0  0  0  0  0
  -16.5650   24.4950    9.3590 C   0  0  0  0  0  2  0  0  0  0  0  0
  -16.6450   25.5730   10.4070 C   0  0  0  0  0  2  0  0  0  0  0  0
  -19.5620   25.0040   10.0800 O   0  0  0  0  0  0  0  0  0  0  0  0
  -18.9950   25.8040   10.1240 H   0  0  0  0  0  0  0  0  0  0  0  0
  1  5  2  0  0  0  0
  2  1  1  0  0  0  0
  2  3  2  0  0  0  0
  3  4  1  0  0  0  0
  4  5  1  0  0  0  0
  4  6  1  0  0  0  0
  5 15  1  0  0  0  0
  7  6  1  0  0  0  0
  8  7  1  0  0  0  0
  9  8  1  0  0  0  0
 10  9  2  0  0  0  0
 11 12  2  0  0  0  0
 11 10  1  0  0  0  0
 12 14  1  0  0  0  0
 13 12  1  0  0  0  0
 14  3  1  0  0  0  0
 14  8  2  0  0  0  0
 15 20  2  0  0  0  0
 15 16  1  0  0  0  0
 16 17  2  0  0  0  0
 17 18  1  0  0  0  0
 19 18  2  0  0  0  0
 20 19  1  0  0  0  0
 21 26  2  0  0  0  0
 21 22  1  0  0  0  0
 22 23  2  0  0  0  0
 23 24  1  0  0  0  0
 24  1  1  0  0  0  0
 25 24  2  0  0  0  0
 26 25  1  0  0  0  0
 27 31  1  6  0  0  0
 27 21  1  0  0  0  0
 27 30  1  0  0  0  0
 28 29  1  0  0  0  0
 28 27  1  0  0  0  0
 29 38  1  6  0  0  0
 29 30  1  0  0  0  0
 31 32  1  0  0  0  0
 33 31  1  0  0  0  0
 34 31  1  0  0  0  0
 35 29  1  0  0  0  0
 36 37  1  0  0  0  0
 36 35  1  0  0  0  0
 37 35  1  0  0  0  0
 38 39  1  0  0  0  0
M  END
>  <minimizedAffinity>
-11.2613316

$$$$
