
 OpenBabel11232420433D

 39 45  0  0  1  0  0  0  0  0999 V2000
  -19.4980   20.5360   11.1390 C   0  0  0  0  0  0  0  0  0  0  0  0
  -20.1510   19.9700   12.2140 N   0  0  0  0  0  0  0  0  0  0  0  0
  -20.3530   18.7130   11.8930 C   0  0  0  0  0  0  0  0  0  0  0  0
  -19.8330   18.4450   10.6560 N   0  0  0  0  0  0  0  0  0  0  0  0
  -19.2620   19.5900   10.1480 C   0  0  0  0  0  0  0  0  0  0  0  0
  -19.8010   17.0920   10.1330 C   0  0  0  0  0  2  0  0  0  0  0  0
  -20.8910   16.2790   10.6140 O   0  0  0  0  0  0  0  0  0  0  0  0
  -21.2510   16.4570   11.9290 C   0  0  0  0  0  0  0  0  0  0  0  0
  -21.9380   15.4090   12.5410 C   0  0  0  0  0  3  0  0  0  0  0  0
  -22.3650   15.5370   13.8640 C   0  0  0  0  0  3  0  0  0  0  0  0
  -22.1130   16.7170   14.5650 C   0  0  0  0  0  3  0  0  0  0  0  0
  -21.4440   17.7690   13.9400 C   0  0  0  0  0  0  0  0  0  0  0  0
  -21.2270   18.8890   14.6440 F   0  0  0  0  0  0  0  0  0  0  0  0
  -21.0130   17.6530   12.6200 C   0  0  0  0  0  0  0  0  0  0  0  0
  -18.5390   19.6400    8.8850 C   0  0  0  0  0  0  0  0  0  0  0  0
  -17.6160   18.6420    8.5540 C   0  0  0  0  0  3  0  0  0  0  0  0
  -16.9180   18.7000    7.3480 C   0  0  0  0  0  3  0  0  0  0  0  0
  -17.1370   19.7580    6.4660 C   0  0  0  0  0  3  0  0  0  0  0  0
  -18.0580   20.7550    6.7870 C   0  0  0  0  0  3  0  0  0  0  0  0
  -18.7590   20.6960    7.9920 C   0  0  0  0  0  3  0  0  0  0  0  0
  -18.4950   24.7350   11.0190 C   0  0  0  0  0  0  0  0  0  0  0  0
  -19.8250   24.2720   11.0130 C   0  0  0  0  0  3  0  0  0  0  0  0
  -20.1350   22.9080   11.0710 C   0  0  0  0  0  3  0  0  0  0  0  0
  -19.1270   21.9430   11.1520 C   0  0  0  0  0  0  0  0  0  0  0  0
  -17.8020   22.3760   11.1740 C   0  0  0  0  0  3  0  0  0  0  0  0
  -17.4960   23.7430   11.1120 C   0  0  0  0  0  3  0  0  0  0  0  0
  -18.1460   26.2690   10.9290 C   0  0  2  0  0  0  0  0  0  0  0  0
  -18.9940   27.2990   11.7300 C   0  0  0  0  0  2  0  0  0  0  0  0
  -18.7070   28.3320   10.5830 C   0  0  1  0  0  0  0  0  0  0  0  0
  -18.5620   27.0710    9.6590 C   0  0  0  0  0  2  0  0  0  0  0  0
  -16.6990   26.4230   11.2280 N   0  0  0  0  0  4  0  0  0  0  0  0
  -16.1090   25.9220   10.5550 H   0  0  0  0  0  0  0  0  0  0  0  0
  -16.4650   26.0820   12.1670 H   0  0  0  0  0  0  0  0  0  0  0  0
  -16.4400   27.4290   11.1880 H   0  0  0  0  0  0  0  0  0  0  0  0
  -19.8110   29.3340   10.3130 C   0  0  0  0  0  3  0  0  0  0  0  0
  -20.0770   30.5250   11.1930 C   0  0  0  0  0  2  0  0  0  0  0  0
  -19.6310   30.7240    9.7700 C   0  0  0  0  0  2  0  0  0  0  0  0
  -17.4100   28.9790   10.7650 O   0  0  0  0  0  0  0  0  0  0  0  0
  -17.4830   29.8200   10.2660 H   0  0  0  0  0  0  0  0  0  0  0  0
  1 24  1  0  0  0  0
  1  2  1  0  0  0  0
  3  2  2  0  0  0  0
  3 14  1  0  0  0  0
  4  3  1  0  0  0  0
  5  4  1  0  0  0  0
  5  1  2  0  0  0  0
  6  7  1  0  0  0  0
  6  4  1  0  0  0  0
  7  8  1  0  0  0  0
  8  9  2  0  0  0  0
  8 14  1  0  0  0  0
  9 10  1  0  0  0  0
 10 11  2  0  0  0  0
 12 11  1  0  0  0  0
 12 13  1  0  0  0  0
 14 12  2  0  0  0  0
 15  5  1  0  0  0  0
 16 15  1  0  0  0  0
 17 16  2  0  0  0  0
 18 19  2  0  0  0  0
 18 17  1  0  0  0  0
 19 20  1  0  0  0  0
 20 15  2  0  0  0  0
 21 26  1  0  0  0  0
 22 21  2  0  0  0  0
 22 23  1  0  0  0  0
 23 24  2  0  0  0  0
 24 25  1  0  0  0  0
 26 25  2  0  0  0  0
 27 21  1  0  0  0  0
 27 31  1  1  0  0  0
 27 28  1  0  0  0  0
 29 38  1  1  0  0  0
 29 28  1  0  0  0  0
 30 29  1  0  0  0  0
 30 27  1  0  0  0  0
 31 33  1  0  0  0  0
 32 31  1  0  0  0  0
 34 31  1  0  0  0  0
 35 29  1  0  0  0  0
 35 36  1  0  0  0  0
 37 35  1  0  0  0  0
 37 36  1  0  0  0  0
 39 38  1  0  0  0  0
M  END
>  <minimizedAffinity>
-12.7957516

$$$$

 OpenBabel11232420433D

 39 45  0  0  1  0  0  0  0  0999 V2000
  -18.0610   22.9140    9.7560 C   0  0  0  0  0  0  0  0  0  0  0  0
  -17.1540   22.6660    8.7470 N   0  0  0  0  0  0  0  0  0  0  0  0
  -17.2190   21.3760    8.5130 C   0  0  0  0  0  0  0  0  0  0  0  0
  -18.1520   20.7890    9.3220 N   0  0  0  0  0  0  0  0  0  0  0  0
  -18.7240   21.7500   10.1240 C   0  0  0  0  0  0  0  0  0  0  0  0
  -18.5150   19.3930    9.1590 C   0  0  0  0  0  2  0  0  0  0  0  0
  -17.4280   18.5860    8.6600 O   0  0  0  0  0  0  0  0  0  0  0  0
  -16.6280   19.1640    7.7030 C   0  0  0  0  0  0  0  0  0  0  0  0
  -15.9010   18.3000    6.8850 C   0  0  0  0  0  3  0  0  0  0  0  0
  -15.0420   18.8190    5.9160 C   0  0  0  0  0  3  0  0  0  0  0  0
  -14.9040   20.2010    5.7770 C   0  0  0  0  0  3  0  0  0  0  0  0
  -15.6190   21.0590    6.6120 C   0  0  0  0  0  0  0  0  0  0  0  0
  -15.4550   22.3800    6.4530 F   0  0  0  0  0  0  0  0  0  0  0  0
  -16.4790   20.5520    7.5830 C   0  0  0  0  0  0  0  0  0  0  0  0
  -19.8190   21.4850   11.0470 C   0  0  0  0  0  0  0  0  0  0  0  0
  -19.7890   20.3630   11.8820 C   0  0  0  0  0  3  0  0  0  0  0  0
  -20.8460   20.1080   12.7570 C   0  0  0  0  0  3  0  0  0  0  0  0
  -21.9390   20.9720   12.8010 C   0  0  0  0  0  3  0  0  0  0  0  0
  -21.9750   22.0950   11.9740 C   0  0  0  0  0  3  0  0  0  0  0  0
  -20.9170   22.3520   11.1000 C   0  0  0  0  0  3  0  0  0  0  0  0
  -18.4320   26.9610   11.2200 C   0  0  0  0  0  0  0  0  0  0  0  0
  -18.3200   26.6570    9.8490 C   0  0  0  0  0  3  0  0  0  0  0  0
  -18.2200   25.3390    9.3880 C   0  0  0  0  0  3  0  0  0  0  0  0
  -18.2400   24.2610   10.2780 C   0  0  0  0  0  0  0  0  0  0  0  0
  -18.3630   24.5340   11.6400 C   0  0  0  0  0  3  0  0  0  0  0  0
  -18.4600   25.8560   12.0970 C   0  0  0  0  0  3  0  0  0  0  0  0
  -18.5210   28.4450   11.7400 C   0  0  2  0  0  0  0  0  0  0  0  0
  -17.7280   28.8640   13.0110 C   0  0  0  0  0  2  0  0  0  0  0  0
  -18.8730   29.8940   13.3110 C   0  0  1  0  0  0  0  0  0  0  0  0
  -19.7950   28.9060   12.5120 C   0  0  0  0  0  2  0  0  0  0  0  0
  -18.2150   29.3450   10.5990 N   0  0  0  0  0  4  0  0  0  0  0  0
  -18.8830   29.2360    9.8290 H   0  0  0  0  0  0  0  0  0  0  0  0
  -17.2740   29.1800   10.2240 H   0  0  0  0  0  0  0  0  0  0  0  0
  -18.2540   30.3350   10.9150 H   0  0  0  0  0  0  0  0  0  0  0  0
  -19.1520   30.1550   14.7770 C   0  0  0  0  0  3  0  0  0  0  0  0
  -18.0660   30.2840   15.8120 C   0  0  0  0  0  2  0  0  0  0  0  0
  -18.9520   31.4590   15.4970 C   0  0  0  0  0  2  0  0  0  0  0  0
  -18.6850   31.1320   12.5580 O   0  0  0  0  0  0  0  0  0  0  0  0
  -19.1860   31.8060   13.0650 H   0  0  0  0  0  0  0  0  0  0  0  0
  1  5  2  0  0  0  0
  1 24  1  0  0  0  0
  2  1  1  0  0  0  0
  3  2  2  0  0  0  0
  3  4  1  0  0  0  0
  4  5  1  0  0  0  0
  5 15  1  0  0  0  0
  6  4  1  0  0  0  0
  7  6  1  0  0  0  0
  8  7  1  0  0  0  0
  9  8  2  0  0  0  0
 10  9  1  0  0  0  0
 11 10  2  0  0  0  0
 11 12  1  0  0  0  0
 12 14  2  0  0  0  0
 13 12  1  0  0  0  0
 14  8  1  0  0  0  0
 14  3  1  0  0  0  0
 15 20  2  0  0  0  0
 15 16  1  0  0  0  0
 16 17  2  0  0  0  0
 17 18  1  0  0  0  0
 19 18  2  0  0  0  0
 20 19  1  0  0  0  0
 21 27  1  0  0  0  0
 21 26  1  0  0  0  0
 22 21  2  0  0  0  0
 23 22  1  0  0  0  0
 23 24  2  0  0  0  0
 24 25  1  0  0  0  0
 25 26  2  0  0  0  0
 27 31  1  6  0  0  0
 27 30  1  0  0  0  0
 27 28  1  0  0  0  0
 28 29  1  0  0  0  0
 29 38  1  6  0  0  0
 29 35  1  0  0  0  0
 30 29  1  0  0  0  0
 31 34  1  0  0  0  0
 32 31  1  0  0  0  0
 33 31  1  0  0  0  0
 35 37  1  0  0  0  0
 35 36  1  0  0  0  0
 37 36  1  0  0  0  0
 38 39  1  0  0  0  0
M  END
>  <minimizedAffinity>
-12.2713127

$$$$

 OpenBabel11232420433D

 39 45  0  0  1  0  0  0  0  0999 V2000
  -22.3560   17.6820   13.8690 C   0  0  0  0  0  0  0  0  0  0  0  0
  -22.6890   16.6130   13.0650 N   0  0  0  0  0  0  0  0  0  0  0  0
  -23.1370   15.6800   13.8720 C   0  0  0  0  0  0  0  0  0  0  0  0
  -23.1220   16.1200   15.1670 N   0  0  0  0  0  0  0  0  0  0  0  0
  -22.6400   17.4090   15.2020 C   0  0  0  0  0  0  0  0  0  0  0  0
  -23.7010   15.3280   16.2360 C   0  0  0  0  0  2  0  0  0  0  0  0
  -23.6200   13.9090   15.9880 O   0  0  0  0  0  0  0  0  0  0  0  0
  -23.8310   13.5020   14.6930 C   0  0  0  0  0  0  0  0  0  0  0  0
  -24.2210   12.1760   14.5050 C   0  0  0  0  0  3  0  0  0  0  0  0
  -24.4180   11.6870   13.2120 C   0  0  0  0  0  3  0  0  0  0  0  0
  -24.2130   12.5220   12.1130 C   0  0  0  0  0  3  0  0  0  0  0  0
  -23.8030   13.8410   12.3080 C   0  0  0  0  0  0  0  0  0  0  0  0
  -23.6080   14.6100   11.2270 F   0  0  0  0  0  0  0  0  0  0  0  0
  -23.6030   14.3400   13.5930 C   0  0  0  0  0  0  0  0  0  0  0  0
  -22.5710   18.2150   16.4130 C   0  0  0  0  0  0  0  0  0  0  0  0
  -21.4120   18.2190   17.1970 C   0  0  0  0  0  3  0  0  0  0  0  0
  -21.3550   18.9850   18.3630 C   0  0  0  0  0  3  0  0  0  0  0  0
  -22.4550   19.7480   18.7510 C   0  0  0  0  0  3  0  0  0  0  0  0
  -23.6120   19.7510   17.9720 C   0  0  0  0  0  3  0  0  0  0  0  0
  -23.6700   18.9870   16.8050 C   0  0  0  0  0  3  0  0  0  0  0  0
  -20.8710   21.3030   12.0390 C   0  0  0  0  0  0  0  0  0  0  0  0
  -22.1610   21.2080   12.5960 C   0  0  0  0  0  3  0  0  0  0  0  0
  -22.6220   20.0330   13.2030 C   0  0  0  0  0  3  0  0  0  0  0  0
  -21.8060   18.9010   13.2930 C   0  0  0  0  0  0  0  0  0  0  0  0
  -20.5200   18.9730   12.7610 C   0  0  0  0  0  3  0  0  0  0  0  0
  -20.0640   20.1510   12.1520 C   0  0  0  0  0  3  0  0  0  0  0  0
  -20.3620   22.6170   11.3360 C   0  0  2  0  0  0  0  0  0  0  0  0
  -19.2270   22.5320   10.2760 C   0  0  0  0  0  2  0  0  0  0  0  0
  -18.7740   23.9620   10.7360 C   0  0  1  0  0  0  0  0  0  0  0  0
  -19.4170   23.5820   12.1160 C   0  0  0  0  0  2  0  0  0  0  0  0
  -21.5470   23.3290   10.7930 N   0  0  0  0  0  4  0  0  0  0  0  0
  -22.2090   23.5970   11.5280 H   0  0  0  0  0  0  0  0  0  0  0  0
  -22.0530   22.7590   10.1060 H   0  0  0  0  0  0  0  0  0  0  0  0
  -21.2410   24.1980   10.3100 H   0  0  0  0  0  0  0  0  0  0  0  0
  -17.2860   24.2360   10.6550 C   0  0  0  0  0  3  0  0  0  0  0  0
  -16.5650   24.4950    9.3590 C   0  0  0  0  0  2  0  0  0  0  0  0
  -16.6450   25.5730   10.4070 C   0  0  0  0  0  2  0  0  0  0  0  0
  -19.5620   25.0040   10.0800 O   0  0  0  0  0  0  0  0  0  0  0  0
  -18.9950   25.8040   10.1240 H   0  0  0  0  0  0  0  0  0  0  0  0
  1  5  2  0  0  0  0
  2  1  1  0  0  0  0
  2  3  2  0  0  0  0
  3  4  1  0  0  0  0
  4  5  1  0  0  0  0
  4  6  1  0  0  0  0
  5 15  1  0  0  0  0
  7  6  1  0  0  0  0
  8  7  1  0  0  0  0
  9  8  1  0  0  0  0
 10  9  2  0  0  0  0
 11 12  2  0  0  0  0
 11 10  1  0  0  0  0
 12 14  1  0  0  0  0
 13 12  1  0  0  0  0
 14  3  1  0  0  0  0
 14  8  2  0  0  0  0
 15 20  2  0  0  0  0
 15 16  1  0  0  0  0
 16 17  2  0  0  0  0
 17 18  1  0  0  0  0
 19 18  2  0  0  0  0
 20 19  1  0  0  0  0
 21 26  2  0  0  0  0
 21 22  1  0  0  0  0
 22 23  2  0  0  0  0
 23 24  1  0  0  0  0
 24  1  1  0  0  0  0
 25 24  2  0  0  0  0
 26 25  1  0  0  0  0
 27 31  1  6  0  0  0
 27 21  1  0  0  0  0
 27 30  1  0  0  0  0
 28 29  1  0  0  0  0
 28 27  1  0  0  0  0
 29 38  1  6  0  0  0
 29 30  1  0  0  0  0
 31 32  1  0  0  0  0
 33 31  1  0  0  0  0
 34 31  1  0  0  0  0
 35 29  1  0  0  0  0
 36 37  1  0  0  0  0
 36 35  1  0  0  0  0
 37 35  1  0  0  0  0
 38 39  1  0  0  0  0
M  END
>  <minimizedAffinity>
-11.2613316

$$$$

 OpenBabel11232420433D

 39 45  0  0  1  0  0  0  0  0999 V2000
  -18.1720   30.3350   13.0050 C   0  0  0  0  0  0  0  0  0  0  0  0
  -18.1950   30.3810   14.3830 N   0  0  0  0  0  0  0  0  0  0  0  0
  -18.4430   31.6300   14.6990 C   0  0  0  0  0  0  0  0  0  0  0  0
  -18.6010   32.3870   13.5710 N   0  0  0  0  0  0  0  0  0  0  0  0
  -18.4490   31.5850   12.4630 C   0  0  0  0  0  0  0  0  0  0  0  0
  -19.0240   33.7730   13.6500 C   0  0  0  0  0  2  0  0  0  0  0  0
  -18.5890   34.4230   14.8620 O   0  0  0  0  0  0  0  0  0  0  0  0
  -18.6290   33.6670   16.0080 C   0  0  0  0  0  0  0  0  0  0  0  0
  -18.6750   34.3600   17.2180 C   0  0  0  0  0  3  0  0  0  0  0  0
  -18.6820   33.6550   18.4230 C   0  0  0  0  0  3  0  0  0  0  0  0
  -18.6300   32.2600   18.4130 C   0  0  0  0  0  3  0  0  0  0  0  0
  -18.5620   31.5750   17.2000 C   0  0  0  0  0  0  0  0  0  0  0  0
  -18.5060   30.2360   17.2310 F   0  0  0  0  0  0  0  0  0  0  0  0
  -18.5550   32.2680   15.9920 C   0  0  0  0  0  0  0  0  0  0  0  0
  -18.6390   32.0500   11.0960 C   0  0  0  0  0  0  0  0  0  0  0  0
  -17.9190   33.1490   10.6130 C   0  0  0  0  0  3  0  0  0  0  0  0
  -18.1130   33.5970    9.3050 C   0  0  0  0  0  3  0  0  0  0  0  0
  -19.0270   32.9500    8.4750 C   0  0  0  0  0  3  0  0  0  0  0  0
  -19.7450   31.8520    8.9480 C   0  0  0  0  0  3  0  0  0  0  0  0
  -19.5510   31.4020   10.2550 C   0  0  0  0  0  3  0  0  0  0  0  0
  -17.4410   26.5340   11.0890 C   0  0  0  0  0  0  0  0  0  0  0  0
  -18.6980   26.8890   11.6150 C   0  0  0  0  0  3  0  0  0  0  0  0
  -18.9250   28.1330   12.2170 C   0  0  0  0  0  3  0  0  0  0  0  0
  -17.9060   29.0850   12.3070 C   0  0  0  0  0  0  0  0  0  0  0  0
  -16.6550   28.7630   11.7820 C   0  0  0  0  0  3  0  0  0  0  0  0
  -16.4320   27.5160   11.1840 C   0  0  0  0  0  3  0  0  0  0  0  0
  -17.1800   25.1250   10.4340 C   0  0  2  0  0  0  0  0  0  0  0  0
  -18.0220   24.6820    9.2030 C   0  0  0  0  0  2  0  0  0  0  0  0
  -17.8710   23.2040    9.7110 C   0  0  1  0  0  0  0  0  0  0  0  0
  -17.7270   23.8450   11.1360 C   0  0  0  0  0  2  0  0  0  0  0  0
  -15.7260   25.0190   10.1520 N   0  0  0  0  0  4  0  0  0  0  0  0
  -15.1600   25.0840   11.0050 H   0  0  0  0  0  0  0  0  0  0  0  0
  -15.4070   25.7500    9.5070 H   0  0  0  0  0  0  0  0  0  0  0  0
  -15.5230   24.1010    9.7060 H   0  0  0  0  0  0  0  0  0  0  0  0
  -19.0430   22.2890    9.4180 C   0  0  0  0  0  3  0  0  0  0  0  0
  -19.2810   21.6600    8.0720 C   0  0  0  0  0  2  0  0  0  0  0  0
  -18.9810   20.7950    9.2660 C   0  0  0  0  0  2  0  0  0  0  0  0
  -16.6000   22.6240    9.2850 O   0  0  0  0  0  0  0  0  0  0  0  0
  -16.7520   21.6550    9.3090 H   0  0  0  0  0  0  0  0  0  0  0  0
  1  2  1  0  0  0  0
  2  3  2  0  0  0  0
  3 14  1  0  0  0  0
  4  6  1  0  0  0  0
  4  3  1  0  0  0  0
  5  1  2  0  0  0  0
  5  4  1  0  0  0  0
  6  7  1  0  0  0  0
  7  8  1  0  0  0  0
  8  9  1  0  0  0  0
  9 10  2  0  0  0  0
 11 10  1  0  0  0  0
 12 13  1  0  0  0  0
 12 11  2  0  0  0  0
 14  8  2  0  0  0  0
 14 12  1  0  0  0  0
 15  5  1  0  0  0  0
 16 15  1  0  0  0  0
 17 16  2  0  0  0  0
 18 19  2  0  0  0  0
 18 17  1  0  0  0  0
 19 20  1  0  0  0  0
 20 15  2  0  0  0  0
 21 26  2  0  0  0  0
 21 22  1  0  0  0  0
 22 23  2  0  0  0  0
 23 24  1  0  0  0  0
 24  1  1  0  0  0  0
 25 24  2  0  0  0  0
 26 25  1  0  0  0  0
 27 31  1  6  0  0  0
 27 21  1  0  0  0  0
 27 30  1  0  0  0  0
 28 29  1  0  0  0  0
 28 27  1  0  0  0  0
 29 38  1  6  0  0  0
 29 30  1  0  0  0  0
 31 32  1  0  0  0  0
 33 31  1  0  0  0  0
 34 31  1  0  0  0  0
 35 29  1  0  0  0  0
 36 37  1  0  0  0  0
 36 35  1  0  0  0  0
 37 35  1  0  0  0  0
 38 39  1  0  0  0  0
M  END
>  <minimizedAffinity>
-11.2127085

$$$$

 OpenBabel11232420433D

 39 45  0  0  1  0  0  0  0  0999 V2000
  -18.1370   30.3930   13.4130 C   0  0  0  0  0  0  0  0  0  0  0  0
  -18.6350   30.5970   14.6820 N   0  0  0  0  0  0  0  0  0  0  0  0
  -18.1720   31.7630   15.0680 C   0  0  0  0  0  0  0  0  0  0  0  0
  -17.4100   32.3260   14.0810 N   0  0  0  0  0  0  0  0  0  0  0  0
  -17.3780   31.4800   12.9960 C   0  0  0  0  0  0  0  0  0  0  0  0
  -16.9010   33.6790   14.2050 C   0  0  0  0  0  2  0  0  0  0  0  0
  -16.6470   34.0590   15.5740 O   0  0  0  0  0  0  0  0  0  0  0  0
  -17.5560   33.6200   16.5070 C   0  0  0  0  0  0  0  0  0  0  0  0
  -17.6160   34.3270   17.7080 C   0  0  0  0  0  3  0  0  0  0  0  0
  -18.4920   33.9140   18.7140 C   0  0  0  0  0  3  0  0  0  0  0  0
  -19.2940   32.7890   18.5190 C   0  0  0  0  0  3  0  0  0  0  0  0
  -19.2120   32.0740   17.3250 C   0  0  0  0  0  0  0  0  0  0  0  0
  -19.9930   30.9940   17.1780 F   0  0  0  0  0  0  0  0  0  0  0  0
  -18.3430   32.4770   16.3140 C   0  0  0  0  0  0  0  0  0  0  0  0
  -16.7270   31.8060   11.7350 C   0  0  0  0  0  0  0  0  0  0  0  0
  -15.4160   31.3880   11.4840 C   0  0  0  0  0  3  0  0  0  0  0  0
  -14.7920   31.7120   10.2780 C   0  0  0  0  0  3  0  0  0  0  0  0
  -15.4760   32.4570    9.3180 C   0  0  0  0  0  3  0  0  0  0  0  0
  -16.7840   32.8740    9.5600 C   0  0  0  0  0  3  0  0  0  0  0  0
  -17.4090   32.5490   10.7640 C   0  0  0  0  0  3  0  0  0  0  0  0
  -19.1580   26.7140   11.3920 C   0  0  0  0  0  0  0  0  0  0  0  0
  -20.1310   27.5990   11.8950 C   0  0  0  0  0  3  0  0  0  0  0  0
  -19.7850   28.7970   12.5310 C   0  0  0  0  0  3  0  0  0  0  0  0
  -18.4480   29.1730   12.6810 C   0  0  0  0  0  0  0  0  0  0  0  0
  -17.4650   28.3210   12.1800 C   0  0  0  0  0  3  0  0  0  0  0  0
  -17.8150   27.1200   11.5460 C   0  0  0  0  0  3  0  0  0  0  0  0
  -19.5470   25.3550   10.6970 C   0  0  2  0  0  0  0  0  0  0  0  0
  -19.2370   24.0090   11.4130 C   0  0  0  0  0  2  0  0  0  0  0  0
  -19.0520   23.3670    9.9930 C   0  0  1  0  0  0  0  0  0  0  0  0
  -18.6640   24.8160    9.5300 C   0  0  0  0  0  2  0  0  0  0  0  0
  -20.9780   25.4360   10.3100 N   0  0  0  0  0  4  0  0  0  0  0  0
  -21.1580   26.1970    9.6460 H   0  0  0  0  0  0  0  0  0  0  0  0
  -21.5860   25.5800   11.1240 H   0  0  0  0  0  0  0  0  0  0  0  0
  -21.2690   24.5460    9.8580 H   0  0  0  0  0  0  0  0  0  0  0  0
  -18.0270   22.2550    9.9050 C   0  0  0  0  0  3  0  0  0  0  0  0
  -18.3960   20.7970    9.8470 C   0  0  0  0  0  2  0  0  0  0  0  0
  -17.7020   21.4460    8.6810 C   0  0  0  0  0  2  0  0  0  0  0  0
  -20.3370   22.9790    9.4150 O   0  0  0  0  0  0  0  0  0  0  0  0
  -20.1100   22.2880    8.7570 H   0  0  0  0  0  0  0  0  0  0  0  0
  1  2  1  0  0  0  0
  2  3  2  0  0  0  0
  3 14  1  0  0  0  0
  4  6  1  0  0  0  0
  4  3  1  0  0  0  0
  5  1  2  0  0  0  0
  5  4  1  0  0  0  0
  6  7  1  0  0  0  0
  7  8  1  0  0  0  0
  8  9  1  0  0  0  0
  9 10  2  0  0  0  0
 11 10  1  0  0  0  0
 12 11  2  0  0  0  0
 13 12  1  0  0  0  0
 14  8  2  0  0  0  0
 14 12  1  0  0  0  0
 15  5  1  0  0  0  0
 16 15  1  0  0  0  0
 17 16  2  0  0  0  0
 18 19  2  0  0  0  0
 18 17  1  0  0  0  0
 19 20  1  0  0  0  0
 20 15  2  0  0  0  0
 21 26  2  0  0  0  0
 21 22  1  0  0  0  0
 22 23  2  0  0  0  0
 23 24  1  0  0  0  0
 24  1  1  0  0  0  0
 25 24  2  0  0  0  0
 26 25  1  0  0  0  0
 27 31  1  6  0  0  0
 27 21  1  0  0  0  0
 27 28  1  0  0  0  0
 29 38  1  6  0  0  0
 29 28  1  0  0  0  0
 30 29  1  0  0  0  0
 30 27  1  0  0  0  0
 31 33  1  0  0  0  0
 32 31  1  0  0  0  0
 34 31  1  0  0  0  0
 35 29  1  0  0  0  0
 36 35  1  0  0  0  0
 37 36  1  0  0  0  0
 37 35  1  0  0  0  0
 39 38  1  0  0  0  0
M  END
>  <minimizedAffinity>
-10.7070312

$$$$

 OpenBabel11232420433D

 39 45  0  0  1  0  0  0  0  0999 V2000
  -17.1400   30.3670   11.9180 C   0  0  0  0  0  0  0  0  0  0  0  0
  -16.1680   30.8850   11.0880 N   0  0  0  0  0  0  0  0  0  0  0  0
  -15.8060   32.0260   11.6260 C   0  0  0  0  0  0  0  0  0  0  0  0
  -16.4970   32.2510   12.7840 N   0  0  0  0  0  0  0  0  0  0  0  0
  -17.3530   31.1980   13.0120 C   0  0  0  0  0  0  0  0  0  0  0  0
  -16.1770   33.3760   13.6430 C   0  0  0  0  0  2  0  0  0  0  0  0
  -15.6670   34.5110   12.9120 O   0  0  0  0  0  0  0  0  0  0  0  0
  -14.8210   34.2330   11.8660 C   0  0  0  0  0  0  0  0  0  0  0  0
  -13.9680   35.2580   11.4570 C   0  0  0  0  0  3  0  0  0  0  0  0
  -13.1060   35.0560   10.3770 C   0  0  0  0  0  3  0  0  0  0  0  0
  -13.1120   33.8340    9.7030 C   0  0  0  0  0  3  0  0  0  0  0  0
  -13.9820   32.8210   10.1040 C   0  0  0  0  0  0  0  0  0  0  0  0
  -13.9630   31.6640    9.4260 F   0  0  0  0  0  0  0  0  0  0  0  0
  -14.8460   33.0110   11.1800 C   0  0  0  0  0  0  0  0  0  0  0  0
  -18.1780   31.0690   14.2050 C   0  0  0  0  0  0  0  0  0  0  0  0
  -17.6920   30.4020   15.3360 C   0  0  0  0  0  3  0  0  0  0  0  0
  -18.4910   30.2710   16.4730 C   0  0  0  0  0  3  0  0  0  0  0  0
  -19.7780   30.8070   16.4860 C   0  0  0  0  0  3  0  0  0  0  0  0
  -20.2670   31.4760   15.3650 C   0  0  0  0  0  3  0  0  0  0  0  0
  -19.4690   31.6090   14.2280 C   0  0  0  0  0  3  0  0  0  0  0  0
  -19.1480   26.6200   11.1540 C   0  0  0  0  0  0  0  0  0  0  0  0
  -19.8380   27.8440   11.2570 C   0  0  0  0  0  3  0  0  0  0  0  0
  -19.1710   29.0530   11.4860 C   0  0  0  0  0  3  0  0  0  0  0  0
  -17.7800   29.0960   11.6090 C   0  0  0  0  0  0  0  0  0  0  0  0
  -17.0720   27.9000   11.4990 C   0  0  0  0  0  3  0  0  0  0  0  0
  -17.7440   26.6910   11.2720 C   0  0  0  0  0  3  0  0  0  0  0  0
  -19.9010   25.2560   10.9190 C   0  0  2  0  0  0  0  0  0  0  0  0
  -19.9740   24.2100   12.0680 C   0  0  0  0  0  2  0  0  0  0  0  0
  -19.9790   23.0920   10.9670 C   0  0  1  0  0  0  0  0  0  0  0  0
  -19.2060   24.1370   10.0850 C   0  0  0  0  0  2  0  0  0  0  0  0
  -21.2560   25.5690   10.3970 N   0  0  0  0  0  4  0  0  0  0  0  0
  -21.2200   26.0720    9.5040 H   0  0  0  0  0  0  0  0  0  0  0  0
  -21.7970   26.1390   11.0560 H   0  0  0  0  0  0  0  0  0  0  0  0
  -21.7830   24.6860   10.2430 H   0  0  0  0  0  0  0  0  0  0  0  0
  -19.3020   21.7920   11.3500 C   0  0  0  0  0  3  0  0  0  0  0  0
  -20.0230   20.6550   12.0240 C   0  0  0  0  0  2  0  0  0  0  0  0
  -19.4540   20.4740   10.6430 C   0  0  0  0  0  2  0  0  0  0  0  0
  -21.3230   22.8770   10.4360 O   0  0  0  0  0  0  0  0  0  0  0  0
  -21.3000   21.9680   10.0690 H   0  0  0  0  0  0  0  0  0  0  0  0
  1  5  2  0  0  0  0
  2  3  2  0  0  0  0
  2  1  1  0  0  0  0
  3  4  1  0  0  0  0
  4  5  1  0  0  0  0
  4  6  1  0  0  0  0
  5 15  1  0  0  0  0
  7  6  1  0  0  0  0
  8  7  1  0  0  0  0
  9  8  1  0  0  0  0
 10  9  2  0  0  0  0
 11 12  2  0  0  0  0
 11 10  1  0  0  0  0
 12 14  1  0  0  0  0
 13 12  1  0  0  0  0
 14  3  1  0  0  0  0
 14  8  2  0  0  0  0
 15 20  2  0  0  0  0
 15 16  1  0  0  0  0
 16 17  2  0  0  0  0
 17 18  1  0  0  0  0
 19 18  2  0  0  0  0
 20 19  1  0  0  0  0
 21 22  2  0  0  0  0
 21 26  1  0  0  0  0
 22 23  1  0  0  0  0
 23 24  2  0  0  0  0
 24  1  1  0  0  0  0
 25 24  1  0  0  0  0
 26 25  2  0  0  0  0
 27 31  1  6  0  0  0
 27 21  1  0  0  0  0
 27 28  1  0  0  0  0
 29 38  1  6  0  0  0
 29 35  1  0  0  0  0
 29 28  1  0  0  0  0
 30 27  1  0  0  0  0
 30 29  1  0  0  0  0
 31 33  1  0  0  0  0
 32 31  1  0  0  0  0
 34 31  1  0  0  0  0
 35 36  1  0  0  0  0
 37 35  1  0  0  0  0
 37 36  1  0  0  0  0
 39 38  1  0  0  0  0
M  END
>  <minimizedAffinity>
-10.6979351

$$$$

 OpenBabel11232420433D

 39 45  0  0  1  0  0  0  0  0999 V2000
  -21.7990   16.1500   12.7670 C   0  0  0  0  0  0  0  0  0  0  0  0
  -22.3240   15.0720   12.0870 N   0  0  0  0  0  0  0  0  0  0  0  0
  -22.9730   14.3630   12.9800 C   0  0  0  0  0  0  0  0  0  0  0  0
  -22.9020   14.9590   14.2090 N   0  0  0  0  0  0  0  0  0  0  0  0
  -22.1680   16.1190   14.1080 C   0  0  0  0  0  0  0  0  0  0  0  0
  -23.6590   14.4480   15.3370 C   0  0  0  0  0  2  0  0  0  0  0  0
  -23.8630   13.0210   15.2730 O   0  0  0  0  0  0  0  0  0  0  0  0
  -24.1190   12.4960   14.0290 C   0  0  0  0  0  0  0  0  0  0  0  0
  -24.7670   11.2620   13.9880 C   0  0  0  0  0  3  0  0  0  0  0  0
  -25.0270   10.6540   12.7580 C   0  0  0  0  0  3  0  0  0  0  0  0
  -24.6270   11.2780   11.5750 C   0  0  0  0  0  3  0  0  0  0  0  0
  -23.9610   12.5020   11.6250 C   0  0  0  0  0  0  0  0  0  0  0  0
  -23.5850   13.0670   10.4690 F   0  0  0  0  0  0  0  0  0  0  0  0
  -23.6960   13.1180   12.8470 C   0  0  0  0  0  0  0  0  0  0  0  0
  -21.9670   17.0480   15.2100 C   0  0  0  0  0  0  0  0  0  0  0  0
  -20.8720   16.9030   16.0700 C   0  0  0  0  0  3  0  0  0  0  0  0
  -20.6890   17.7900   17.1330 C   0  0  0  0  0  3  0  0  0  0  0  0
  -21.6000   18.8250   17.3410 C   0  0  0  0  0  3  0  0  0  0  0  0
  -22.6920   18.9770   16.4860 C   0  0  0  0  0  3  0  0  0  0  0  0
  -22.8740   18.0920   15.4230 C   0  0  0  0  0  3  0  0  0  0  0  0
  -19.5740   19.2170   10.6930 C   0  0  0  0  0  0  0  0  0  0  0  0
  -20.2900   19.4700   11.8790 C   0  0  0  0  0  3  0  0  0  0  0  0
  -20.9920   18.4610   12.5510 C   0  0  0  0  0  3  0  0  0  0  0  0
  -20.9970   17.1480   12.0730 C   0  0  0  0  0  0  0  0  0  0  0  0
  -20.2850   16.8680   10.9080 C   0  0  0  0  0  3  0  0  0  0  0  0
  -19.5870   17.8820   10.2370 C   0  0  0  0  0  3  0  0  0  0  0  0
  -18.8050   20.3570    9.9250 C   0  0  2  0  0  0  0  0  0  0  0  0
  -19.3950   20.9280    8.6040 C   0  0  0  0  0  2  0  0  0  0  0  0
  -17.9210   21.1800    8.1270 C   0  0  1  0  0  0  0  0  0  0  0  0
  -17.5460   19.9910    9.0810 C   0  0  0  0  0  2  0  0  0  0  0  0
  -18.5180   21.4450   10.8960 N   0  0  0  0  0  4  0  0  0  0  0  0
  -17.9270   21.1270   11.6700 H   0  0  0  0  0  0  0  0  0  0  0  0
  -19.3780   21.8350   11.2960 H   0  0  0  0  0  0  0  0  0  0  0  0
  -18.0200   22.2200   10.4130 H   0  0  0  0  0  0  0  0  0  0  0  0
  -17.6840   21.0450    6.6360 C   0  0  0  0  0  3  0  0  0  0  0  0
  -16.3180   21.1280    6.0090 C   0  0  0  0  0  2  0  0  0  0  0  0
  -17.1050   19.8470    5.9380 C   0  0  0  0  0  2  0  0  0  0  0  0
  -17.4000   22.4380    8.6560 O   0  0  0  0  0  0  0  0  0  0  0  0
  -16.6780   22.6830    8.0390 H   0  0  0  0  0  0  0  0  0  0  0  0
  1  5  2  0  0  0  0
  2  1  1  0  0  0  0
  2  3  2  0  0  0  0
  3  4  1  0  0  0  0
  4  6  1  0  0  0  0
  5  4  1  0  0  0  0
  5 15  1  0  0  0  0
  7  6  1  0  0  0  0
  8  7  1  0  0  0  0
  9  8  1  0  0  0  0
 10  9  2  0  0  0  0
 11 12  2  0  0  0  0
 11 10  1  0  0  0  0
 12 14  1  0  0  0  0
 13 12  1  0  0  0  0
 14  3  1  0  0  0  0
 14  8  2  0  0  0  0
 15 20  2  0  0  0  0
 15 16  1  0  0  0  0
 16 17  2  0  0  0  0
 17 18  1  0  0  0  0
 19 18  2  0  0  0  0
 20 19  1  0  0  0  0
 21 22  1  0  0  0  0
 22 23  2  0  0  0  0
 24 23  1  0  0  0  0
 24  1  1  0  0  0  0
 25 24  2  0  0  0  0
 26 21  2  0  0  0  0
 26 25  1  0  0  0  0
 27 21  1  0  0  0  0
 27 31  1  1  0  0  0
 28 27  1  0  0  0  0
 29 28  1  0  0  0  0
 29 38  1  1  0  0  0
 29 30  1  0  0  0  0
 30 27  1  0  0  0  0
 31 33  1  0  0  0  0
 31 32  1  0  0  0  0
 34 31  1  0  0  0  0
 35 29  1  0  0  0  0
 36 35  1  0  0  0  0
 37 36  1  0  0  0  0
 37 35  1  0  0  0  0
 39 38  1  0  0  0  0
M  END
>  <minimizedAffinity>
-10.4646406

$$$$

 OpenBabel11232420433D

 39 45  0  0  1  0  0  0  0  0999 V2000
  -19.6560   15.7150   14.1130 C   0  0  0  0  0  0  0  0  0  0  0  0
  -19.2150   15.6880   12.8070 N   0  0  0  0  0  0  0  0  0  0  0  0
  -19.5520   16.8460   12.2880 C   0  0  0  0  0  0  0  0  0  0  0  0
  -20.1770   17.6250   13.2220 N   0  0  0  0  0  0  0  0  0  0  0  0
  -20.2490   16.9370   14.4110 C   0  0  0  0  0  0  0  0  0  0  0  0
  -20.5210   19.0060   12.9380 C   0  0  0  0  0  2  0  0  0  0  0  0
  -20.8080   19.2370   11.5430 O   0  0  0  0  0  0  0  0  0  0  0  0
  -20.0190   18.5660   10.6390 C   0  0  0  0  0  0  0  0  0  0  0  0
  -19.9430   19.1000    9.3520 C   0  0  0  0  0  3  0  0  0  0  0  0
  -19.1880   18.4500    8.3750 C   0  0  0  0  0  3  0  0  0  0  0  0
  -18.5210   17.2640    8.6840 C   0  0  0  0  0  3  0  0  0  0  0  0
  -18.6180   16.7250    9.9670 C   0  0  0  0  0  0  0  0  0  0  0  0
  -17.9700   15.5800   10.2240 F   0  0  0  0  0  0  0  0  0  0  0  0
  -19.3690   17.3650   10.9510 C   0  0  0  0  0  0  0  0  0  0  0  0
  -20.7770   17.5050   15.6440 C   0  0  0  0  0  0  0  0  0  0  0  0
  -21.8890   18.3550   15.6150 C   0  0  0  0  0  3  0  0  0  0  0  0
  -22.3840   18.9050   16.7980 C   0  0  0  0  0  3  0  0  0  0  0  0
  -21.7710   18.6110   18.0150 C   0  0  0  0  0  3  0  0  0  0  0  0
  -20.6650   17.7620   18.0520 C   0  0  0  0  0  3  0  0  0  0  0  0
  -20.1700   17.2090   16.8700 C   0  0  0  0  0  3  0  0  0  0  0  0
  -18.9580   12.2360   16.5750 C   0  0  0  0  0  0  0  0  0  0  0  0
  -17.9100   13.0130   16.0440 C   0  0  0  0  0  3  0  0  0  0  0  0
  -18.1520   14.1490   15.2630 C   0  0  0  0  0  3  0  0  0  0  0  0
  -19.4560   14.5690   14.9880 C   0  0  0  0  0  0  0  0  0  0  0  0
  -20.5120   13.8250   15.5130 C   0  0  0  0  0  3  0  0  0  0  0  0
  -20.2650   12.6860   16.2920 C   0  0  0  0  0  3  0  0  0  0  0  0
  -18.6850   10.9430   17.4340 C   0  0  2  0  0  0  0  0  0  0  0  0
  -19.7210    9.7830   17.4280 C   0  0  0  0  0  2  0  0  0  0  0  0
  -19.2890    9.4730   18.9040 C   0  0  1  0  0  0  0  0  0  0  0  0
  -18.9070   10.9940   18.9760 C   0  0  0  0  0  2  0  0  0  0  0  0
  -17.3270   10.4480   17.0900 N   0  0  0  0  0  4  0  0  0  0  0  0
  -16.5980   11.1350   17.3070 H   0  0  0  0  0  0  0  0  0  0  0  0
  -17.2490   10.2100   16.0950 H   0  0  0  0  0  0  0  0  0  0  0  0
  -17.1230    9.5860   17.6340 H   0  0  0  0  0  0  0  0  0  0  0  0
  -20.3800    8.9330   19.8070 C   0  0  0  0  0  3  0  0  0  0  0  0
  -20.9930    7.5690   19.6330 C   0  0  0  0  0  2  0  0  0  0  0  0
  -20.2090    7.8910   20.8760 C   0  0  0  0  0  2  0  0  0  0  0  0
  -18.0850    8.6460   18.9420 O   0  0  0  0  0  0  0  0  0  0  0  0
  -18.1130    8.2110   19.8210 H   0  0  0  0  0  0  0  0  0  0  0  0
  1  5  2  0  0  0  0
  1 24  1  0  0  0  0
  2  1  1  0  0  0  0
  3  2  2  0  0  0  0
  3  4  1  0  0  0  0
  4  5  1  0  0  0  0
  5 15  1  0  0  0  0
  6  4  1  0  0  0  0
  7  6  1  0  0  0  0
  8 14  1  0  0  0  0
  8  7  1  0  0  0  0
  9  8  2  0  0  0  0
 10 11  2  0  0  0  0
 10  9  1  0  0  0  0
 11 12  1  0  0  0  0
 12 13  1  0  0  0  0
 12 14  2  0  0  0  0
 14  3  1  0  0  0  0
 15 20  1  0  0  0  0
 16 15  2  0  0  0  0
 16 17  1  0  0  0  0
 17 18  2  0  0  0  0
 18 19  1  0  0  0  0
 20 19  2  0  0  0  0
 21 27  1  0  0  0  0
 22 21  2  0  0  0  0
 23 22  1  0  0  0  0
 24 23  2  0  0  0  0
 24 25  1  0  0  0  0
 25 26  2  0  0  0  0
 26 21  1  0  0  0  0
 27 31  1  6  0  0  0
 27 30  1  0  0  0  0
 28 27  1  0  0  0  0
 28 29  1  0  0  0  0
 29 38  1  1  0  0  0
 29 30  1  0  0  0  0
 29 35  1  0  0  0  0
 31 32  1  0  0  0  0
 31 34  1  0  0  0  0
 33 31  1  0  0  0  0
 35 37  1  0  0  0  0
 36 35  1  0  0  0  0
 36 37  1  0  0  0  0
 38 39  1  0  0  0  0
M  END
>  <minimizedAffinity>
-9.95035267

$$$$

 OpenBabel11232420433D

 39 45  0  0  1  0  0  0  0  0999 V2000
  -20.4170   15.9440   13.9580 C   0  0  0  0  0  0  0  0  0  0  0  0
  -19.8070   15.8450   12.7260 N   0  0  0  0  0  0  0  0  0  0  0  0
  -19.8330   17.0530   12.2130 C   0  0  0  0  0  0  0  0  0  0  0  0
  -20.4210   17.9300   13.0820 N   0  0  0  0  0  0  0  0  0  0  0  0
  -20.7950   17.2550   14.2220 C   0  0  0  0  0  0  0  0  0  0  0  0
  -20.4430   19.3560   12.8100 C   0  0  0  0  0  2  0  0  0  0  0  0
  -20.4760   19.6560   11.3990 O   0  0  0  0  0  0  0  0  0  0  0  0
  -19.7120   18.8530   10.5870 C   0  0  0  0  0  0  0  0  0  0  0  0
  -19.3500   19.3760    9.3450 C   0  0  0  0  0  3  0  0  0  0  0  0
  -18.6050   18.6020    8.4550 C   0  0  0  0  0  3  0  0  0  0  0  0
  -18.2350   17.3020    8.8060 C   0  0  0  0  0  3  0  0  0  0  0  0
  -18.6180   16.7780   10.0400 C   0  0  0  0  0  0  0  0  0  0  0  0
  -18.2500   15.5230   10.3370 F   0  0  0  0  0  0  0  0  0  0  0  0
  -19.3620   17.5420   10.9360 C   0  0  0  0  0  0  0  0  0  0  0  0
  -21.3730   17.9020   15.3920 C   0  0  0  0  0  0  0  0  0  0  0  0
  -22.5320   18.6770   15.2740 C   0  0  0  0  0  3  0  0  0  0  0  0
  -23.0760   19.3030   16.3970 C   0  0  0  0  0  3  0  0  0  0  0  0
  -22.4640   19.1600   17.6410 C   0  0  0  0  0  3  0  0  0  0  0  0
  -21.3100   18.3860   17.7660 C   0  0  0  0  0  3  0  0  0  0  0  0
  -20.7670   17.7570   16.6450 C   0  0  0  0  0  3  0  0  0  0  0  0
  -20.9830   12.5660   16.5900 C   0  0  0  0  0  0  0  0  0  0  0  0
  -22.0590   13.2850   16.0360 C   0  0  0  0  0  3  0  0  0  0  0  0
  -21.8600   14.3670   15.1700 C   0  0  0  0  0  3  0  0  0  0  0  0
  -20.5730   14.7700   14.8050 C   0  0  0  0  0  0  0  0  0  0  0  0
  -19.4900   14.0660   15.3300 C   0  0  0  0  0  3  0  0  0  0  0  0
  -19.6930   12.9860   16.2000 C   0  0  0  0  0  3  0  0  0  0  0  0
  -21.2060   11.3640   17.5840 C   0  0  2  0  0  0  0  0  0  0  0  0
  -21.3580    9.9210   17.0250 C   0  0  0  0  0  2  0  0  0  0  0  0
  -22.3010    9.6160   18.2410 C   0  0  1  0  0  0  0  0  0  0  0  0
  -22.6140   11.1540   18.2200 C   0  0  0  0  0  2  0  0  0  0  0  0
  -20.1410   11.4270   18.6180 N   0  0  0  0  0  4  0  0  0  0  0  0
  -20.1740   12.2970   19.1580 H   0  0  0  0  0  0  0  0  0  0  0  0
  -19.2040   11.3480   18.2060 H   0  0  0  0  0  0  0  0  0  0  0  0
  -20.2540   10.6360   19.2840 H   0  0  0  0  0  0  0  0  0  0  0  0
  -23.4150    8.6230   17.9730 C   0  0  0  0  0  3  0  0  0  0  0  0
  -23.2070    7.3340   17.2240 C   0  0  0  0  0  2  0  0  0  0  0  0
  -23.6140    7.3080   18.6730 C   0  0  0  0  0  2  0  0  0  0  0  0
  -21.5330    9.2710   19.4350 O   0  0  0  0  0  0  0  0  0  0  0  0
  -22.1580    8.7560   19.9890 H   0  0  0  0  0  0  0  0  0  0  0  0
  1  5  2  0  0  0  0
  1 24  1  0  0  0  0
  2  1  1  0  0  0  0
  3  2  2  0  0  0  0
  3  4  1  0  0  0  0
  4  5  1  0  0  0  0
  5 15  1  0  0  0  0
  6  4  1  0  0  0  0
  7  6  1  0  0  0  0
  8 14  1  0  0  0  0
  8  7  1  0  0  0  0
  9  8  2  0  0  0  0
 10 11  2  0  0  0  0
 10  9  1  0  0  0  0
 11 12  1  0  0  0  0
 12 13  1  0  0  0  0
 12 14  2  0  0  0  0
 14  3  1  0  0  0  0
 15 20  1  0  0  0  0
 16 15  2  0  0  0  0
 16 17  1  0  0  0  0
 17 18  2  0  0  0  0
 18 19  1  0  0  0  0
 20 19  2  0  0  0  0
 21 27  1  0  0  0  0
 22 21  2  0  0  0  0
 23 22  1  0  0  0  0
 24 23  2  0  0  0  0
 24 25  1  0  0  0  0
 25 26  2  0  0  0  0
 26 21  1  0  0  0  0
 27 30  1  0  0  0  0
 27 31  1  1  0  0  0
 28 27  1  0  0  0  0
 28 29  1  0  0  0  0
 29 38  1  1  0  0  0
 30 29  1  0  0  0  0
 31 32  1  0  0  0  0
 31 34  1  0  0  0  0
 33 31  1  0  0  0  0
 35 29  1  0  0  0  0
 35 37  1  0  0  0  0
 36 35  1  0  0  0  0
 36 37  1  0  0  0  0
 38 39  1  0  0  0  0
M  END
>  <minimizedAffinity>
-9.80249691

$$$$
