
 OpenBabel11232420433D

 39 45  0  0  1  0  0  0  0  0999 V2000
  -18.0610   22.9140    9.7560 C   0  0  0  0  0  0  0  0  0  0  0  0
  -17.1540   22.6660    8.7470 N   0  0  0  0  0  0  0  0  0  0  0  0
  -17.2190   21.3760    8.5130 C   0  0  0  0  0  0  0  0  0  0  0  0
  -18.1520   20.7890    9.3220 N   0  0  0  0  0  0  0  0  0  0  0  0
  -18.7240   21.7500   10.1240 C   0  0  0  0  0  0  0  0  0  0  0  0
  -18.5150   19.3930    9.1590 C   0  0  0  0  0  2  0  0  0  0  0  0
  -17.4280   18.5860    8.6600 O   0  0  0  0  0  0  0  0  0  0  0  0
  -16.6280   19.1640    7.7030 C   0  0  0  0  0  0  0  0  0  0  0  0
  -15.9010   18.3000    6.8850 C   0  0  0  0  0  3  0  0  0  0  0  0
  -15.0420   18.8190    5.9160 C   0  0  0  0  0  3  0  0  0  0  0  0
  -14.9040   20.2010    5.7770 C   0  0  0  0  0  3  0  0  0  0  0  0
  -15.6190   21.0590    6.6120 C   0  0  0  0  0  0  0  0  0  0  0  0
  -15.4550   22.3800    6.4530 F   0  0  0  0  0  0  0  0  0  0  0  0
  -16.4790   20.5520    7.5830 C   0  0  0  0  0  0  0  0  0  0  0  0
  -19.8190   21.4850   11.0470 C   0  0  0  0  0  0  0  0  0  0  0  0
  -19.7890   20.3630   11.8820 C   0  0  0  0  0  3  0  0  0  0  0  0
  -20.8460   20.1080   12.7570 C   0  0  0  0  0  3  0  0  0  0  0  0
  -21.9390   20.9720   12.8010 C   0  0  0  0  0  3  0  0  0  0  0  0
  -21.9750   22.0950   11.9740 C   0  0  0  0  0  3  0  0  0  0  0  0
  -20.9170   22.3520   11.1000 C   0  0  0  0  0  3  0  0  0  0  0  0
  -18.4320   26.9610   11.2200 C   0  0  0  0  0  0  0  0  0  0  0  0
  -18.3200   26.6570    9.8490 C   0  0  0  0  0  3  0  0  0  0  0  0
  -18.2200   25.3390    9.3880 C   0  0  0  0  0  3  0  0  0  0  0  0
  -18.2400   24.2610   10.2780 C   0  0  0  0  0  0  0  0  0  0  0  0
  -18.3630   24.5340   11.6400 C   0  0  0  0  0  3  0  0  0  0  0  0
  -18.4600   25.8560   12.0970 C   0  0  0  0  0  3  0  0  0  0  0  0
  -18.5210   28.4450   11.7400 C   0  0  2  0  0  0  0  0  0  0  0  0
  -17.7280   28.8640   13.0110 C   0  0  0  0  0  2  0  0  0  0  0  0
  -18.8730   29.8940   13.3110 C   0  0  1  0  0  0  0  0  0  0  0  0
  -19.7950   28.9060   12.5120 C   0  0  0  0  0  2  0  0  0  0  0  0
  -18.2150   29.3450   10.5990 N   0  0  0  0  0  4  0  0  0  0  0  0
  -18.8830   29.2360    9.8290 H   0  0  0  0  0  0  0  0  0  0  0  0
  -17.2740   29.1800   10.2240 H   0  0  0  0  0  0  0  0  0  0  0  0
  -18.2540   30.3350   10.9150 H   0  0  0  0  0  0  0  0  0  0  0  0
  -19.1520   30.1550   14.7770 C   0  0  0  0  0  3  0  0  0  0  0  0
  -18.0660   30.2840   15.8120 C   0  0  0  0  0  2  0  0  0  0  0  0
  -18.9520   31.4590   15.4970 C   0  0  0  0  0  2  0  0  0  0  0  0
  -18.6850   31.1320   12.5580 O   0  0  0  0  0  0  0  0  0  0  0  0
  -19.1860   31.8060   13.0650 H   0  0  0  0  0  0  0  0  0  0  0  0
  1  5  2  0  0  0  0
  1 24  1  0  0  0  0
  2  1  1  0  0  0  0
  3  2  2  0  0  0  0
  3  4  1  0  0  0  0
  4  5  1  0  0  0  0
  5 15  1  0  0  0  0
  6  4  1  0  0  0  0
  7  6  1  0  0  0  0
  8  7  1  0  0  0  0
  9  8  2  0  0  0  0
 10  9  1  0  0  0  0
 11 10  2  0  0  0  0
 11 12  1  0  0  0  0
 12 14  2  0  0  0  0
 13 12  1  0  0  0  0
 14  8  1  0  0  0  0
 14  3  1  0  0  0  0
 15 20  2  0  0  0  0
 15 16  1  0  0  0  0
 16 17  2  0  0  0  0
 17 18  1  0  0  0  0
 19 18  2  0  0  0  0
 20 19  1  0  0  0  0
 21 27  1  0  0  0  0
 21 26  1  0  0  0  0
 22 21  2  0  0  0  0
 23 22  1  0  0  0  0
 23 24  2  0  0  0  0
 24 25  1  0  0  0  0
 25 26  2  0  0  0  0
 27 31  1  6  0  0  0
 27 30  1  0  0  0  0
 27 28  1  0  0  0  0
 28 29  1  0  0  0  0
 29 38  1  6  0  0  0
 29 35  1  0  0  0  0
 30 29  1  0  0  0  0
 31 34  1  0  0  0  0
 32 31  1  0  0  0  0
 33 31  1  0  0  0  0
 35 37  1  0  0  0  0
 35 36  1  0  0  0  0
 37 36  1  0  0  0  0
 38 39  1  0  0  0  0
M  END
>  <minimizedAffinity>
-12.2713127

$$$$
