
 OpenBabel11232420433D

 39 45  0  0  1  0  0  0  0  0999 V2000
  -19.4980   20.5360   11.1390 C   0  0  0  0  0  0  0  0  0  0  0  0
  -20.1510   19.9700   12.2140 N   0  0  0  0  0  0  0  0  0  0  0  0
  -20.3530   18.7130   11.8930 C   0  0  0  0  0  0  0  0  0  0  0  0
  -19.8330   18.4450   10.6560 N   0  0  0  0  0  0  0  0  0  0  0  0
  -19.2620   19.5900   10.1480 C   0  0  0  0  0  0  0  0  0  0  0  0
  -19.8010   17.0920   10.1330 C   0  0  0  0  0  2  0  0  0  0  0  0
  -20.8910   16.2790   10.6140 O   0  0  0  0  0  0  0  0  0  0  0  0
  -21.2510   16.4570   11.9290 C   0  0  0  0  0  0  0  0  0  0  0  0
  -21.9380   15.4090   12.5410 C   0  0  0  0  0  3  0  0  0  0  0  0
  -22.3650   15.5370   13.8640 C   0  0  0  0  0  3  0  0  0  0  0  0
  -22.1130   16.7170   14.5650 C   0  0  0  0  0  3  0  0  0  0  0  0
  -21.4440   17.7690   13.9400 C   0  0  0  0  0  0  0  0  0  0  0  0
  -21.2270   18.8890   14.6440 F   0  0  0  0  0  0  0  0  0  0  0  0
  -21.0130   17.6530   12.6200 C   0  0  0  0  0  0  0  0  0  0  0  0
  -18.5390   19.6400    8.8850 C   0  0  0  0  0  0  0  0  0  0  0  0
  -17.6160   18.6420    8.5540 C   0  0  0  0  0  3  0  0  0  0  0  0
  -16.9180   18.7000    7.3480 C   0  0  0  0  0  3  0  0  0  0  0  0
  -17.1370   19.7580    6.4660 C   0  0  0  0  0  3  0  0  0  0  0  0
  -18.0580   20.7550    6.7870 C   0  0  0  0  0  3  0  0  0  0  0  0
  -18.7590   20.6960    7.9920 C   0  0  0  0  0  3  0  0  0  0  0  0
  -18.4950   24.7350   11.0190 C   0  0  0  0  0  0  0  0  0  0  0  0
  -19.8250   24.2720   11.0130 C   0  0  0  0  0  3  0  0  0  0  0  0
  -20.1350   22.9080   11.0710 C   0  0  0  0  0  3  0  0  0  0  0  0
  -19.1270   21.9430   11.1520 C   0  0  0  0  0  0  0  0  0  0  0  0
  -17.8020   22.3760   11.1740 C   0  0  0  0  0  3  0  0  0  0  0  0
  -17.4960   23.7430   11.1120 C   0  0  0  0  0  3  0  0  0  0  0  0
  -18.1460   26.2690   10.9290 C   0  0  2  0  0  0  0  0  0  0  0  0
  -18.9940   27.2990   11.7300 C   0  0  0  0  0  2  0  0  0  0  0  0
  -18.7070   28.3320   10.5830 C   0  0  1  0  0  0  0  0  0  0  0  0
  -18.5620   27.0710    9.6590 C   0  0  0  0  0  2  0  0  0  0  0  0
  -16.6990   26.4230   11.2280 N   0  0  0  0  0  4  0  0  0  0  0  0
  -16.1090   25.9220   10.5550 H   0  0  0  0  0  0  0  0  0  0  0  0
  -16.4650   26.0820   12.1670 H   0  0  0  0  0  0  0  0  0  0  0  0
  -16.4400   27.4290   11.1880 H   0  0  0  0  0  0  0  0  0  0  0  0
  -19.8110   29.3340   10.3130 C   0  0  0  0  0  3  0  0  0  0  0  0
  -20.0770   30.5250   11.1930 C   0  0  0  0  0  2  0  0  0  0  0  0
  -19.6310   30.7240    9.7700 C   0  0  0  0  0  2  0  0  0  0  0  0
  -17.4100   28.9790   10.7650 O   0  0  0  0  0  0  0  0  0  0  0  0
  -17.4830   29.8200   10.2660 H   0  0  0  0  0  0  0  0  0  0  0  0
  1 24  1  0  0  0  0
  1  2  1  0  0  0  0
  3  2  2  0  0  0  0
  3 14  1  0  0  0  0
  4  3  1  0  0  0  0
  5  4  1  0  0  0  0
  5  1  2  0  0  0  0
  6  7  1  0  0  0  0
  6  4  1  0  0  0  0
  7  8  1  0  0  0  0
  8  9  2  0  0  0  0
  8 14  1  0  0  0  0
  9 10  1  0  0  0  0
 10 11  2  0  0  0  0
 12 11  1  0  0  0  0
 12 13  1  0  0  0  0
 14 12  2  0  0  0  0
 15  5  1  0  0  0  0
 16 15  1  0  0  0  0
 17 16  2  0  0  0  0
 18 19  2  0  0  0  0
 18 17  1  0  0  0  0
 19 20  1  0  0  0  0
 20 15  2  0  0  0  0
 21 26  1  0  0  0  0
 22 21  2  0  0  0  0
 22 23  1  0  0  0  0
 23 24  2  0  0  0  0
 24 25  1  0  0  0  0
 26 25  2  0  0  0  0
 27 21  1  0  0  0  0
 27 31  1  1  0  0  0
 27 28  1  0  0  0  0
 29 38  1  1  0  0  0
 29 28  1  0  0  0  0
 30 29  1  0  0  0  0
 30 27  1  0  0  0  0
 31 33  1  0  0  0  0
 32 31  1  0  0  0  0
 34 31  1  0  0  0  0
 35 29  1  0  0  0  0
 35 36  1  0  0  0  0
 37 35  1  0  0  0  0
 37 36  1  0  0  0  0
 39 38  1  0  0  0  0
M  END
>  <minimizedAffinity>
-12.7957516

$$$$
