
 OpenBabel10152419203D

 41 45  0  0  1  0  0  0  0  0999 V2000
   10.3570  -12.7150   12.4520 C   0  0  2  0  0  3  0  0  0  0  0  0
    9.9370  -11.2600   12.6270 C   0  0  0  0  0  0  0  0  0  0  0  0
   10.7890  -10.1880   12.3570 C   0  0  0  0  0  3  0  0  0  0  0  0
   10.5450   -8.9580   12.9490 C   0  0  0  0  0  3  0  0  0  0  0  0
    9.3560   -8.7420   13.6390 C   0  0  0  0  0  3  0  0  0  0  0  0
    8.3310   -9.6750   13.5940 C   0  0  0  0  0  0  0  0  0  0  0  0
    8.6580  -10.9640   13.1490 C   0  0  0  0  0  3  0  0  0  0  0  0
    6.9860   -9.4240   13.9280 N   0  0  0  0  0  0  0  0  0  0  0  0
    5.7760   -9.7300   13.3370 C   0  0  0  0  0  0  0  0  0  0  0  0
    4.7340   -9.4440   13.9270 O   0  0  0  0  0  0  0  0  0  0  0  0
    6.8150   -8.9850   14.8250 H   0  0  0  0  0  0  0  0  0  0  0  0
    5.6780  -10.3120   11.9900 C   0  0  0  0  0  0  0  0  0  0  0  0
    4.9130  -11.4740   11.8470 C   0  0  0  0  0  3  0  0  0  0  0  0
    4.6290  -11.9600   10.5710 C   0  0  0  0  0  3  0  0  0  0  0  0
    5.1170  -11.2830    9.4520 C   0  0  0  0  0  0  0  0  0  0  0  0
    4.6030  -11.8520    7.7250 Br  0  0  0  0  0  0  0  0  0  0  0  0
    5.9490  -10.1710    9.5970 C   0  0  0  0  0  0  0  0  0  0  0  0
    6.2650   -9.7010   10.8760 C   0  0  0  0  0  3  0  0  0  0  0  0
   10.0270  -13.3700   11.1730 N   0  0  0  0  0  0  0  0  0  0  0  0
    9.5520  -14.2690   11.2510 H   0  0  0  0  0  0  0  0  0  0  0  0
    9.3880  -12.7970   10.0860 C   0  0  0  0  0  0  0  0  0  0  0  0
    8.5030  -13.6640    9.5700 N   0  0  0  0  0  0  0  0  0  0  0  0
    7.6050  -13.1630    8.7240 C   0  0  0  0  0  3  0  0  0  0  0  0
    7.4890  -11.8760    8.3880 N   0  0  0  0  0  0  0  0  0  0  0  0
    8.4210  -11.0090    8.8460 C   0  0  0  0  0  0  0  0  0  0  0  0
    8.3470   -9.6270    8.5840 C   0  0  0  0  0  0  0  0  0  0  0  0
    9.3650   -8.7500    9.0050 C   0  0  0  0  0  3  0  0  0  0  0  0
   10.4590   -9.2260    9.7100 C   0  0  0  0  0  3  0  0  0  0  0  0
   10.5140  -10.5720   10.0460 C   0  0  0  0  0  3  0  0  0  0  0  0
    9.4830  -11.4630    9.6560 C   0  0  0  0  0  0  0  0  0  0  0  0
    7.1700   -8.9770    7.9230 C   0  0  1  0  0  3  0  0  0  0  0  0
    7.2310   -8.7170    6.5840 N   0  0  0  0  0  0  0  0  0  0  0  0
    6.1520   -8.7150    8.5490 O   0  0  0  0  0  0  0  0  0  0  0  0
    6.4300   -8.2990    6.1320 H   0  0  0  0  0  0  0  0  0  0  0  0
    8.0690   -8.9110    6.0470 H   0  0  0  0  0  0  0  0  0  0  0  0
    9.8270  -13.5520   13.6310 C   0  0  0  0  0  2  0  0  0  0  0  0
    8.3320  -13.4190   13.9290 C   0  0  0  0  0  2  0  0  0  0  0  0
    8.0750  -15.0810   12.0370 C   0  0  0  0  0  1  0  0  0  0  0  0
    7.4290  -14.0040   12.8670 N   0  0  0  0  0  4  0  0  0  0  0  0
    6.1410  -14.5100   13.4780 C   0  0  0  0  0  1  0  0  0  0  0  0
    7.1400  -13.2410   12.2380 H   0  0  0  0  0  0  0  0  0  0  0  0
  1  2  1  0  0  0  0
  1 36  1  1  0  0  0
  2  7  1  0  0  0  0
  3  2  2  0  0  0  0
  3  4  1  0  0  0  0
  4  5  2  0  0  0  0
  6  5  1  0  0  0  0
  6  8  1  0  0  0  0
  7  6  2  0  0  0  0
  8 11  1  0  0  0  0
  9 10  2  0  0  0  0
  9  8  1  0  0  0  0
 12  9  1  0  0  0  0
 13 12  1  0  0  0  0
 14 13  2  0  0  0  0
 15 17  2  0  0  0  0
 15 14  1  0  0  0  0
 16 15  1  0  0  0  0
 17 18  1  0  0  0  0
 18 12  2  0  0  0  0
 19 20  1  0  0  0  0
 19  1  1  0  0  0  0
 21 19  1  0  0  0  0
 22 21  2  0  0  0  0
 23 22  1  0  0  0  0
 24 23  2  0  0  0  0
 24 25  1  0  0  0  0
 25 30  1  0  0  0  0
 26 25  2  0  0  0  0
 26 27  1  0  0  0  0
 27 28  2  0  0  0  0
 28 29  1  0  0  0  0
 30 29  2  0  0  0  0
 30 21  1  0  0  0  0
 31 32  1  6  0  0  0
 31 33  1  0  0  0  0
 31 26  1  0  0  0  0
 33 17  1  0  0  0  0
 34 32  1  0  0  0  0
 35 32  1  0  0  0  0
 36 37  1  0  0  0  0
 38 39  1  0  0  0  0
 39 40  1  0  0  0  0
 39 37  1  0  0  0  0
 41 39  1  0  0  0  0
M  END
>  <minimizedAffinity>
16.5053291

$$$$
