
 OpenBabel11232419403D

 41 47  0  0  1  0  0  0  0  0999 V2000
   60.3630  -42.7670   16.5790 C   0  0  0  0  0  0  0  0  0  0  0  0
   60.3130  -43.7910   15.6850 N   0  0  0  0  0  0  0  0  0  0  0  0
   61.3940  -43.9920   14.9020 C   0  0  0  0  0  0  0  0  0  0  0  0
   61.2760  -45.0910   13.9450 C   0  0  0  0  0  3  0  0  0  0  0  0
   62.2800  -45.3670   13.1040 C   0  0  0  0  0  3  0  0  0  0  0  0
   63.4650  -44.5950   13.1360 C   0  0  0  0  0  0  0  0  0  0  0  0
   64.5530  -44.6860   12.4080 N   0  0  0  0  0  0  0  0  0  0  0  0
   65.4120  -43.7080   12.8150 N   0  0  0  0  0  0  0  0  0  0  0  0
   64.8450  -43.0250   13.7920 C   0  0  0  0  0  0  0  0  0  0  0  0
   63.5900  -43.5500   14.0490 N   0  0  0  0  0  0  0  0  0  0  0  0
   62.5560  -43.2180   14.9650 C   0  0  0  0  0  0  0  0  0  0  0  0
   62.6020  -42.1940   15.9060 C   0  0  0  0  0  3  0  0  0  0  0  0
   61.4940  -41.9450   16.7400 C   0  0  0  0  0  0  0  0  0  0  0  0
   56.6730  -42.1250   18.7760 C   0  0  0  0  0  0  0  0  0  0  0  0
   56.8140  -41.7540   17.4210 C   0  0  0  0  0  3  0  0  0  0  0  0
   58.0010  -41.9670   16.7100 C   0  0  0  0  0  3  0  0  0  0  0  0
   59.1030  -42.5800   17.3150 C   0  0  0  0  0  0  0  0  0  0  0  0
   58.9810  -42.9670   18.6540 C   0  0  0  0  0  3  0  0  0  0  0  0
   57.7970  -42.7430   19.3650 C   0  0  0  0  0  3  0  0  0  0  0  0
   55.3600  -41.7940   19.6080 C   0  0  1  0  0  0  0  0  0  0  0  0
   54.2530  -42.8700   19.7030 C   0  0  0  0  0  2  0  0  0  0  0  0
   54.1170  -42.6220   21.2430 C   0  0  1  0  0  0  0  0  0  0  0  0
   55.4330  -41.7820   21.1530 C   0  0  0  0  0  2  0  0  0  0  0  0
   54.8580  -40.5080   19.0650 N   0  0  0  0  0  4  0  0  0  0  0  0
   54.0580  -40.1280   19.5790 H   0  0  0  0  0  0  0  0  0  0  0  0
   54.5770  -40.6050   18.0790 H   0  0  0  0  0  0  0  0  0  0  0  0
   55.5970  -39.7900   19.0770 H   0  0  0  0  0  0  0  0  0  0  0  0
   52.8450  -41.9140   21.7290 C   0  0  0  0  0  3  0  0  0  0  0  0
   52.6200  -41.2930   23.0850 C   0  0  0  0  0  2  0  0  0  0  0  0
   52.6240  -40.4290   21.8580 C   0  0  0  0  0  2  0  0  0  0  0  0
   54.3040  -43.8400   22.0080 O   0  0  0  0  0  0  0  0  0  0  0  0
   55.1160  -44.2790   21.7000 H   0  0  0  0  0  0  0  0  0  0  0  0
   61.5660  -40.8640   17.7370 C   0  0  0  0  0  0  0  0  0  0  0  0
   62.5850  -40.8460   18.7040 C   0  0  0  0  0  3  0  0  0  0  0  0
   62.6570  -39.8190   19.6480 C   0  0  0  0  0  3  0  0  0  0  0  0
   61.7110  -38.7970   19.6420 C   0  0  0  0  0  3  0  0  0  0  0  0
   60.6870  -38.8040   18.6980 C   0  0  0  0  0  3  0  0  0  0  0  0
   60.6150  -39.8310   17.7540 C   0  0  0  0  0  3  0  0  0  0  0  0
   65.4830  -41.8800   14.4670 C   0  0  0  0  0  3  0  0  0  0  0  0
   66.0520  -42.2520   15.6470 F   0  0  0  0  0  0  0  0  0  0  0  0
   66.4800  -41.3480   13.7100 F   0  0  0  0  0  0  0  0  0  0  0  0
  1 13  1  0  0  0  0
  1 17  1  0  0  0  0
  2  1  2  0  0  0  0
  3 11  2  0  0  0  0
  3  2  1  0  0  0  0
  4  3  1  0  0  0  0
  5  6  1  0  0  0  0
  5  4  2  0  0  0  0
  6 10  1  0  0  0  0
  7  8  1  0  0  0  0
  7  6  2  0  0  0  0
  8  9  2  0  0  0  0
  9 10  1  0  0  0  0
  9 39  1  0  0  0  0
 10 11  1  0  0  0  0
 11 12  1  0  0  0  0
 12 13  2  0  0  0  0
 13 33  1  0  0  0  0
 14 19  1  0  0  0  0
 14 20  1  0  0  0  0
 15 14  2  0  0  0  0
 16 17  2  0  0  0  0
 16 15  1  0  0  0  0
 17 18  1  0  0  0  0
 18 19  2  0  0  0  0
 20 24  1  6  0  0  0
 20 21  1  0  0  0  0
 20 23  1  0  0  0  0
 21 22  1  0  0  0  0
 22 28  1  0  0  0  0
 22 31  1  1  0  0  0
 23 22  1  0  0  0  0
 24 27  1  0  0  0  0
 24 25  1  0  0  0  0
 26 24  1  0  0  0  0
 28 30  1  0  0  0  0
 28 29  1  0  0  0  0
 30 29  1  0  0  0  0
 32 31  1  0  0  0  0
 33 38  2  0  0  0  0
 33 34  1  0  0  0  0
 34 35  2  0  0  0  0
 36 35  1  0  0  0  0
 37 36  2  0  0  0  0
 38 37  1  0  0  0  0
 39 40  1  0  0  0  0
 41 39  1  0  0  0  0
M  END
>  <minimizedAffinity>
-4.56398582

$$$$
