
 OpenBabel11232419403D

 41 47  0  0  1  0  0  0  0  0999 V2000
   57.7310  -42.9580   19.0300 C   0  0  0  0  0  0  0  0  0  0  0  0
   56.9300  -44.0570   19.0200 N   0  0  0  0  0  0  0  0  0  0  0  0
   55.8580  -44.0590   19.8420 C   0  0  0  0  0  0  0  0  0  0  0  0
   55.0460  -45.2740   19.8050 C   0  0  0  0  0  3  0  0  0  0  0  0
   53.9710  -45.3940   20.5940 C   0  0  0  0  0  3  0  0  0  0  0  0
   53.6130  -44.3420   21.4690 C   0  0  0  0  0  0  0  0  0  0  0  0
   52.6200  -44.2530   22.3220 N   0  0  0  0  0  0  0  0  0  0  0  0
   52.7060  -43.0410   22.9400 N   0  0  0  0  0  0  0  0  0  0  0  0
   53.7530  -42.3930   22.4610 C   0  0  0  0  0  0  0  0  0  0  0  0
   54.3770  -43.1770   21.5060 N   0  0  0  0  0  0  0  0  0  0  0  0
   55.5250  -42.9980   20.6880 C   0  0  0  0  0  0  0  0  0  0  0  0
   56.3380  -41.8690   20.6640 C   0  0  0  0  0  3  0  0  0  0  0  0
   57.4690  -41.8260   19.8250 C   0  0  0  0  0  0  0  0  0  0  0  0
   61.2280  -43.2740   16.4770 C   0  0  0  0  0  0  0  0  0  0  0  0
   61.3330  -43.0680   17.8690 C   0  0  0  0  0  3  0  0  0  0  0  0
   60.2060  -42.9730   18.6950 C   0  0  0  0  0  3  0  0  0  0  0  0
   58.9160  -43.0980   18.1690 C   0  0  0  0  0  0  0  0  0  0  0  0
   58.7900  -43.3150   16.7920 C   0  0  0  0  0  3  0  0  0  0  0  0
   59.9180  -43.3990   15.9690 C   0  0  0  0  0  3  0  0  0  0  0  0
   62.5050  -43.2830   15.5290 C   0  0  1  0  0  0  0  0  0  0  0  0
   62.4150  -42.5690   14.1600 C   0  0  0  0  0  2  0  0  0  0  0  0
   63.8060  -41.8920   14.3990 C   0  0  1  0  0  0  0  0  0  0  0  0
   63.7090  -42.3790   15.8830 C   0  0  0  0  0  2  0  0  0  0  0  0
   62.8960  -44.7080   15.4030 N   0  0  0  0  0  4  0  0  0  0  0  0
   63.7700  -44.8510   14.8870 H   0  0  0  0  0  0  0  0  0  0  0  0
   62.1640  -45.2550   14.9300 H   0  0  0  0  0  0  0  0  0  0  0  0
   63.0160  -45.1410   16.3300 H   0  0  0  0  0  0  0  0  0  0  0  0
   64.9850  -42.3950   13.5540 C   0  0  0  0  0  3  0  0  0  0  0  0
   66.3860  -41.8380   13.5390 C   0  0  0  0  0  2  0  0  0  0  0  0
   66.1430  -43.2380   14.0210 C   0  0  0  0  0  2  0  0  0  0  0  0
   63.7320  -40.4470   14.2990 O   0  0  0  0  0  0  0  0  0  0  0  0
   62.9870  -40.1360   14.8430 H   0  0  0  0  0  0  0  0  0  0  0  0
   58.3110  -40.6190   19.8060 C   0  0  0  0  0  0  0  0  0  0  0  0
   58.2320  -39.7070   18.7400 C   0  0  0  0  0  3  0  0  0  0  0  0
   59.0270  -38.5570   18.7220 C   0  0  0  0  0  3  0  0  0  0  0  0
   59.9150  -38.3060   19.7650 C   0  0  0  0  0  3  0  0  0  0  0  0
   60.0140  -39.2050   20.8240 C   0  0  0  0  0  3  0  0  0  0  0  0
   59.2200  -40.3530   20.8430 C   0  0  0  0  0  3  0  0  0  0  0  0
   54.1600  -41.0500   22.9120 C   0  0  0  0  0  3  0  0  0  0  0  0
   55.4860  -41.0090   23.2210 F   0  0  0  0  0  0  0  0  0  0  0  0
   53.9620  -40.1170   21.9420 F   0  0  0  0  0  0  0  0  0  0  0  0
  1 13  1  0  0  0  0
  2  1  2  0  0  0  0
  2  3  1  0  0  0  0
  3 11  2  0  0  0  0
  4  3  1  0  0  0  0
  4  5  2  0  0  0  0
  5  6  1  0  0  0  0
  6 10  1  0  0  0  0
  6  7  2  0  0  0  0
  7  8  1  0  0  0  0
  9 39  1  0  0  0  0
  9  8  2  0  0  0  0
 10  9  1  0  0  0  0
 11 10  1  0  0  0  0
 12 11  1  0  0  0  0
 13 12  2  0  0  0  0
 14 15  1  0  0  0  0
 15 16  2  0  0  0  0
 17 16  1  0  0  0  0
 17  1  1  0  0  0  0
 18 17  2  0  0  0  0
 19 14  2  0  0  0  0
 19 18  1  0  0  0  0
 20 24  1  6  0  0  0
 20 23  1  0  0  0  0
 20 14  1  0  0  0  0
 21 22  1  0  0  0  0
 21 20  1  0  0  0  0
 22 31  1  6  0  0  0
 22 23  1  0  0  0  0
 24 27  1  0  0  0  0
 25 24  1  0  0  0  0
 26 24  1  0  0  0  0
 28 30  1  0  0  0  0
 28 22  1  0  0  0  0
 29 28  1  0  0  0  0
 29 30  1  0  0  0  0
 31 32  1  0  0  0  0
 33 13  1  0  0  0  0
 33 38  1  0  0  0  0
 34 33  2  0  0  0  0
 35 34  1  0  0  0  0
 35 36  2  0  0  0  0
 36 37  1  0  0  0  0
 37 38  2  0  0  0  0
 39 40  1  0  0  0  0
 41 39  1  0  0  0  0
M  END
>  <minimizedAffinity>
-2.73388147

$$$$
