
 OpenBabel11232419403D

 41 47  0  0  1  0  0  0  0  0999 V2000
   60.4110  -41.9680   16.7630 C   0  0  0  0  0  0  0  0  0  0  0  0
   61.4640  -41.3370   17.3470 N   0  0  0  0  0  0  0  0  0  0  0  0
   62.6330  -41.3130   16.6730 C   0  0  0  0  0  0  0  0  0  0  0  0
   63.7360  -40.6410   17.3590 C   0  0  0  0  0  3  0  0  0  0  0  0
   64.9460  -40.5760   16.7910 C   0  0  0  0  0  3  0  0  0  0  0  0
   65.1670  -41.1590   15.5210 C   0  0  0  0  0  0  0  0  0  0  0  0
   66.2600  -41.2180   14.7970 N   0  0  0  0  0  0  0  0  0  0  0  0
   65.9650  -41.8940   13.6500 N   0  0  0  0  0  0  0  0  0  0  0  0
   64.6910  -42.2440   13.6780 C   0  0  0  0  0  0  0  0  0  0  0  0
   64.1210  -41.7960   14.8570 N   0  0  0  0  0  0  0  0  0  0  0  0
   62.8160  -41.8890   15.4130 C   0  0  0  0  0  0  0  0  0  0  0  0
   61.7210  -42.5050   14.8160 C   0  0  0  0  0  3  0  0  0  0  0  0
   60.4830  -42.5580   15.4860 C   0  0  0  0  0  0  0  0  0  0  0  0
   56.8490  -42.1760   19.2370 C   0  0  0  0  0  0  0  0  0  0  0  0
   57.9850  -42.9750   19.4890 C   0  0  0  0  0  3  0  0  0  0  0  0
   59.1360  -42.9040   18.6960 C   0  0  0  0  0  3  0  0  0  0  0  0
   59.2160  -42.0150   17.6200 C   0  0  0  0  0  0  0  0  0  0  0  0
   58.1050  -41.2040   17.3590 C   0  0  0  0  0  3  0  0  0  0  0  0
   56.9520  -41.2860   18.1470 C   0  0  0  0  0  3  0  0  0  0  0  0
   55.5080  -42.3290   20.0770 C   0  0  1  0  0  0  0  0  0  0  0  0
   54.3860  -43.2380   19.5210 C   0  0  0  0  0  2  0  0  0  0  0  0
   54.1930  -43.8940   20.9290 C   0  0  1  0  0  0  0  0  0  0  0  0
   55.5210  -43.1900   21.3620 C   0  0  0  0  0  2  0  0  0  0  0  0
   55.0420  -40.9460   20.3390 N   0  0  0  0  0  4  0  0  0  0  0  0
   54.2270  -40.8960   20.9570 H   0  0  0  0  0  0  0  0  0  0  0  0
   54.7980  -40.4630   19.4630 H   0  0  0  0  0  0  0  0  0  0  0  0
   55.7870  -40.3820   20.7720 H   0  0  0  0  0  0  0  0  0  0  0  0
   52.9110  -43.5430   21.6970 C   0  0  0  0  0  3  0  0  0  0  0  0
   52.6580  -43.7430   23.1700 C   0  0  0  0  0  2  0  0  0  0  0  0
   52.6880  -42.3560   22.5990 C   0  0  0  0  0  2  0  0  0  0  0  0
   54.3370  -45.3370   20.8810 O   0  0  0  0  0  0  0  0  0  0  0  0
   55.1550  -45.5520   20.4000 H   0  0  0  0  0  0  0  0  0  0  0  0
   59.3320  -43.2040   14.8340 C   0  0  0  0  0  0  0  0  0  0  0  0
   58.5330  -42.4950   13.9220 C   0  0  0  0  0  3  0  0  0  0  0  0
   57.4430  -43.1070   13.2980 C   0  0  0  0  0  3  0  0  0  0  0  0
   57.1340  -44.4350   13.5800 C   0  0  0  0  0  3  0  0  0  0  0  0
   57.9090  -45.1510   14.4890 C   0  0  0  0  0  3  0  0  0  0  0  0
   58.9990  -44.5390   15.1120 C   0  0  0  0  0  3  0  0  0  0  0  0
   64.0280  -43.0030   12.6030 C   0  0  0  0  0  3  0  0  0  0  0  0
   63.9620  -44.3310   12.8990 F   0  0  0  0  0  0  0  0  0  0  0  0
   62.7470  -42.5860   12.4160 F   0  0  0  0  0  0  0  0  0  0  0  0
  1  2  1  0  0  0  0
  1 17  1  0  0  0  0
  3  2  2  0  0  0  0
  3  4  1  0  0  0  0
  5  4  2  0  0  0  0
  6  5  1  0  0  0  0
  7  6  2  0  0  0  0
  8  9  2  0  0  0  0
  8  7  1  0  0  0  0
  9 10  1  0  0  0  0
 10 11  1  0  0  0  0
 10  6  1  0  0  0  0
 11  3  1  0  0  0  0
 12 11  2  0  0  0  0
 12 13  1  0  0  0  0
 13  1  2  0  0  0  0
 14 15  1  0  0  0  0
 14 20  1  0  0  0  0
 16 15  2  0  0  0  0
 17 16  1  0  0  0  0
 18 17  2  0  0  0  0
 18 19  1  0  0  0  0
 19 14  2  0  0  0  0
 20 24  1  1  0  0  0
 20 23  1  0  0  0  0
 21 20  1  0  0  0  0
 21 22  1  0  0  0  0
 22 31  1  6  0  0  0
 22 23  1  0  0  0  0
 22 28  1  0  0  0  0
 24 27  1  0  0  0  0
 24 25  1  0  0  0  0
 26 24  1  0  0  0  0
 28 30  1  0  0  0  0
 28 29  1  0  0  0  0
 30 29  1  0  0  0  0
 32 31  1  0  0  0  0
 33 38  1  0  0  0  0
 33 13  1  0  0  0  0
 34 33  2  0  0  0  0
 35 36  2  0  0  0  0
 35 34  1  0  0  0  0
 36 37  1  0  0  0  0
 37 38  2  0  0  0  0
 39 40  1  0  0  0  0
 39  9  1  0  0  0  0
 41 39  1  0  0  0  0
M  END
>  <minimizedAffinity>
-2.43548822

$$$$
