
 OpenBabel11232419403D

 41 47  0  0  1  0  0  0  0  0999 V2000
   61.0280  -42.3010   16.7930 C   0  0  0  0  0  0  0  0  0  0  0  0
   60.9480  -43.3630   15.9470 N   0  0  0  0  0  0  0  0  0  0  0  0
   62.0880  -43.7830   15.3590 C   0  0  0  0  0  0  0  0  0  0  0  0
   61.9380  -44.9130   14.4440 C   0  0  0  0  0  3  0  0  0  0  0  0
   63.0000  -45.3990   13.7890 C   0  0  0  0  0  3  0  0  0  0  0  0
   64.2770  -44.8200   13.9790 C   0  0  0  0  0  0  0  0  0  0  0  0
   65.4330  -45.1280   13.4410 N   0  0  0  0  0  0  0  0  0  0  0  0
   66.3690  -44.2700   13.9390 N   0  0  0  0  0  0  0  0  0  0  0  0
   65.7790  -43.4410   14.7820 C   0  0  0  0  0  0  0  0  0  0  0  0
   64.4310  -43.7460   14.8550 N   0  0  0  0  0  0  0  0  0  0  0  0
   63.3370  -43.1960   15.5760 C   0  0  0  0  0  0  0  0  0  0  0  0
   63.4070  -42.1300   16.4670 C   0  0  0  0  0  3  0  0  0  0  0  0
   62.2410  -41.6550   17.1000 C   0  0  0  0  0  0  0  0  0  0  0  0
   57.1660  -41.1020   18.3730 C   0  0  0  0  0  0  0  0  0  0  0  0
   58.3790  -40.6270   18.9160 C   0  0  0  0  0  3  0  0  0  0  0  0
   59.6250  -41.0070   18.4030 C   0  0  0  0  0  3  0  0  0  0  0  0
   59.7180  -41.8700   17.3060 C   0  0  0  0  0  0  0  0  0  0  0  0
   58.5270  -42.3430   16.7440 C   0  0  0  0  0  3  0  0  0  0  0  0
   57.2850  -41.9690   17.2670 C   0  0  0  0  0  3  0  0  0  0  0  0
   55.7570  -40.7460   19.0180 C   0  0  1  0  0  0  0  0  0  0  0  0
   55.3080  -39.2660   19.0460 C   0  0  0  0  0  2  0  0  0  0  0  0
   53.8810  -39.6690   18.5430 C   0  0  1  0  0  0  0  0  0  0  0  0
   54.4660  -41.0870   18.2380 C   0  0  0  0  0  2  0  0  0  0  0  0
   55.7710  -41.3610   20.3680 N   0  0  0  0  0  4  0  0  0  0  0  0
   54.8770  -41.2860   20.8640 H   0  0  0  0  0  0  0  0  0  0  0  0
   56.4940  -40.9350   20.9640 H   0  0  0  0  0  0  0  0  0  0  0  0
   56.0050  -42.3630   20.3140 H   0  0  0  0  0  0  0  0  0  0  0  0
   52.7290  -39.5690   19.5520 C   0  0  0  0  0  3  0  0  0  0  0  0
   52.6300  -40.2730   20.8820 C   0  0  0  0  0  2  0  0  0  0  0  0
   52.7080  -38.7750   20.8330 C   0  0  0  0  0  2  0  0  0  0  0  0
   53.5130  -38.9630   17.3300 O   0  0  0  0  0  0  0  0  0  0  0  0
   54.2450  -39.0380   16.6930 H   0  0  0  0  0  0  0  0  0  0  0  0
   62.3360  -40.5330   18.0480 C   0  0  0  0  0  0  0  0  0  0  0  0
   62.8900  -40.7170   19.3250 C   0  0  0  0  0  3  0  0  0  0  0  0
   62.9850  -39.6520   20.2250 C   0  0  0  0  0  3  0  0  0  0  0  0
   62.5250  -38.3890   19.8620 C   0  0  0  0  0  3  0  0  0  0  0  0
   61.9630  -38.1900   18.6030 C   0  0  0  0  0  3  0  0  0  0  0  0
   61.8680  -39.2540   17.7040 C   0  0  0  0  0  3  0  0  0  0  0  0
   66.4860  -42.3660   15.5010 C   0  0  0  0  0  3  0  0  0  0  0  0
   65.9120  -41.1530   15.2720 F   0  0  0  0  0  0  0  0  0  0  0  0
   66.4520  -42.5610   16.8470 F   0  0  0  0  0  0  0  0  0  0  0  0
  1 13  1  0  0  0  0
  1 17  1  0  0  0  0
  2  1  2  0  0  0  0
  3 11  2  0  0  0  0
  3  2  1  0  0  0  0
  4  3  1  0  0  0  0
  5  6  1  0  0  0  0
  5  4  2  0  0  0  0
  6 10  1  0  0  0  0
  7  8  1  0  0  0  0
  7  6  2  0  0  0  0
  8  9  2  0  0  0  0
  9 10  1  0  0  0  0
  9 39  1  0  0  0  0
 10 11  1  0  0  0  0
 11 12  1  0  0  0  0
 12 13  2  0  0  0  0
 13 33  1  0  0  0  0
 14 15  1  0  0  0  0
 14 20  1  0  0  0  0
 16 15  2  0  0  0  0
 17 16  1  0  0  0  0
 18 19  1  0  0  0  0
 18 17  2  0  0  0  0
 19 14  2  0  0  0  0
 20 21  1  0  0  0  0
 20 24  1  1  0  0  0
 22 31  1  6  0  0  0
 22 21  1  0  0  0  0
 22 28  1  0  0  0  0
 23 22  1  0  0  0  0
 23 20  1  0  0  0  0
 24 25  1  0  0  0  0
 24 26  1  0  0  0  0
 27 24  1  0  0  0  0
 28 30  1  0  0  0  0
 28 29  1  0  0  0  0
 30 29  1  0  0  0  0
 32 31  1  0  0  0  0
 33 34  1  0  0  0  0
 34 35  2  0  0  0  0
 36 35  1  0  0  0  0
 37 36  2  0  0  0  0
 38 33  2  0  0  0  0
 38 37  1  0  0  0  0
 39 41  1  0  0  0  0
 40 39  1  0  0  0  0
M  END
>  <minimizedAffinity>
-3.07078052

$$$$
