
 OpenBabel11232420463D

 42 47  0  0  1  0  0  0  0  0999 V2000
  -13.8330   34.3240    9.6700 C   0  0  0  0  0  0  0  0  0  0  0  0
  -13.5100   35.3510   10.5670 C   0  0  0  0  0  3  0  0  0  0  0  0
  -14.0610   35.3560   11.8500 C   0  0  0  0  0  3  0  0  0  0  0  0
  -14.9590   34.3570   12.2210 C   0  0  0  0  0  0  0  0  0  0  0  0
  -15.2980   33.3410   11.3200 C   0  0  0  0  0  0  0  0  0  0  0  0
  -14.7420   33.3260   10.0410 C   0  0  0  0  0  3  0  0  0  0  0  0
  -16.2130   32.3240   11.7810 C   0  0  0  0  0  0  0  0  0  0  0  0
  -16.5680   31.1890   11.2250 N   0  0  0  0  0  0  0  0  0  0  0  0
  -17.4520   30.5940   12.1090 C   0  0  0  0  0  0  0  0  0  0  0  0
  -17.6450   31.4020   13.2260 C   0  0  0  0  0  0  0  0  0  0  0  0
  -16.8360   32.4900   12.9830 N   0  0  0  0  0  0  0  0  0  0  0  0
  -16.6720   33.7000   13.7680 C   0  0  0  0  0  2  0  0  0  0  0  0
  -15.4330   34.3930   13.5080 O   0  0  0  0  0  0  0  0  0  0  0  0
  -18.4300   31.2580   14.4440 C   0  0  0  0  0  0  0  0  0  0  0  0
  -17.8710   30.6560   15.5780 C   0  0  0  0  0  3  0  0  0  0  0  0
  -18.6260   30.5160   16.7440 C   0  0  0  0  0  3  0  0  0  0  0  0
  -19.9410   30.9780   16.7820 C   0  0  0  0  0  3  0  0  0  0  0  0
  -20.5040   31.5780   15.6570 C   0  0  0  0  0  3  0  0  0  0  0  0
  -19.7520   31.7170   14.4890 C   0  0  0  0  0  3  0  0  0  0  0  0
  -18.0310   29.2860   11.8080 C   0  0  0  0  0  0  0  0  0  0  0  0
  -17.2730   28.1460   11.5390 C   0  0  0  0  0  3  0  0  0  0  0  0
  -17.8920   26.9220   11.2430 C   0  0  0  0  0  3  0  0  0  0  0  0
  -19.2940   26.7670   11.2280 C   0  0  0  0  0  0  0  0  0  0  0  0
  -20.0380   27.9230   11.5280 C   0  0  0  0  0  3  0  0  0  0  0  0
  -19.4240   29.1510   11.8050 C   0  0  0  0  0  3  0  0  0  0  0  0
  -19.9740   25.3780   10.9210 C   0  0  1  0  0  0  0  0  0  0  0  0
  -19.2480   24.3230   10.0310 C   0  0  0  0  0  2  0  0  0  0  0  0
  -19.9650   23.2300   10.8820 C   0  0  1  0  0  0  0  0  0  0  0  0
  -19.1560   21.9680   11.1110 C   0  0  0  0  0  1  0  0  0  0  0  0
  -19.9750   24.2790   12.0330 C   0  0  0  0  0  2  0  0  0  0  0  0
  -21.3430   25.6410   10.4060 N   0  0  0  0  0  4  0  0  0  0  0  0
  -21.9310   26.1310   11.0870 H   0  0  0  0  0  0  0  0  0  0  0  0
  -21.3230   26.2040    9.5470 H   0  0  0  0  0  0  0  0  0  0  0  0
  -21.8100   24.7410   10.1760 H   0  0  0  0  0  0  0  0  0  0  0  0
  -21.2980   22.9190   10.3950 O   0  0  0  0  0  0  0  0  0  0  0  0
  -21.4940   22.0120   10.7110 H   0  0  0  0  0  0  0  0  0  0  0  0
  -12.2050   33.5150    7.9930 N   0  0  0  0  0  0  0  0  0  0  0  0
  -13.2880   34.3000    8.2950 C   0  0  0  0  0  0  0  0  0  0  0  0
  -13.8260   34.9780    7.4250 O   0  0  0  0  0  0  0  0  0  0  0  0
  -11.8850   33.6410    7.0400 H   0  0  0  0  0  0  0  0  0  0  0  0
  -11.8580   31.1200    8.3820 C   0  0  0  0  0  1  0  0  0  0  0  0
  -11.5300   32.5360    8.8240 C   0  0  0  0  0  2  0  0  0  0  0  0
  1  6  2  0  0  0  0
  1  2  1  0  0  0  0
  2  3  2  0  0  0  0
  3  4  1  0  0  0  0
  4 13  1  0  0  0  0
  5  7  1  0  0  0  0
  5  4  2  0  0  0  0
  6  5  1  0  0  0  0
  7 11  1  0  0  0  0
  8  7  2  0  0  0  0
  8  9  1  0  0  0  0
  9 10  2  0  0  0  0
 10 14  1  0  0  0  0
 11 10  1  0  0  0  0
 11 12  1  0  0  0  0
 13 12  1  0  0  0  0
 14 19  2  0  0  0  0
 14 15  1  0  0  0  0
 15 16  2  0  0  0  0
 16 17  1  0  0  0  0
 18 17  2  0  0  0  0
 19 18  1  0  0  0  0
 20  9  1  0  0  0  0
 21 20  2  0  0  0  0
 22 21  1  0  0  0  0
 23 22  2  0  0  0  0
 23 24  1  0  0  0  0
 24 25  2  0  0  0  0
 25 20  1  0  0  0  0
 26 31  1  6  0  0  0
 26 23  1  0  0  0  0
 26 30  1  0  0  0  0
 27 28  1  0  0  0  0
 27 26  1  0  0  0  0
 28 29  1  1  0  0  0
 28 30  1  0  0  0  0
 31 32  1  0  0  0  0
 33 31  1  0  0  0  0
 34 31  1  0  0  0  0
 35 36  1  0  0  0  0
 35 28  1  0  0  0  0
 37 38  1  0  0  0  0
 37 42  1  0  0  0  0
 38  1  1  0  0  0  0
 39 38  2  0  0  0  0
 40 37  1  0  0  0  0
 41 42  1  0  0  0  0
M  END
>  <minimizedAffinity>
-10.0256176

$$$$
