
 OpenBabel11232420463D

 42 47  0  0  1  0  0  0  0  0999 V2000
  -21.7420   16.9690   14.7820 C   0  0  0  0  0  0  0  0  0  0  0  0
  -21.4720   15.6600   14.3600 C   0  0  0  0  0  3  0  0  0  0  0  0
  -20.7470   15.4410   13.1870 C   0  0  0  0  0  3  0  0  0  0  0  0
  -20.3270   16.5270   12.4210 C   0  0  0  0  0  0  0  0  0  0  0  0
  -20.6130   17.8340   12.8300 C   0  0  0  0  0  0  0  0  0  0  0  0
  -21.3260   18.0580   14.0080 C   0  0  0  0  0  3  0  0  0  0  0  0
  -20.1220   18.9110   12.0030 C   0  0  0  0  0  0  0  0  0  0  0  0
  -20.0960   20.2050   12.2240 N   0  0  0  0  0  0  0  0  0  0  0  0
  -19.4970   20.7680   11.1100 C   0  0  0  0  0  0  0  0  0  0  0  0
  -19.1640   19.7830   10.1840 C   0  0  0  0  0  0  0  0  0  0  0  0
  -19.5720   18.6160   10.7900 N   0  0  0  0  0  0  0  0  0  0  0  0
  -19.5470   17.2600   10.2720 C   0  0  0  0  0  2  0  0  0  0  0  0
  -19.5840   16.2480   11.3020 O   0  0  0  0  0  0  0  0  0  0  0  0
  -18.5090   19.8110    8.8840 C   0  0  0  0  0  0  0  0  0  0  0  0
  -17.6110   18.7990    8.5230 C   0  0  0  0  0  3  0  0  0  0  0  0
  -16.9820   18.8280    7.2770 C   0  0  0  0  0  3  0  0  0  0  0  0
  -17.2480   19.8670    6.3870 C   0  0  0  0  0  3  0  0  0  0  0  0
  -18.1410   20.8790    6.7390 C   0  0  0  0  0  3  0  0  0  0  0  0
  -18.7700   20.8520    7.9850 C   0  0  0  0  0  3  0  0  0  0  0  0
  -19.2830   22.2120   11.0360 C   0  0  0  0  0  0  0  0  0  0  0  0
  -18.0800   22.8360   11.3660 C   0  0  0  0  0  3  0  0  0  0  0  0
  -17.9460   24.2310   11.2860 C   0  0  0  0  0  3  0  0  0  0  0  0
  -18.9930   25.0680   10.8470 C   0  0  0  0  0  0  0  0  0  0  0  0
  -20.1890   24.4140   10.4940 C   0  0  0  0  0  3  0  0  0  0  0  0
  -20.3320   23.0250   10.5910 C   0  0  0  0  0  3  0  0  0  0  0  0
  -18.8170   26.6310   10.7360 C   0  0  1  0  0  0  0  0  0  0  0  0
  -20.0010   27.5860   11.0750 C   0  0  0  0  0  2  0  0  0  0  0  0
  -18.9300   28.6150   11.5510 C   0  0  1  0  0  0  0  0  0  0  0  0
  -19.3490   29.4720   12.7300 C   0  0  0  0  0  1  0  0  0  0  0  0
  -18.0310   27.3810   11.8600 C   0  0  0  0  0  2  0  0  0  0  0  0
  -18.2720   26.9360    9.3860 N   0  0  0  0  0  4  0  0  0  0  0  0
  -17.3550   26.5070    9.2270 H   0  0  0  0  0  0  0  0  0  0  0  0
  -18.9010   26.6130    8.6420 H   0  0  0  0  0  0  0  0  0  0  0  0
  -18.1620   27.9640    9.2760 H   0  0  0  0  0  0  0  0  0  0  0  0
  -18.4090   29.4310   10.4660 O   0  0  0  0  0  0  0  0  0  0  0  0
  -18.0770   30.2530   10.8850 H   0  0  0  0  0  0  0  0  0  0  0  0
  -21.9420   17.1310   17.2420 N   0  0  0  0  0  0  0  0  0  0  0  0
  -22.5270   17.2370   16.0070 C   0  0  0  0  0  0  0  0  0  0  0  0
  -23.7030   17.5730   15.9030 O   0  0  0  0  0  0  0  0  0  0  0  0
  -22.6000   17.2700   18.0000 H   0  0  0  0  0  0  0  0  0  0  0  0
  -20.2990   15.4540   17.9460 C   0  0  0  0  0  1  0  0  0  0  0  0
  -20.5480   16.9050   17.5730 C   0  0  0  0  0  2  0  0  0  0  0  0
  1 38  1  0  0  0  0
  2  1  1  0  0  0  0
  3  2  2  0  0  0  0
  4  5  2  0  0  0  0
  4  3  1  0  0  0  0
  5  6  1  0  0  0  0
  6  1  2  0  0  0  0
  7  8  2  0  0  0  0
  7  5  1  0  0  0  0
  9  8  1  0  0  0  0
 10 11  1  0  0  0  0
 10  9  2  0  0  0  0
 11  7  1  0  0  0  0
 12 11  1  0  0  0  0
 12 13  1  0  0  0  0
 13  4  1  0  0  0  0
 14 10  1  0  0  0  0
 15 14  1  0  0  0  0
 16 15  2  0  0  0  0
 17 18  2  0  0  0  0
 17 16  1  0  0  0  0
 18 19  1  0  0  0  0
 19 14  2  0  0  0  0
 20  9  1  0  0  0  0
 20 21  1  0  0  0  0
 22 21  2  0  0  0  0
 23 22  1  0  0  0  0
 24 25  1  0  0  0  0
 24 23  2  0  0  0  0
 25 20  2  0  0  0  0
 26 31  1  6  0  0  0
 26 23  1  0  0  0  0
 26 27  1  0  0  0  0
 26 30  1  0  0  0  0
 27 28  1  0  0  0  0
 28 30  1  0  0  0  0
 28 29  1  1  0  0  0
 32 31  1  0  0  0  0
 33 31  1  0  0  0  0
 34 31  1  0  0  0  0
 35 36  1  0  0  0  0
 35 28  1  0  0  0  0
 37 42  1  0  0  0  0
 37 40  1  0  0  0  0
 38 37  1  0  0  0  0
 39 38  2  0  0  0  0
 42 41  1  0  0  0  0
M  END
>  <minimizedAffinity>
-12.6304693

$$$$

 OpenBabel11232420463D

 42 47  0  0  1  0  0  0  0  0999 V2000
  -19.7440   28.7740   12.4570 C   0  0  0  0  0  0  0  0  0  0  0  0
  -19.1250   29.4570   11.4010 C   0  0  0  0  0  3  0  0  0  0  0  0
  -18.6400   28.7470   10.3000 C   0  0  0  0  0  3  0  0  0  0  0  0
  -18.7400   27.3580   10.2750 C   0  0  0  0  0  0  0  0  0  0  0  0
  -19.3400   26.6720   11.3380 C   0  0  0  0  0  0  0  0  0  0  0  0
  -19.8370   27.3780   12.4340 C   0  0  0  0  0  3  0  0  0  0  0  0
  -19.4350   25.2350   11.2310 C   0  0  0  0  0  0  0  0  0  0  0  0
  -20.0810   24.3710   11.9790 N   0  0  0  0  0  0  0  0  0  0  0  0
  -19.8490   23.1300   11.4120 C   0  0  0  0  0  0  0  0  0  0  0  0
  -19.0260   23.2490   10.2950 C   0  0  0  0  0  0  0  0  0  0  0  0
  -18.7890   24.6040   10.2100 N   0  0  0  0  0  0  0  0  0  0  0  0
  -17.9400   25.3250    9.2800 C   0  0  0  0  0  2  0  0  0  0  0  0
  -18.2840   26.7210    9.1490 O   0  0  0  0  0  0  0  0  0  0  0  0
  -18.5000   22.2920    9.3330 C   0  0  0  0  0  0  0  0  0  0  0  0
  -19.2740   21.8930    8.2360 C   0  0  0  0  0  3  0  0  0  0  0  0
  -18.7690   20.9740    7.3150 C   0  0  0  0  0  3  0  0  0  0  0  0
  -17.4880   20.4520    7.4840 C   0  0  0  0  0  3  0  0  0  0  0  0
  -16.7100   20.8450    8.5730 C   0  0  0  0  0  3  0  0  0  0  0  0
  -17.2140   21.7620    9.4970 C   0  0  0  0  0  3  0  0  0  0  0  0
  -20.4510   21.9290   11.9890 C   0  0  0  0  0  0  0  0  0  0  0  0
  -21.7600   21.8710   12.4660 C   0  0  0  0  0  3  0  0  0  0  0  0
  -22.2730   20.6880   13.0210 C   0  0  0  0  0  3  0  0  0  0  0  0
  -21.5150   19.5000   13.1030 C   0  0  0  0  0  0  0  0  0  0  0  0
  -20.2070   19.5750   12.5920 C   0  0  0  0  0  3  0  0  0  0  0  0
  -19.6860   20.7590   12.0550 C   0  0  0  0  0  3  0  0  0  0  0  0
  -22.1160   18.1720   13.7040 C   0  0  1  0  0  0  0  0  0  0  0  0
  -22.7600   17.1020   12.7700 C   0  0  0  0  0  2  0  0  0  0  0  0
  -22.2720   16.0310   13.7940 C   0  0  1  0  0  0  0  0  0  0  0  0
  -21.8500   14.7090   13.1810 C   0  0  0  0  0  1  0  0  0  0  0  0
  -21.1370   17.0380   14.1490 C   0  0  0  0  0  2  0  0  0  0  0  0
  -23.0570   18.5460   14.7930 N   0  0  0  0  0  4  0  0  0  0  0  0
  -22.5930   19.0510   15.5550 H   0  0  0  0  0  0  0  0  0  0  0  0
  -23.8220   19.1370   14.4470 H   0  0  0  0  0  0  0  0  0  0  0  0
  -23.4840   17.6890   15.1980 H   0  0  0  0  0  0  0  0  0  0  0  0
  -23.2060   15.8290   14.8890 O   0  0  0  0  0  0  0  0  0  0  0  0
  -23.0290   14.9270   15.2290 H   0  0  0  0  0  0  0  0  0  0  0  0
  -19.4100   30.2940   14.3800 N   0  0  0  0  0  0  0  0  0  0  0  0
  -20.2470   29.4910   13.6490 C   0  0  0  0  0  0  0  0  0  0  0  0
  -21.4270   29.3730   13.9650 O   0  0  0  0  0  0  0  0  0  0  0  0
  -19.8540   30.6710   15.2090 H   0  0  0  0  0  0  0  0  0  0  0  0
  -17.0480   29.7530   14.7560 C   0  0  0  0  0  1  0  0  0  0  0  0
  -18.0430   30.6870   14.0900 C   0  0  0  0  0  2  0  0  0  0  0  0
  1 38  1  0  0  0  0
  2  1  2  0  0  0  0
  3  2  1  0  0  0  0
  4  3  2  0  0  0  0
  4  5  1  0  0  0  0
  5  6  2  0  0  0  0
  6  1  1  0  0  0  0
  7  5  1  0  0  0  0
  7  8  2  0  0  0  0
  9  8  1  0  0  0  0
  9 20  1  0  0  0  0
 10  9  2  0  0  0  0
 11 10  1  0  0  0  0
 11  7  1  0  0  0  0
 12 11  1  0  0  0  0
 13 12  1  0  0  0  0
 13  4  1  0  0  0  0
 14 19  1  0  0  0  0
 14 10  1  0  0  0  0
 15 14  2  0  0  0  0
 16 17  2  0  0  0  0
 16 15  1  0  0  0  0
 17 18  1  0  0  0  0
 18 19  2  0  0  0  0
 20 25  2  0  0  0  0
 20 21  1  0  0  0  0
 21 22  2  0  0  0  0
 22 23  1  0  0  0  0
 23 26  1  0  0  0  0
 24 23  2  0  0  0  0
 25 24  1  0  0  0  0
 26 30  1  0  0  0  0
 26 31  1  1  0  0  0
 27 26  1  0  0  0  0
 27 28  1  0  0  0  0
 28 29  1  6  0  0  0
 28 30  1  0  0  0  0
 28 35  1  0  0  0  0
 31 34  1  0  0  0  0
 31 32  1  0  0  0  0
 33 31  1  0  0  0  0
 35 36  1  0  0  0  0
 37 40  1  0  0  0  0
 38 39  2  0  0  0  0
 38 37  1  0  0  0  0
 42 37  1  0  0  0  0
 42 41  1  0  0  0  0
M  END
>  <minimizedAffinity>
-11.4545784

$$$$

 OpenBabel11232420463D

 42 47  0  0  1  0  0  0  0  0999 V2000
  -13.8330   34.3240    9.6700 C   0  0  0  0  0  0  0  0  0  0  0  0
  -13.5100   35.3510   10.5670 C   0  0  0  0  0  3  0  0  0  0  0  0
  -14.0610   35.3560   11.8500 C   0  0  0  0  0  3  0  0  0  0  0  0
  -14.9590   34.3570   12.2210 C   0  0  0  0  0  0  0  0  0  0  0  0
  -15.2980   33.3410   11.3200 C   0  0  0  0  0  0  0  0  0  0  0  0
  -14.7420   33.3260   10.0410 C   0  0  0  0  0  3  0  0  0  0  0  0
  -16.2130   32.3240   11.7810 C   0  0  0  0  0  0  0  0  0  0  0  0
  -16.5680   31.1890   11.2250 N   0  0  0  0  0  0  0  0  0  0  0  0
  -17.4520   30.5940   12.1090 C   0  0  0  0  0  0  0  0  0  0  0  0
  -17.6450   31.4020   13.2260 C   0  0  0  0  0  0  0  0  0  0  0  0
  -16.8360   32.4900   12.9830 N   0  0  0  0  0  0  0  0  0  0  0  0
  -16.6720   33.7000   13.7680 C   0  0  0  0  0  2  0  0  0  0  0  0
  -15.4330   34.3930   13.5080 O   0  0  0  0  0  0  0  0  0  0  0  0
  -18.4300   31.2580   14.4440 C   0  0  0  0  0  0  0  0  0  0  0  0
  -17.8710   30.6560   15.5780 C   0  0  0  0  0  3  0  0  0  0  0  0
  -18.6260   30.5160   16.7440 C   0  0  0  0  0  3  0  0  0  0  0  0
  -19.9410   30.9780   16.7820 C   0  0  0  0  0  3  0  0  0  0  0  0
  -20.5040   31.5780   15.6570 C   0  0  0  0  0  3  0  0  0  0  0  0
  -19.7520   31.7170   14.4890 C   0  0  0  0  0  3  0  0  0  0  0  0
  -18.0310   29.2860   11.8080 C   0  0  0  0  0  0  0  0  0  0  0  0
  -17.2730   28.1460   11.5390 C   0  0  0  0  0  3  0  0  0  0  0  0
  -17.8920   26.9220   11.2430 C   0  0  0  0  0  3  0  0  0  0  0  0
  -19.2940   26.7670   11.2280 C   0  0  0  0  0  0  0  0  0  0  0  0
  -20.0380   27.9230   11.5280 C   0  0  0  0  0  3  0  0  0  0  0  0
  -19.4240   29.1510   11.8050 C   0  0  0  0  0  3  0  0  0  0  0  0
  -19.9740   25.3780   10.9210 C   0  0  1  0  0  0  0  0  0  0  0  0
  -19.2480   24.3230   10.0310 C   0  0  0  0  0  2  0  0  0  0  0  0
  -19.9650   23.2300   10.8820 C   0  0  1  0  0  0  0  0  0  0  0  0
  -19.1560   21.9680   11.1110 C   0  0  0  0  0  1  0  0  0  0  0  0
  -19.9750   24.2790   12.0330 C   0  0  0  0  0  2  0  0  0  0  0  0
  -21.3430   25.6410   10.4060 N   0  0  0  0  0  4  0  0  0  0  0  0
  -21.9310   26.1310   11.0870 H   0  0  0  0  0  0  0  0  0  0  0  0
  -21.3230   26.2040    9.5470 H   0  0  0  0  0  0  0  0  0  0  0  0
  -21.8100   24.7410   10.1760 H   0  0  0  0  0  0  0  0  0  0  0  0
  -21.2980   22.9190   10.3950 O   0  0  0  0  0  0  0  0  0  0  0  0
  -21.4940   22.0120   10.7110 H   0  0  0  0  0  0  0  0  0  0  0  0
  -12.2050   33.5150    7.9930 N   0  0  0  0  0  0  0  0  0  0  0  0
  -13.2880   34.3000    8.2950 C   0  0  0  0  0  0  0  0  0  0  0  0
  -13.8260   34.9780    7.4250 O   0  0  0  0  0  0  0  0  0  0  0  0
  -11.8850   33.6410    7.0400 H   0  0  0  0  0  0  0  0  0  0  0  0
  -11.8580   31.1200    8.3820 C   0  0  0  0  0  1  0  0  0  0  0  0
  -11.5300   32.5360    8.8240 C   0  0  0  0  0  2  0  0  0  0  0  0
  1  6  2  0  0  0  0
  1  2  1  0  0  0  0
  2  3  2  0  0  0  0
  3  4  1  0  0  0  0
  4 13  1  0  0  0  0
  5  7  1  0  0  0  0
  5  4  2  0  0  0  0
  6  5  1  0  0  0  0
  7 11  1  0  0  0  0
  8  7  2  0  0  0  0
  8  9  1  0  0  0  0
  9 10  2  0  0  0  0
 10 14  1  0  0  0  0
 11 10  1  0  0  0  0
 11 12  1  0  0  0  0
 13 12  1  0  0  0  0
 14 19  2  0  0  0  0
 14 15  1  0  0  0  0
 15 16  2  0  0  0  0
 16 17  1  0  0  0  0
 18 17  2  0  0  0  0
 19 18  1  0  0  0  0
 20  9  1  0  0  0  0
 21 20  2  0  0  0  0
 22 21  1  0  0  0  0
 23 22  2  0  0  0  0
 23 24  1  0  0  0  0
 24 25  2  0  0  0  0
 25 20  1  0  0  0  0
 26 31  1  6  0  0  0
 26 23  1  0  0  0  0
 26 30  1  0  0  0  0
 27 28  1  0  0  0  0
 27 26  1  0  0  0  0
 28 29  1  1  0  0  0
 28 30  1  0  0  0  0
 31 32  1  0  0  0  0
 33 31  1  0  0  0  0
 34 31  1  0  0  0  0
 35 36  1  0  0  0  0
 35 28  1  0  0  0  0
 37 38  1  0  0  0  0
 37 42  1  0  0  0  0
 38  1  1  0  0  0  0
 39 38  2  0  0  0  0
 40 37  1  0  0  0  0
 41 42  1  0  0  0  0
M  END
>  <minimizedAffinity>
-10.0256176

$$$$

 OpenBabel11232420463D

 42 47  0  0  1  0  0  0  0  0999 V2000
  -13.4240   33.3920   10.2120 C   0  0  0  0  0  0  0  0  0  0  0  0
  -13.3260   34.5260   11.0300 C   0  0  0  0  0  3  0  0  0  0  0  0
  -14.1550   34.6540   12.1470 C   0  0  0  0  0  3  0  0  0  0  0  0
  -15.1020   33.6690   12.4220 C   0  0  0  0  0  0  0  0  0  0  0  0
  -15.2140   32.5460   11.5950 C   0  0  0  0  0  0  0  0  0  0  0  0
  -14.3810   32.4080   10.4840 C   0  0  0  0  0  3  0  0  0  0  0  0
  -16.1970   31.5520   11.9560 C   0  0  0  0  0  0  0  0  0  0  0  0
  -16.4020   30.3480   11.4730 N   0  0  0  0  0  0  0  0  0  0  0  0
  -17.4570   29.8230   12.1990 C   0  0  0  0  0  0  0  0  0  0  0  0
  -17.9100   30.7440   13.1410 C   0  0  0  0  0  0  0  0  0  0  0  0
  -17.0800   31.8280   12.9580 N   0  0  0  0  0  0  0  0  0  0  0  0
  -17.1140   33.1240   13.6110 C   0  0  0  0  0  2  0  0  0  0  0  0
  -15.8570   33.8310   13.5560 O   0  0  0  0  0  0  0  0  0  0  0  0
  -18.9500   30.7060   14.1590 C   0  0  0  0  0  0  0  0  0  0  0  0
  -20.2840   30.9600   13.8160 C   0  0  0  0  0  3  0  0  0  0  0  0
  -21.2800   30.9260   14.7940 C   0  0  0  0  0  3  0  0  0  0  0  0
  -20.9470   30.6380   16.1160 C   0  0  0  0  0  3  0  0  0  0  0  0
  -19.6210   30.3840   16.4650 C   0  0  0  0  0  3  0  0  0  0  0  0
  -18.6230   30.4190   15.4900 C   0  0  0  0  0  3  0  0  0  0  0  0
  -17.9350   28.4670   11.9340 C   0  0  0  0  0  0  0  0  0  0  0  0
  -19.2590   28.0640   12.1080 C   0  0  0  0  0  3  0  0  0  0  0  0
  -19.6500   26.7410   11.8470 C   0  0  0  0  0  3  0  0  0  0  0  0
  -18.7470   25.7650   11.3750 C   0  0  0  0  0  0  0  0  0  0  0  0
  -17.4240   26.2000   11.1820 C   0  0  0  0  0  3  0  0  0  0  0  0
  -17.0260   27.5140   11.4590 C   0  0  0  0  0  3  0  0  0  0  0  0
  -19.2090   24.2900   11.0610 C   0  0  1  0  0  0  0  0  0  0  0  0
  -19.8660   23.9430    9.6900 C   0  0  0  0  0  2  0  0  0  0  0  0
  -19.2240   22.5290    9.8310 C   0  0  1  0  0  0  0  0  0  0  0  0
  -18.7780   21.8980    8.5260 C   0  0  0  0  0  1  0  0  0  0  0  0
  -18.1260   23.2260   10.6890 C   0  0  0  0  0  2  0  0  0  0  0  0
  -20.0710   23.8300   12.1820 N   0  0  0  0  0  4  0  0  0  0  0  0
  -19.5730   23.8170   13.0780 H   0  0  0  0  0  0  0  0  0  0  0  0
  -20.8990   24.4280   12.2930 H   0  0  0  0  0  0  0  0  0  0  0  0
  -20.4070   22.8650   11.9940 H   0  0  0  0  0  0  0  0  0  0  0  0
  -20.0430   21.6110   10.6060 O   0  0  0  0  0  0  0  0  0  0  0  0
  -19.7810   20.7110   10.3190 H   0  0  0  0  0  0  0  0  0  0  0  0
  -12.8080   34.0050    7.8960 N   0  0  0  0  0  0  0  0  0  0  0  0
  -12.5800   33.2350    9.0080 C   0  0  0  0  0  0  0  0  0  0  0  0
  -11.6610   32.4210    9.0210 O   0  0  0  0  0  0  0  0  0  0  0  0
  -12.2110   33.7540    7.1170 H   0  0  0  0  0  0  0  0  0  0  0  0
  -13.0380   36.4430    8.0060 C   0  0  0  0  0  1  0  0  0  0  0  0
  -13.7250   35.1170    7.7320 C   0  0  0  0  0  2  0  0  0  0  0  0
  1  6  2  0  0  0  0
  1  2  1  0  0  0  0
  2  3  2  0  0  0  0
  3  4  1  0  0  0  0
  4 13  1  0  0  0  0
  5  7  1  0  0  0  0
  5  4  2  0  0  0  0
  6  5  1  0  0  0  0
  7 11  1  0  0  0  0
  8  7  2  0  0  0  0
  8  9  1  0  0  0  0
  9 10  2  0  0  0  0
 10 14  1  0  0  0  0
 11 10  1  0  0  0  0
 11 12  1  0  0  0  0
 13 12  1  0  0  0  0
 14 19  1  0  0  0  0
 15 14  2  0  0  0  0
 15 16  1  0  0  0  0
 16 17  2  0  0  0  0
 17 18  1  0  0  0  0
 19 18  2  0  0  0  0
 20 21  1  0  0  0  0
 20  9  1  0  0  0  0
 22 21  2  0  0  0  0
 23 22  1  0  0  0  0
 24 23  2  0  0  0  0
 24 25  1  0  0  0  0
 25 20  2  0  0  0  0
 26 23  1  0  0  0  0
 26 31  1  1  0  0  0
 27 28  1  0  0  0  0
 27 26  1  0  0  0  0
 28 29  1  6  0  0  0
 28 35  1  0  0  0  0
 28 30  1  0  0  0  0
 30 26  1  0  0  0  0
 31 33  1  0  0  0  0
 31 32  1  0  0  0  0
 34 31  1  0  0  0  0
 36 35  1  0  0  0  0
 37 38  1  0  0  0  0
 38 39  2  0  0  0  0
 38  1  1  0  0  0  0
 40 37  1  0  0  0  0
 42 37  1  0  0  0  0
 42 41  1  0  0  0  0
M  END
>  <minimizedAffinity>
-9.75659466

$$$$
