
 OpenBabel11232420463D

 42 47  0  0  1  0  0  0  0  0999 V2000
  -21.7420   16.9690   14.7820 C   0  0  0  0  0  0  0  0  0  0  0  0
  -21.4720   15.6600   14.3600 C   0  0  0  0  0  3  0  0  0  0  0  0
  -20.7470   15.4410   13.1870 C   0  0  0  0  0  3  0  0  0  0  0  0
  -20.3270   16.5270   12.4210 C   0  0  0  0  0  0  0  0  0  0  0  0
  -20.6130   17.8340   12.8300 C   0  0  0  0  0  0  0  0  0  0  0  0
  -21.3260   18.0580   14.0080 C   0  0  0  0  0  3  0  0  0  0  0  0
  -20.1220   18.9110   12.0030 C   0  0  0  0  0  0  0  0  0  0  0  0
  -20.0960   20.2050   12.2240 N   0  0  0  0  0  0  0  0  0  0  0  0
  -19.4970   20.7680   11.1100 C   0  0  0  0  0  0  0  0  0  0  0  0
  -19.1640   19.7830   10.1840 C   0  0  0  0  0  0  0  0  0  0  0  0
  -19.5720   18.6160   10.7900 N   0  0  0  0  0  0  0  0  0  0  0  0
  -19.5470   17.2600   10.2720 C   0  0  0  0  0  2  0  0  0  0  0  0
  -19.5840   16.2480   11.3020 O   0  0  0  0  0  0  0  0  0  0  0  0
  -18.5090   19.8110    8.8840 C   0  0  0  0  0  0  0  0  0  0  0  0
  -17.6110   18.7990    8.5230 C   0  0  0  0  0  3  0  0  0  0  0  0
  -16.9820   18.8280    7.2770 C   0  0  0  0  0  3  0  0  0  0  0  0
  -17.2480   19.8670    6.3870 C   0  0  0  0  0  3  0  0  0  0  0  0
  -18.1410   20.8790    6.7390 C   0  0  0  0  0  3  0  0  0  0  0  0
  -18.7700   20.8520    7.9850 C   0  0  0  0  0  3  0  0  0  0  0  0
  -19.2830   22.2120   11.0360 C   0  0  0  0  0  0  0  0  0  0  0  0
  -18.0800   22.8360   11.3660 C   0  0  0  0  0  3  0  0  0  0  0  0
  -17.9460   24.2310   11.2860 C   0  0  0  0  0  3  0  0  0  0  0  0
  -18.9930   25.0680   10.8470 C   0  0  0  0  0  0  0  0  0  0  0  0
  -20.1890   24.4140   10.4940 C   0  0  0  0  0  3  0  0  0  0  0  0
  -20.3320   23.0250   10.5910 C   0  0  0  0  0  3  0  0  0  0  0  0
  -18.8170   26.6310   10.7360 C   0  0  1  0  0  0  0  0  0  0  0  0
  -20.0010   27.5860   11.0750 C   0  0  0  0  0  2  0  0  0  0  0  0
  -18.9300   28.6150   11.5510 C   0  0  1  0  0  0  0  0  0  0  0  0
  -19.3490   29.4720   12.7300 C   0  0  0  0  0  1  0  0  0  0  0  0
  -18.0310   27.3810   11.8600 C   0  0  0  0  0  2  0  0  0  0  0  0
  -18.2720   26.9360    9.3860 N   0  0  0  0  0  4  0  0  0  0  0  0
  -17.3550   26.5070    9.2270 H   0  0  0  0  0  0  0  0  0  0  0  0
  -18.9010   26.6130    8.6420 H   0  0  0  0  0  0  0  0  0  0  0  0
  -18.1620   27.9640    9.2760 H   0  0  0  0  0  0  0  0  0  0  0  0
  -18.4090   29.4310   10.4660 O   0  0  0  0  0  0  0  0  0  0  0  0
  -18.0770   30.2530   10.8850 H   0  0  0  0  0  0  0  0  0  0  0  0
  -21.9420   17.1310   17.2420 N   0  0  0  0  0  0  0  0  0  0  0  0
  -22.5270   17.2370   16.0070 C   0  0  0  0  0  0  0  0  0  0  0  0
  -23.7030   17.5730   15.9030 O   0  0  0  0  0  0  0  0  0  0  0  0
  -22.6000   17.2700   18.0000 H   0  0  0  0  0  0  0  0  0  0  0  0
  -20.2990   15.4540   17.9460 C   0  0  0  0  0  1  0  0  0  0  0  0
  -20.5480   16.9050   17.5730 C   0  0  0  0  0  2  0  0  0  0  0  0
  1 38  1  0  0  0  0
  2  1  1  0  0  0  0
  3  2  2  0  0  0  0
  4  5  2  0  0  0  0
  4  3  1  0  0  0  0
  5  6  1  0  0  0  0
  6  1  2  0  0  0  0
  7  8  2  0  0  0  0
  7  5  1  0  0  0  0
  9  8  1  0  0  0  0
 10 11  1  0  0  0  0
 10  9  2  0  0  0  0
 11  7  1  0  0  0  0
 12 11  1  0  0  0  0
 12 13  1  0  0  0  0
 13  4  1  0  0  0  0
 14 10  1  0  0  0  0
 15 14  1  0  0  0  0
 16 15  2  0  0  0  0
 17 18  2  0  0  0  0
 17 16  1  0  0  0  0
 18 19  1  0  0  0  0
 19 14  2  0  0  0  0
 20  9  1  0  0  0  0
 20 21  1  0  0  0  0
 22 21  2  0  0  0  0
 23 22  1  0  0  0  0
 24 25  1  0  0  0  0
 24 23  2  0  0  0  0
 25 20  2  0  0  0  0
 26 31  1  6  0  0  0
 26 23  1  0  0  0  0
 26 27  1  0  0  0  0
 26 30  1  0  0  0  0
 27 28  1  0  0  0  0
 28 30  1  0  0  0  0
 28 29  1  1  0  0  0
 32 31  1  0  0  0  0
 33 31  1  0  0  0  0
 34 31  1  0  0  0  0
 35 36  1  0  0  0  0
 35 28  1  0  0  0  0
 37 42  1  0  0  0  0
 37 40  1  0  0  0  0
 38 37  1  0  0  0  0
 39 38  2  0  0  0  0
 42 41  1  0  0  0  0
M  END
>  <minimizedAffinity>
-12.6304693

$$$$
