
 OpenBabel11232420073D

 39 45  0  0  1  0  0  0  0  0999 V2000
   -3.7290   -7.4160   13.8120 C   0  0  0  0  0  0  0  0  0  0  0  0
   -2.4210   -7.8490   13.8840 N   0  0  0  0  0  0  0  0  0  0  0  0
   -1.8580   -7.1400   14.8350 C   0  0  0  0  0  0  0  0  0  0  0  0
   -2.7620   -6.2790   15.3910 N   0  0  0  0  0  0  0  0  0  0  0  0
   -3.9810   -6.4390   14.7700 C   0  0  0  0  0  0  0  0  0  0  0  0
   -2.4260   -5.4870   16.5580 C   0  0  0  0  0  2  0  0  0  0  0  0
   -1.0250   -5.1520   16.6240 O   0  0  0  0  0  0  0  0  0  0  0  0
   -0.1450   -6.1290   16.2280 C   0  0  0  0  0  0  0  0  0  0  0  0
    1.1620   -6.0310   16.7070 C   0  0  0  0  0  3  0  0  0  0  0  0
    2.1180   -6.9730   16.3170 C   0  0  0  0  0  3  0  0  0  0  0  0
    1.7640   -7.9990   15.4410 C   0  0  0  0  0  3  0  0  0  0  0  0
    0.4620   -8.0800   14.9510 C   0  0  0  0  0  0  0  0  0  0  0  0
    0.1620   -9.0770   14.1050 F   0  0  0  0  0  0  0  0  0  0  0  0
   -0.5000   -7.1470   15.3330 C   0  0  0  0  0  0  0  0  0  0  0  0
   -5.1930   -5.7420   15.1750 C   0  0  0  0  0  0  0  0  0  0  0  0
   -6.0210   -6.2770   16.1690 C   0  0  0  0  0  3  0  0  0  0  0  0
   -7.1870   -5.6100   16.5470 C   0  0  0  0  0  3  0  0  0  0  0  0
   -7.5320   -4.4070   15.9330 C   0  0  0  0  0  3  0  0  0  0  0  0
   -6.7110   -3.8660   14.9440 C   0  0  0  0  0  3  0  0  0  0  0  0
   -5.5420   -4.5310   14.5670 C   0  0  0  0  0  3  0  0  0  0  0  0
   -6.3970   -9.2840   10.9740 C   0  0  0  0  0  0  0  0  0  0  0  0
   -6.2980   -9.7050   12.3150 C   0  0  0  0  0  3  0  0  0  0  0  0
   -5.4410   -9.0790   13.2270 C   0  0  0  0  0  3  0  0  0  0  0  0
   -4.6500   -7.9920   12.8440 C   0  0  0  0  0  0  0  0  0  0  0  0
   -4.7340   -7.5500   11.5240 C   0  0  0  0  0  3  0  0  0  0  0  0
   -5.5930   -8.1810   10.6130 C   0  0  0  0  0  3  0  0  0  0  0  0
   -7.3510   -9.9970    9.9430 C   0  0  2  0  0  0  0  0  0  0  0  0
   -8.0580   -9.1570    8.8410 C   0  0  0  0  0  2  0  0  0  0  0  0
   -9.2460  -10.1800    8.9130 C   0  0  1  0  0  0  0  0  0  0  0  0
   -8.7830  -10.4170   10.3940 C   0  0  0  0  0  2  0  0  0  0  0  0
   -6.6060  -11.1370    9.3500 N   0  0  0  0  0  4  0  0  0  0  0  0
   -6.3250  -11.8260   10.0560 H   0  0  0  0  0  0  0  0  0  0  0  0
   -5.7590  -10.8250    8.8620 H   0  0  0  0  0  0  0  0  0  0  0  0
   -7.2060  -11.6220    8.6550 H   0  0  0  0  0  0  0  0  0  0  0  0
  -10.6230   -9.6060    8.6430 C   0  0  0  0  0  3  0  0  0  0  0  0
  -11.0030   -8.9590    7.3380 C   0  0  0  0  0  2  0  0  0  0  0  0
  -11.6860  -10.2240    7.7800 C   0  0  0  0  0  2  0  0  0  0  0  0
   -8.9770  -11.3640    8.1020 O   0  0  0  0  0  0  0  0  0  0  0  0
   -9.8640  -11.7350    7.9060 H   0  0  0  0  0  0  0  0  0  0  0  0
  1  2  1  0  0  0  0
  1  5  2  0  0  0  0
  2  3  2  0  0  0  0
  3 14  1  0  0  0  0
  3  4  1  0  0  0  0
  4  6  1  0  0  0  0
  5 15  1  0  0  0  0
  5  4  1  0  0  0  0
  6  7  1  0  0  0  0
  8  7  1  0  0  0  0
  8  9  1  0  0  0  0
 10  9  2  0  0  0  0
 11 10  1  0  0  0  0
 12 14  1  0  0  0  0
 12 11  2  0  0  0  0
 13 12  1  0  0  0  0
 14  8  2  0  0  0  0
 15 16  1  0  0  0  0
 16 17  2  0  0  0  0
 18 17  1  0  0  0  0
 19 18  2  0  0  0  0
 20 19  1  0  0  0  0
 20 15  2  0  0  0  0
 21 22  1  0  0  0  0
 22 23  2  0  0  0  0
 24 23  1  0  0  0  0
 24  1  1  0  0  0  0
 25 24  2  0  0  0  0
 26 21  2  0  0  0  0
 26 25  1  0  0  0  0
 27 31  1  6  0  0  0
 27 30  1  0  0  0  0
 27 21  1  0  0  0  0
 28 29  1  0  0  0  0
 28 27  1  0  0  0  0
 29 38  1  6  0  0  0
 29 30  1  0  0  0  0
 31 32  1  0  0  0  0
 33 31  1  0  0  0  0
 34 31  1  0  0  0  0
 35 29  1  0  0  0  0
 36 37  1  0  0  0  0
 36 35  1  0  0  0  0
 37 35  1  0  0  0  0
 39 38  1  0  0  0  0
M  END
>  <minimizedAffinity>
-5.28732872

$$$$
