
 OpenBabel11232420073D

 39 45  0  0  1  0  0  0  0  0999 V2000
   -5.2320   -8.9280   12.3150 C   0  0  0  0  0  0  0  0  0  0  0  0
   -4.5340   -9.5680   13.3190 N   0  0  0  0  0  0  0  0  0  0  0  0
   -3.5040   -8.8000   13.5880 C   0  0  0  0  0  0  0  0  0  0  0  0
   -3.5240   -7.6780   12.8070 N   0  0  0  0  0  0  0  0  0  0  0  0
   -4.6290   -7.7180   11.9860 C   0  0  0  0  0  0  0  0  0  0  0  0
   -2.5740   -6.6020   13.0110 C   0  0  0  0  0  2  0  0  0  0  0  0
   -1.3060   -7.0630   13.5230 O   0  0  0  0  0  0  0  0  0  0  0  0
   -1.3550   -8.0720   14.4540 C   0  0  0  0  0  0  0  0  0  0  0  0
   -0.2460   -8.2100   15.2910 C   0  0  0  0  0  3  0  0  0  0  0  0
   -0.2150   -9.2360   16.2380 C   0  0  0  0  0  3  0  0  0  0  0  0
   -1.2850  -10.1260   16.3350 C   0  0  0  0  0  3  0  0  0  0  0  0
   -2.3800   -9.9940   15.4830 C   0  0  0  0  0  0  0  0  0  0  0  0
   -3.3870  -10.8730   15.6020 F   0  0  0  0  0  0  0  0  0  0  0  0
   -2.4230   -8.9740   14.5340 C   0  0  0  0  0  0  0  0  0  0  0  0
   -5.0080   -6.6380   11.0870 C   0  0  0  0  0  0  0  0  0  0  0  0
   -5.3830   -5.3890   11.5970 C   0  0  0  0  0  3  0  0  0  0  0  0
   -5.7560   -4.3600   10.7310 C   0  0  0  0  0  3  0  0  0  0  0  0
   -5.7560   -4.5740    9.3540 C   0  0  0  0  0  3  0  0  0  0  0  0
   -5.3820   -5.8140    8.8380 C   0  0  0  0  0  3  0  0  0  0  0  0
   -5.0060   -6.8440    9.7030 C   0  0  0  0  0  3  0  0  0  0  0  0
   -8.8020  -10.5810   10.5310 C   0  0  0  0  0  0  0  0  0  0  0  0
   -7.5470  -10.6160    9.8920 C   0  0  0  0  0  3  0  0  0  0  0  0
   -6.3950  -10.0900   10.4900 C   0  0  0  0  0  3  0  0  0  0  0  0
   -6.4430   -9.5160   11.7630 C   0  0  0  0  0  0  0  0  0  0  0  0
   -7.6720   -9.4760   12.4220 C   0  0  0  0  0  3  0  0  0  0  0  0
   -8.8230  -10.0020   11.8180 C   0  0  0  0  0  3  0  0  0  0  0  0
  -10.1010  -11.1590    9.8520 C   0  0  2  0  0  0  0  0  0  0  0  0
  -11.4510  -11.1250   10.6230 C   0  0  0  0  0  2  0  0  0  0  0  0
  -11.8460  -12.4400    9.8620 C   0  0  1  0  0  0  0  0  0  0  0  0
  -10.3000  -12.7040    9.7800 C   0  0  0  0  0  2  0  0  0  0  0  0
  -10.2330  -10.5250    8.5160 N   0  0  0  0  0  4  0  0  0  0  0  0
   -9.4340  -10.7340    7.9070 H   0  0  0  0  0  0  0  0  0  0  0  0
  -10.3170   -9.5050    8.5840 H   0  0  0  0  0  0  0  0  0  0  0  0
  -11.0900  -10.8790    8.0450 H   0  0  0  0  0  0  0  0  0  0  0  0
  -12.7290  -13.4030   10.6300 C   0  0  0  0  0  3  0  0  0  0  0  0
  -14.1530  -13.0900   11.0080 C   0  0  0  0  0  2  0  0  0  0  0  0
  -13.8550  -14.2190   10.0590 C   0  0  0  0  0  2  0  0  0  0  0  0
  -12.3800  -12.1450    8.5350 O   0  0  0  0  0  0  0  0  0  0  0  0
  -12.9230  -12.9300    8.3080 H   0  0  0  0  0  0  0  0  0  0  0  0
  1  2  1  0  0  0  0
  2  3  2  0  0  0  0
  3 14  1  0  0  0  0
  4  6  1  0  0  0  0
  4  3  1  0  0  0  0
  5  1  2  0  0  0  0
  5  4  1  0  0  0  0
  6  7  1  0  0  0  0
  7  8  1  0  0  0  0
  8 14  2  0  0  0  0
  8  9  1  0  0  0  0
  9 10  2  0  0  0  0
 10 11  1  0  0  0  0
 12 13  1  0  0  0  0
 12 11  2  0  0  0  0
 14 12  1  0  0  0  0
 15 16  1  0  0  0  0
 15  5  1  0  0  0  0
 17 16  2  0  0  0  0
 18 17  1  0  0  0  0
 19 18  2  0  0  0  0
 19 20  1  0  0  0  0
 20 15  2  0  0  0  0
 21 26  1  0  0  0  0
 22 23  1  0  0  0  0
 22 21  2  0  0  0  0
 23 24  2  0  0  0  0
 24  1  1  0  0  0  0
 24 25  1  0  0  0  0
 26 25  2  0  0  0  0
 27 31  1  6  0  0  0
 27 21  1  0  0  0  0
 27 28  1  0  0  0  0
 29 38  1  6  0  0  0
 29 28  1  0  0  0  0
 29 35  1  0  0  0  0
 30 27  1  0  0  0  0
 30 29  1  0  0  0  0
 31 33  1  0  0  0  0
 32 31  1  0  0  0  0
 34 31  1  0  0  0  0
 35 36  1  0  0  0  0
 37 35  1  0  0  0  0
 37 36  1  0  0  0  0
 39 38  1  0  0  0  0
M  END
>  <minimizedAffinity>
-5.37786102

$$$$
