
 OpenBabel11232420073D

 39 45  0  0  1  0  0  0  0  0999 V2000
   -6.5520  -10.2910    9.9730 C   0  0  0  0  0  0  0  0  0  0  0  0
   -6.2880   -9.0670    9.3920 N   0  0  0  0  0  0  0  0  0  0  0  0
   -6.3010   -8.1930   10.3710 C   0  0  0  0  0  0  0  0  0  0  0  0
   -6.5450   -8.8120   11.5650 N   0  0  0  0  0  0  0  0  0  0  0  0
   -6.6970  -10.1650   11.3500 C   0  0  0  0  0  0  0  0  0  0  0  0
   -6.4700   -8.0870   12.8180 C   0  0  0  0  0  2  0  0  0  0  0  0
   -6.8160   -6.6930   12.6810 O   0  0  0  0  0  0  0  0  0  0  0  0
   -6.3790   -6.0650   11.5400 C   0  0  0  0  0  0  0  0  0  0  0  0
   -6.2760   -4.6740   11.5870 C   0  0  0  0  0  3  0  0  0  0  0  0
   -5.8710   -3.9700   10.4510 C   0  0  0  0  0  3  0  0  0  0  0  0
   -5.5820   -4.6570    9.2720 C   0  0  0  0  0  3  0  0  0  0  0  0
   -5.7060   -6.0450    9.2270 C   0  0  0  0  0  0  0  0  0  0  0  0
   -5.4260   -6.6700    8.0730 F   0  0  0  0  0  0  0  0  0  0  0  0
   -6.1100   -6.7600   10.3530 C   0  0  0  0  0  0  0  0  0  0  0  0
   -6.8800  -11.1370   12.4180 C   0  0  0  0  0  0  0  0  0  0  0  0
   -5.7730  -11.7630   13.0050 C   0  0  0  0  0  3  0  0  0  0  0  0
   -5.9540  -12.7020   14.0210 C   0  0  0  0  0  3  0  0  0  0  0  0
   -7.2400  -13.0210   14.4540 C   0  0  0  0  0  3  0  0  0  0  0  0
   -8.3470  -12.4000   13.8770 C   0  0  0  0  0  3  0  0  0  0  0  0
   -8.1670  -11.4580   12.8620 C   0  0  0  0  0  3  0  0  0  0  0  0
   -6.7140  -13.7780    7.4290 C   0  0  0  0  0  0  0  0  0  0  0  0
   -5.5940  -12.9240    7.4770 C   0  0  0  0  0  3  0  0  0  0  0  0
   -5.5500  -11.8070    8.3190 C   0  0  0  0  0  3  0  0  0  0  0  0
   -6.6210  -11.4980    9.1630 C   0  0  0  0  0  0  0  0  0  0  0  0
   -7.7380  -12.3320    9.1410 C   0  0  0  0  0  3  0  0  0  0  0  0
   -7.7780  -13.4490    8.2940 C   0  0  0  0  0  3  0  0  0  0  0  0
   -6.7680  -15.0280    6.4710 C   0  0  2  0  0  0  0  0  0  0  0  0
   -8.0820  -15.3480    5.7010 C   0  0  0  0  0  2  0  0  0  0  0  0
   -7.6870  -16.8650    5.7870 C   0  0  1  0  0  0  0  0  0  0  0  0
   -6.9030  -16.4540    7.0850 C   0  0  0  0  0  2  0  0  0  0  0  0
   -5.6140  -14.9370    5.5410 N   0  0  0  0  0  4  0  0  0  0  0  0
   -4.7160  -14.9530    6.0370 H   0  0  0  0  0  0  0  0  0  0  0  0
   -5.6450  -14.0810    4.9770 H   0  0  0  0  0  0  0  0  0  0  0  0
   -5.6280  -15.7430    4.8860 H   0  0  0  0  0  0  0  0  0  0  0  0
   -8.8440  -17.8390    5.8900 C   0  0  0  0  0  3  0  0  0  0  0  0
   -9.8560  -17.8000    7.0040 C   0  0  0  0  0  2  0  0  0  0  0  0
  -10.2840  -17.5370    5.5860 C   0  0  0  0  0  2  0  0  0  0  0  0
   -6.7530  -17.2330    4.7270 O   0  0  0  0  0  0  0  0  0  0  0  0
   -6.8620  -18.2020    4.6270 H   0  0  0  0  0  0  0  0  0  0  0  0
  1  5  2  0  0  0  0
  2  1  1  0  0  0  0
  2  3  2  0  0  0  0
  3  4  1  0  0  0  0
  4  6  1  0  0  0  0
  5  4  1  0  0  0  0
  5 15  1  0  0  0  0
  7  6  1  0  0  0  0
  8  9  1  0  0  0  0
  8  7  1  0  0  0  0
 10  9  2  0  0  0  0
 11 10  1  0  0  0  0
 12 11  2  0  0  0  0
 12 14  1  0  0  0  0
 13 12  1  0  0  0  0
 14  3  1  0  0  0  0
 14  8  2  0  0  0  0
 15 20  2  0  0  0  0
 15 16  1  0  0  0  0
 16 17  2  0  0  0  0
 17 18  1  0  0  0  0
 19 18  2  0  0  0  0
 20 19  1  0  0  0  0
 21 22  2  0  0  0  0
 21 26  1  0  0  0  0
 22 23  1  0  0  0  0
 23 24  2  0  0  0  0
 24  1  1  0  0  0  0
 25 24  1  0  0  0  0
 26 25  2  0  0  0  0
 27 31  1  6  0  0  0
 27 30  1  0  0  0  0
 27 21  1  0  0  0  0
 28 29  1  0  0  0  0
 28 27  1  0  0  0  0
 29 38  1  6  0  0  0
 29 35  1  0  0  0  0
 29 30  1  0  0  0  0
 31 32  1  0  0  0  0
 33 31  1  0  0  0  0
 34 31  1  0  0  0  0
 35 36  1  0  0  0  0
 37 35  1  0  0  0  0
 37 36  1  0  0  0  0
 39 38  1  0  0  0  0
M  END
>  <minimizedAffinity>
-5.51088715

$$$$
