
 OpenBabel11232420073D

 39 45  0  0  1  0  0  0  0  0999 V2000
   -7.0150  -11.4020    9.6560 C   0  0  0  0  0  0  0  0  0  0  0  0
   -6.3950  -11.9000    8.5280 N   0  0  0  0  0  0  0  0  0  0  0  0
   -7.1220  -12.9220    8.1380 C   0  0  0  0  0  0  0  0  0  0  0  0
   -8.1990  -13.0870    8.9630 N   0  0  0  0  0  0  0  0  0  0  0  0
   -8.1720  -12.1180    9.9420 C   0  0  0  0  0  0  0  0  0  0  0  0
   -9.2340  -14.0580    8.6640 C   0  0  0  0  0  2  0  0  0  0  0  0
   -8.7360  -15.2030    7.9420 O   0  0  0  0  0  0  0  0  0  0  0  0
   -7.7830  -14.9540    6.9850 C   0  0  0  0  0  0  0  0  0  0  0  0
   -7.6330  -15.9120    5.9810 C   0  0  0  0  0  3  0  0  0  0  0  0
   -6.6600  -15.7380    4.9950 C   0  0  0  0  0  3  0  0  0  0  0  0
   -5.8330  -14.6150    5.0240 C   0  0  0  0  0  3  0  0  0  0  0  0
   -5.9760  -13.6720    6.0410 C   0  0  0  0  0  0  0  0  0  0  0  0
   -5.1580  -12.6080    6.0380 F   0  0  0  0  0  0  0  0  0  0  0  0
   -6.9430  -13.8340    7.0300 C   0  0  0  0  0  0  0  0  0  0  0  0
   -9.2210  -11.9450   10.9380 C   0  0  0  0  0  0  0  0  0  0  0  0
  -10.2760  -11.0540   10.7100 C   0  0  0  0  0  3  0  0  0  0  0  0
  -11.2720  -10.8840   11.6720 C   0  0  0  0  0  3  0  0  0  0  0  0
  -11.2200  -11.6020   12.8650 C   0  0  0  0  0  3  0  0  0  0  0  0
  -10.1730  -12.4940   13.0980 C   0  0  0  0  0  3  0  0  0  0  0  0
   -9.1770  -12.6670   12.1350 C   0  0  0  0  0  3  0  0  0  0  0  0
   -5.2440   -7.9950   11.6350 C   0  0  0  0  0  0  0  0  0  0  0  0
   -5.5310   -8.0080   10.2550 C   0  0  0  0  0  3  0  0  0  0  0  0
   -6.1210   -9.1140    9.6310 C   0  0  0  0  0  3  0  0  0  0  0  0
   -6.4620  -10.2560   10.3610 C   0  0  0  0  0  0  0  0  0  0  0  0
   -6.1970  -10.2660   11.7310 C   0  0  0  0  0  3  0  0  0  0  0  0
   -5.6050   -9.1570   12.3510 C   0  0  0  0  0  3  0  0  0  0  0  0
   -4.5680   -6.7560   12.3350 C   0  0  2  0  0  0  0  0  0  0  0  0
   -3.1260   -6.8870   12.9040 C   0  0  0  0  0  2  0  0  0  0  0  0
   -3.5330   -5.8390   14.0000 C   0  0  1  0  0  0  0  0  0  0  0  0
   -4.9940   -6.3730   13.7850 C   0  0  0  0  0  2  0  0  0  0  0  0
   -4.6730   -5.6000   11.4080 N   0  0  0  0  0  4  0  0  0  0  0  0
   -5.6480   -5.3580   11.2000 H   0  0  0  0  0  0  0  0  0  0  0  0
   -4.1980   -5.7820   10.5170 H   0  0  0  0  0  0  0  0  0  0  0  0
   -4.2240   -4.7670   11.8370 H   0  0  0  0  0  0  0  0  0  0  0  0
   -2.8660   -6.0120   15.3510 C   0  0  0  0  0  3  0  0  0  0  0  0
   -1.3750   -6.1390   15.5220 C   0  0  0  0  0  2  0  0  0  0  0  0
   -2.1020   -4.9570   16.1010 C   0  0  0  0  0  2  0  0  0  0  0  0
   -3.4130   -4.4730   13.4990 O   0  0  0  0  0  0  0  0  0  0  0  0
   -3.3130   -3.9230   14.3050 H   0  0  0  0  0  0  0  0  0  0  0  0
  1  5  2  0  0  0  0
  1 24  1  0  0  0  0
  2  1  1  0  0  0  0
  3  2  2  0  0  0  0
  3  4  1  0  0  0  0
  4  5  1  0  0  0  0
  5 15  1  0  0  0  0
  6  4  1  0  0  0  0
  7  6  1  0  0  0  0
  8 14  1  0  0  0  0
  8  7  1  0  0  0  0
  9  8  2  0  0  0  0
 10 11  2  0  0  0  0
 10  9  1  0  0  0  0
 11 12  1  0  0  0  0
 12 14  2  0  0  0  0
 13 12  1  0  0  0  0
 14  3  1  0  0  0  0
 15 20  1  0  0  0  0
 16 15  2  0  0  0  0
 16 17  1  0  0  0  0
 17 18  2  0  0  0  0
 18 19  1  0  0  0  0
 20 19  2  0  0  0  0
 21 27  1  0  0  0  0
 21 26  1  0  0  0  0
 22 21  2  0  0  0  0
 23 22  1  0  0  0  0
 23 24  2  0  0  0  0
 24 25  1  0  0  0  0
 25 26  2  0  0  0  0
 27 31  1  6  0  0  0
 27 28  1  0  0  0  0
 27 30  1  0  0  0  0
 28 29  1  0  0  0  0
 29 38  1  6  0  0  0
 29 35  1  0  0  0  0
 30 29  1  0  0  0  0
 31 34  1  0  0  0  0
 32 31  1  0  0  0  0
 33 31  1  0  0  0  0
 35 36  1  0  0  0  0
 35 37  1  0  0  0  0
 36 37  1  0  0  0  0
 38 39  1  0  0  0  0
M  END
>  <minimizedAffinity>
-5.31456327

$$$$
