
 OpenBabel11232420073D

 39 45  0  0  1  0  0  0  0  0999 V2000
   -7.3200  -12.0530    8.3900 C   0  0  0  0  0  0  0  0  0  0  0  0
   -6.5650  -12.6680    7.4130 N   0  0  0  0  0  0  0  0  0  0  0  0
   -7.0140  -13.8990    7.3310 C   0  0  0  0  0  0  0  0  0  0  0  0
   -8.0450  -14.0930    8.2080 N   0  0  0  0  0  0  0  0  0  0  0  0
   -8.2800  -12.9230    8.8960 C   0  0  0  0  0  0  0  0  0  0  0  0
   -8.8070  -15.3260    8.2110 C   0  0  0  0  0  2  0  0  0  0  0  0
   -8.0280  -16.4690    7.7990 O   0  0  0  0  0  0  0  0  0  0  0  0
   -7.1340  -16.2610    6.7770 C   0  0  0  0  0  0  0  0  0  0  0  0
   -6.7280  -17.3850    6.0570 C   0  0  0  0  0  3  0  0  0  0  0  0
   -5.7960  -17.2500    5.0260 C   0  0  0  0  0  3  0  0  0  0  0  0
   -5.2640  -15.9950    4.7300 C   0  0  0  0  0  3  0  0  0  0  0  0
   -5.6580  -14.8790    5.4660 C   0  0  0  0  0  0  0  0  0  0  0  0
   -5.1200  -13.6910    5.1550 F   0  0  0  0  0  0  0  0  0  0  0  0
   -6.5890  -15.0010    6.4970 C   0  0  0  0  0  0  0  0  0  0  0  0
   -9.3690  -12.7490    9.8460 C   0  0  0  0  0  0  0  0  0  0  0  0
  -10.6380  -12.3510    9.4070 C   0  0  0  0  0  3  0  0  0  0  0  0
  -11.6750  -12.1750   10.3240 C   0  0  0  0  0  3  0  0  0  0  0  0
  -11.4510  -12.3960   11.6820 C   0  0  0  0  0  3  0  0  0  0  0  0
  -10.1900  -12.7950   12.1260 C   0  0  0  0  0  3  0  0  0  0  0  0
   -9.1520  -12.9740   11.2100 C   0  0  0  0  0  3  0  0  0  0  0  0
   -6.5290   -7.9830    9.6010 C   0  0  0  0  0  0  0  0  0  0  0  0
   -5.5200   -8.9650    9.5320 C   0  0  0  0  0  3  0  0  0  0  0  0
   -5.7900  -10.2760    9.1220 C   0  0  0  0  0  3  0  0  0  0  0  0
   -7.0800  -10.6630    8.7490 C   0  0  0  0  0  0  0  0  0  0  0  0
   -8.0950   -9.7080    8.8000 C   0  0  0  0  0  3  0  0  0  0  0  0
   -7.8200   -8.3970    9.2130 C   0  0  0  0  0  3  0  0  0  0  0  0
   -6.2280   -6.5110   10.0760 C   0  0  2  0  0  0  0  0  0  0  0  0
   -4.9640   -6.2240   10.9360 C   0  0  0  0  0  2  0  0  0  0  0  0
   -5.7710   -5.0630   11.6190 C   0  0  1  0  0  0  0  0  0  0  0  0
   -7.0440   -5.9100   11.2610 C   0  0  0  0  0  2  0  0  0  0  0  0
   -6.2690   -5.6320    8.8790 N   0  0  0  0  0  4  0  0  0  0  0  0
   -7.1890   -5.6400    8.4250 H   0  0  0  0  0  0  0  0  0  0  0  0
   -5.5710   -5.9070    8.1800 H   0  0  0  0  0  0  0  0  0  0  0  0
   -6.0620   -4.6530    9.1580 H   0  0  0  0  0  0  0  0  0  0  0  0
   -5.4340   -4.7970   13.0730 C   0  0  0  0  0  3  0  0  0  0  0  0
   -4.3210   -5.5010   13.8010 C   0  0  0  0  0  2  0  0  0  0  0  0
   -4.2550   -4.0150   13.5790 C   0  0  0  0  0  2  0  0  0  0  0  0
   -5.7300   -3.8440   10.8150 O   0  0  0  0  0  0  0  0  0  0  0  0
   -5.9090   -3.1220   11.4530 H   0  0  0  0  0  0  0  0  0  0  0  0
  1 24  1  0  0  0  0
  1  5  2  0  0  0  0
  2  1  1  0  0  0  0
  3  2  2  0  0  0  0
  3  4  1  0  0  0  0
  4  6  1  0  0  0  0
  4  5  1  0  0  0  0
  5 15  1  0  0  0  0
  7  6  1  0  0  0  0
  8  7  1  0  0  0  0
  9  8  2  0  0  0  0
 10  9  1  0  0  0  0
 11 10  2  0  0  0  0
 11 12  1  0  0  0  0
 12 14  2  0  0  0  0
 13 12  1  0  0  0  0
 14  8  1  0  0  0  0
 14  3  1  0  0  0  0
 15 20  1  0  0  0  0
 16 15  2  0  0  0  0
 16 17  1  0  0  0  0
 17 18  2  0  0  0  0
 18 19  1  0  0  0  0
 20 19  2  0  0  0  0
 21 27  1  0  0  0  0
 22 21  1  0  0  0  0
 23 22  2  0  0  0  0
 24 25  2  0  0  0  0
 24 23  1  0  0  0  0
 25 26  1  0  0  0  0
 26 21  2  0  0  0  0
 27 31  1  6  0  0  0
 27 28  1  0  0  0  0
 27 30  1  0  0  0  0
 28 29  1  0  0  0  0
 29 38  1  6  0  0  0
 29 35  1  0  0  0  0
 30 29  1  0  0  0  0
 31 34  1  0  0  0  0
 32 31  1  0  0  0  0
 33 31  1  0  0  0  0
 35 37  1  0  0  0  0
 35 36  1  0  0  0  0
 37 36  1  0  0  0  0
 38 39  1  0  0  0  0
M  END
>  <minimizedAffinity>
-6.44038868

$$$$

 OpenBabel11232420073D

 39 45  0  0  1  0  0  0  0  0999 V2000
   -7.1540   -9.5350   11.5020 C   0  0  0  0  0  0  0  0  0  0  0  0
   -6.9110  -10.5520   12.4020 N   0  0  0  0  0  0  0  0  0  0  0  0
   -5.7770  -10.2500   12.9910 C   0  0  0  0  0  0  0  0  0  0  0  0
   -5.2910   -9.0630   12.5160 N   0  0  0  0  0  0  0  0  0  0  0  0
   -6.1580   -8.5660   11.5680 C   0  0  0  0  0  0  0  0  0  0  0  0
   -4.1240   -8.4380   13.1080 C   0  0  0  0  0  2  0  0  0  0  0  0
   -3.1940   -9.3930   13.6580 O   0  0  0  0  0  0  0  0  0  0  0  0
   -3.7410  -10.4810   14.2950 C   0  0  0  0  0  0  0  0  0  0  0  0
   -2.9290  -11.1460   15.2150 C   0  0  0  0  0  3  0  0  0  0  0  0
   -3.4110  -12.2790   15.8730 C   0  0  0  0  0  3  0  0  0  0  0  0
   -4.6950  -12.7490   15.6000 C   0  0  0  0  0  3  0  0  0  0  0  0
   -5.4940  -12.0910   14.6660 C   0  0  0  0  0  0  0  0  0  0  0  0
   -6.7210  -12.5770   14.4260 F   0  0  0  0  0  0  0  0  0  0  0  0
   -5.0250  -10.9590   14.0020 C   0  0  0  0  0  0  0  0  0  0  0  0
   -5.9930   -7.2730   10.9210 C   0  0  0  0  0  0  0  0  0  0  0  0
   -6.4260   -6.1020   11.5550 C   0  0  0  0  0  3  0  0  0  0  0  0
   -6.2750   -4.8650   10.9250 C   0  0  0  0  0  3  0  0  0  0  0  0
   -5.6930   -4.7930    9.6620 C   0  0  0  0  0  3  0  0  0  0  0  0
   -5.2560   -5.9540    9.0250 C   0  0  0  0  0  3  0  0  0  0  0  0
   -5.4040   -7.1920    9.6550 C   0  0  0  0  0  3  0  0  0  0  0  0
  -10.6150   -9.4640    8.9180 C   0  0  0  0  0  0  0  0  0  0  0  0
   -9.2970   -9.5270    8.4220 C   0  0  0  0  0  3  0  0  0  0  0  0
   -8.1860   -9.5660    9.2730 C   0  0  0  0  0  3  0  0  0  0  0  0
   -8.3420   -9.5560   10.6620 C   0  0  0  0  0  0  0  0  0  0  0  0
   -9.6360   -9.5020   11.1790 C   0  0  0  0  0  3  0  0  0  0  0  0
  -10.7450   -9.4610   10.3230 C   0  0  0  0  0  3  0  0  0  0  0  0
  -11.8650   -9.4060    7.9600 C   0  0  2  0  0  0  0  0  0  0  0  0
  -11.8680   -8.4150    6.7610 C   0  0  0  0  0  2  0  0  0  0  0  0
  -13.4260   -8.3170    6.9290 C   0  0  1  0  0  0  0  0  0  0  0  0
  -13.1560   -8.6730    8.4350 C   0  0  0  0  0  2  0  0  0  0  0  0
  -12.1530  -10.7910    7.5090 N   0  0  0  0  0  4  0  0  0  0  0  0
  -12.3790  -11.4140    8.2920 H   0  0  0  0  0  0  0  0  0  0  0  0
  -11.3610  -11.2000    7.0010 H   0  0  0  0  0  0  0  0  0  0  0  0
  -12.9680  -10.7850    6.8640 H   0  0  0  0  0  0  0  0  0  0  0  0
  -14.0400   -6.9760    6.5770 C   0  0  0  0  0  3  0  0  0  0  0  0
  -13.6070   -6.1600    5.3880 C   0  0  0  0  0  2  0  0  0  0  0  0
  -15.0040   -6.7130    5.4550 C   0  0  0  0  0  2  0  0  0  0  0  0
  -14.1040   -9.4240    6.2600 O   0  0  0  0  0  0  0  0  0  0  0  0
  -15.0120   -9.0920    6.0940 H   0  0  0  0  0  0  0  0  0  0  0  0
  1  5  2  0  0  0  0
  1  2  1  0  0  0  0
  2  3  2  0  0  0  0
  3 14  1  0  0  0  0
  4  3  1  0  0  0  0
  4  6  1  0  0  0  0
  5  4  1  0  0  0  0
  6  7  1  0  0  0  0
  7  8  1  0  0  0  0
  8  9  1  0  0  0  0
  9 10  2  0  0  0  0
 11 10  1  0  0  0  0
 12 11  2  0  0  0  0
 13 12  1  0  0  0  0
 14  8  2  0  0  0  0
 14 12  1  0  0  0  0
 15 16  1  0  0  0  0
 15  5  1  0  0  0  0
 17 16  2  0  0  0  0
 18 17  1  0  0  0  0
 19 20  1  0  0  0  0
 19 18  2  0  0  0  0
 20 15  2  0  0  0  0
 21 26  1  0  0  0  0
 22 21  2  0  0  0  0
 22 23  1  0  0  0  0
 23 24  2  0  0  0  0
 24 25  1  0  0  0  0
 24  1  1  0  0  0  0
 26 25  2  0  0  0  0
 27 31  1  6  0  0  0
 27 30  1  0  0  0  0
 27 21  1  0  0  0  0
 28 29  1  0  0  0  0
 28 27  1  0  0  0  0
 29 38  1  6  0  0  0
 29 30  1  0  0  0  0
 31 32  1  0  0  0  0
 33 31  1  0  0  0  0
 34 31  1  0  0  0  0
 35 29  1  0  0  0  0
 36 37  1  0  0  0  0
 36 35  1  0  0  0  0
 37 35  1  0  0  0  0
 39 38  1  0  0  0  0
M  END
>  <minimizedAffinity>
-5.82110453

$$$$

 OpenBabel11232420073D

 39 45  0  0  1  0  0  0  0  0999 V2000
   -4.6610   -6.7900   13.6200 C   0  0  0  0  0  0  0  0  0  0  0  0
   -3.3590   -6.9650   14.0430 N   0  0  0  0  0  0  0  0  0  0  0  0
   -3.1320   -6.0120   14.9170 C   0  0  0  0  0  0  0  0  0  0  0  0
   -4.2480   -5.2410   15.0870 N   0  0  0  0  0  0  0  0  0  0  0  0
   -5.2570   -5.7210   14.2800 C   0  0  0  0  0  0  0  0  0  0  0  0
   -4.3020   -4.2100   16.1050 C   0  0  0  0  0  2  0  0  0  0  0  0
   -3.0120   -3.6260   16.3800 O   0  0  0  0  0  0  0  0  0  0  0  0
   -1.9410   -4.4860   16.3830 C   0  0  0  0  0  0  0  0  0  0  0  0
   -0.8060   -4.0750   17.0840 C   0  0  0  0  0  3  0  0  0  0  0  0
    0.3310   -4.8860   17.1000 C   0  0  0  0  0  3  0  0  0  0  0  0
    0.3320   -6.0960   16.4060 C   0  0  0  0  0  3  0  0  0  0  0  0
   -0.7980   -6.4910   15.6920 C   0  0  0  0  0  0  0  0  0  0  0  0
   -0.7560   -7.6580   15.0320 F   0  0  0  0  0  0  0  0  0  0  0  0
   -1.9390   -5.6910   15.6680 C   0  0  0  0  0  0  0  0  0  0  0  0
   -6.6120   -5.1900   14.2780 C   0  0  0  0  0  0  0  0  0  0  0  0
   -7.4260   -5.3160   15.4110 C   0  0  0  0  0  3  0  0  0  0  0  0
   -8.7280   -4.8140   15.3990 C   0  0  0  0  0  3  0  0  0  0  0  0
   -9.2230   -4.1860   14.2590 C   0  0  0  0  0  3  0  0  0  0  0  0
   -8.4180   -4.0550   13.1270 C   0  0  0  0  0  3  0  0  0  0  0  0
   -7.1140   -4.5530   13.1380 C   0  0  0  0  0  3  0  0  0  0  0  0
   -6.2960   -9.5640   10.7400 C   0  0  0  0  0  0  0  0  0  0  0  0
   -6.2770   -9.8280   12.1240 C   0  0  0  0  0  3  0  0  0  0  0  0
   -5.7580   -8.9120   13.0460 C   0  0  0  0  0  3  0  0  0  0  0  0
   -5.2450   -7.6810   12.6290 C   0  0  0  0  0  0  0  0  0  0  0  0
   -5.2600   -7.3900   11.2650 C   0  0  0  0  0  3  0  0  0  0  0  0
   -5.7790   -8.3120   10.3440 C   0  0  0  0  0  3  0  0  0  0  0  0
   -6.8670  -10.6010    9.7000 C   0  0  2  0  0  0  0  0  0  0  0  0
   -7.4250  -11.9630   10.2020 C   0  0  0  0  0  2  0  0  0  0  0  0
   -6.9530  -12.5850    8.8400 C   0  0  1  0  0  0  0  0  0  0  0  0
   -5.8770  -11.4410    8.8390 C   0  0  0  0  0  2  0  0  0  0  0  0
   -7.8650   -9.8930    8.8570 N   0  0  0  0  0  4  0  0  0  0  0  0
   -7.4490   -9.1150    8.3360 H   0  0  0  0  0  0  0  0  0  0  0  0
   -8.6390   -9.5180    9.4160 H   0  0  0  0  0  0  0  0  0  0  0  0
   -8.2700  -10.5550    8.1670 H   0  0  0  0  0  0  0  0  0  0  0  0
   -6.5050  -14.0320    8.9000 C   0  0  0  0  0  3  0  0  0  0  0  0
   -7.4410  -15.1700    9.2090 C   0  0  0  0  0  2  0  0  0  0  0  0
   -6.7760  -15.0860    7.8630 C   0  0  0  0  0  2  0  0  0  0  0  0
   -7.9350  -12.3580    7.7830 O   0  0  0  0  0  0  0  0  0  0  0  0
   -7.7560  -13.0630    7.1250 H   0  0  0  0  0  0  0  0  0  0  0  0
  1  2  1  0  0  0  0
  1  5  2  0  0  0  0
  2  3  2  0  0  0  0
  3  4  1  0  0  0  0
  3 14  1  0  0  0  0
  4  6  1  0  0  0  0
  5  4  1  0  0  0  0
  6  7  1  0  0  0  0
  7  8  1  0  0  0  0
  8  9  1  0  0  0  0
  9 10  2  0  0  0  0
 11 10  1  0  0  0  0
 12 11  2  0  0  0  0
 13 12  1  0  0  0  0
 14 12  1  0  0  0  0
 14  8  2  0  0  0  0
 15  5  1  0  0  0  0
 15 16  1  0  0  0  0
 17 16  2  0  0  0  0
 18 17  1  0  0  0  0
 19 20  1  0  0  0  0
 19 18  2  0  0  0  0
 20 15  2  0  0  0  0
 21 22  1  0  0  0  0
 22 23  2  0  0  0  0
 24 23  1  0  0  0  0
 24  1  1  0  0  0  0
 25 24  2  0  0  0  0
 26 21  2  0  0  0  0
 26 25  1  0  0  0  0
 27 31  1  6  0  0  0
 27 28  1  0  0  0  0
 27 21  1  0  0  0  0
 29 38  1  6  0  0  0
 29 35  1  0  0  0  0
 29 28  1  0  0  0  0
 30 29  1  0  0  0  0
 30 27  1  0  0  0  0
 31 33  1  0  0  0  0
 32 31  1  0  0  0  0
 34 31  1  0  0  0  0
 35 36  1  0  0  0  0
 37 35  1  0  0  0  0
 37 36  1  0  0  0  0
 39 38  1  0  0  0  0
M  END
>  <minimizedAffinity>
-5.70993614

$$$$

 OpenBabel11232420073D

 39 45  0  0  1  0  0  0  0  0999 V2000
   -5.2730   -8.8820   12.4390 C   0  0  0  0  0  0  0  0  0  0  0  0
   -4.5520   -9.5340   13.4190 N   0  0  0  0  0  0  0  0  0  0  0  0
   -3.4650   -8.8210   13.6010 C   0  0  0  0  0  0  0  0  0  0  0  0
   -3.4690   -7.7230   12.7880 N   0  0  0  0  0  0  0  0  0  0  0  0
   -4.6240   -7.7200   12.0370 C   0  0  0  0  0  0  0  0  0  0  0  0
   -2.4480   -6.7000   12.9000 C   0  0  0  0  0  2  0  0  0  0  0  0
   -1.1790   -7.2210   13.3490 O   0  0  0  0  0  0  0  0  0  0  0  0
   -1.2280   -8.1990   14.3130 C   0  0  0  0  0  0  0  0  0  0  0  0
   -0.0800   -8.3790   15.0850 C   0  0  0  0  0  3  0  0  0  0  0  0
   -0.0490   -9.3780   16.0610 C   0  0  0  0  0  3  0  0  0  0  0  0
   -1.1610  -10.1990   16.2500 C   0  0  0  0  0  3  0  0  0  0  0  0
   -2.2970  -10.0270   15.4610 C   0  0  0  0  0  0  0  0  0  0  0  0
   -3.3430  -10.8400   15.6690 F   0  0  0  0  0  0  0  0  0  0  0  0
   -2.3400   -9.0330   14.4850 C   0  0  0  0  0  0  0  0  0  0  0  0
   -4.9950   -6.6450   11.1280 C   0  0  0  0  0  0  0  0  0  0  0  0
   -5.3600   -5.3890   11.6270 C   0  0  0  0  0  3  0  0  0  0  0  0
   -5.7250   -4.3650   10.7520 C   0  0  0  0  0  3  0  0  0  0  0  0
   -5.7280   -4.5900    9.3770 C   0  0  0  0  0  3  0  0  0  0  0  0
   -5.3630   -5.8380    8.8720 C   0  0  0  0  0  3  0  0  0  0  0  0
   -4.9950   -6.8630    9.7460 C   0  0  0  0  0  3  0  0  0  0  0  0
   -9.0250  -10.3890   10.9190 C   0  0  0  0  0  0  0  0  0  0  0  0
   -7.7910  -10.6520   10.2910 C   0  0  0  0  0  3  0  0  0  0  0  0
   -6.5810  -10.1700   10.8050 C   0  0  0  0  0  3  0  0  0  0  0  0
   -6.5480   -9.4120   11.9800 C   0  0  0  0  0  0  0  0  0  0  0  0
   -7.7550   -9.1450   12.6250 C   0  0  0  0  0  3  0  0  0  0  0  0
   -8.9650   -9.6290   12.1050 C   0  0  0  0  0  3  0  0  0  0  0  0
  -10.3880  -10.9200   10.3320 C   0  0  2  0  0  0  0  0  0  0  0  0
  -10.5560  -11.0670    8.7930 C   0  0  0  0  0  2  0  0  0  0  0  0
  -12.0810  -10.7500    8.9930 C   0  0  1  0  0  0  0  0  0  0  0  0
  -11.6160   -9.9620   10.2700 C   0  0  0  0  0  2  0  0  0  0  0  0
  -10.7160  -12.1900   11.0290 N   0  0  0  0  0  4  0  0  0  0  0  0
  -10.8330  -12.0580   12.0390 H   0  0  0  0  0  0  0  0  0  0  0  0
   -9.9910  -12.9010   10.8870 H   0  0  0  0  0  0  0  0  0  0  0  0
  -11.6070  -12.5730   10.6550 H   0  0  0  0  0  0  0  0  0  0  0  0
  -12.7500  -10.0030    7.8570 C   0  0  0  0  0  3  0  0  0  0  0  0
  -12.8570  -10.5540    6.4600 C   0  0  0  0  0  2  0  0  0  0  0  0
  -14.1000  -10.3080    7.2710 C   0  0  0  0  0  2  0  0  0  0  0  0
  -12.8260  -11.9450    9.3790 O   0  0  0  0  0  0  0  0  0  0  0  0
  -13.7520  -11.7530    9.1170 H   0  0  0  0  0  0  0  0  0  0  0  0
  1  2  1  0  0  0  0
  2  3  2  0  0  0  0
  3 14  1  0  0  0  0
  4  6  1  0  0  0  0
  4  3  1  0  0  0  0
  5  1  2  0  0  0  0
  5  4  1  0  0  0  0
  6  7  1  0  0  0  0
  7  8  1  0  0  0  0
  8 14  2  0  0  0  0
  8  9  1  0  0  0  0
  9 10  2  0  0  0  0
 10 11  1  0  0  0  0
 12 13  1  0  0  0  0
 12 11  2  0  0  0  0
 14 12  1  0  0  0  0
 15 16  1  0  0  0  0
 15  5  1  0  0  0  0
 17 16  2  0  0  0  0
 18 17  1  0  0  0  0
 19 18  2  0  0  0  0
 19 20  1  0  0  0  0
 20 15  2  0  0  0  0
 21 26  1  0  0  0  0
 22 23  1  0  0  0  0
 22 21  2  0  0  0  0
 23 24  2  0  0  0  0
 24  1  1  0  0  0  0
 24 25  1  0  0  0  0
 26 25  2  0  0  0  0
 27 21  1  0  0  0  0
 27 31  1  1  0  0  0
 28 29  1  0  0  0  0
 28 27  1  0  0  0  0
 29 38  1  1  0  0  0
 29 30  1  0  0  0  0
 30 27  1  0  0  0  0
 31 32  1  0  0  0  0
 33 31  1  0  0  0  0
 34 31  1  0  0  0  0
 35 29  1  0  0  0  0
 36 37  1  0  0  0  0
 36 35  1  0  0  0  0
 37 35  1  0  0  0  0
 39 38  1  0  0  0  0
M  END
>  <minimizedAffinity>
-5.63231659

$$$$

 OpenBabel11232420073D

 39 45  0  0  1  0  0  0  0  0999 V2000
   -6.5520  -10.2910    9.9730 C   0  0  0  0  0  0  0  0  0  0  0  0
   -6.2880   -9.0670    9.3920 N   0  0  0  0  0  0  0  0  0  0  0  0
   -6.3010   -8.1930   10.3710 C   0  0  0  0  0  0  0  0  0  0  0  0
   -6.5450   -8.8120   11.5650 N   0  0  0  0  0  0  0  0  0  0  0  0
   -6.6970  -10.1650   11.3500 C   0  0  0  0  0  0  0  0  0  0  0  0
   -6.4700   -8.0870   12.8180 C   0  0  0  0  0  2  0  0  0  0  0  0
   -6.8160   -6.6930   12.6810 O   0  0  0  0  0  0  0  0  0  0  0  0
   -6.3790   -6.0650   11.5400 C   0  0  0  0  0  0  0  0  0  0  0  0
   -6.2760   -4.6740   11.5870 C   0  0  0  0  0  3  0  0  0  0  0  0
   -5.8710   -3.9700   10.4510 C   0  0  0  0  0  3  0  0  0  0  0  0
   -5.5820   -4.6570    9.2720 C   0  0  0  0  0  3  0  0  0  0  0  0
   -5.7060   -6.0450    9.2270 C   0  0  0  0  0  0  0  0  0  0  0  0
   -5.4260   -6.6700    8.0730 F   0  0  0  0  0  0  0  0  0  0  0  0
   -6.1100   -6.7600   10.3530 C   0  0  0  0  0  0  0  0  0  0  0  0
   -6.8800  -11.1370   12.4180 C   0  0  0  0  0  0  0  0  0  0  0  0
   -5.7730  -11.7630   13.0050 C   0  0  0  0  0  3  0  0  0  0  0  0
   -5.9540  -12.7020   14.0210 C   0  0  0  0  0  3  0  0  0  0  0  0
   -7.2400  -13.0210   14.4540 C   0  0  0  0  0  3  0  0  0  0  0  0
   -8.3470  -12.4000   13.8770 C   0  0  0  0  0  3  0  0  0  0  0  0
   -8.1670  -11.4580   12.8620 C   0  0  0  0  0  3  0  0  0  0  0  0
   -6.7140  -13.7780    7.4290 C   0  0  0  0  0  0  0  0  0  0  0  0
   -5.5940  -12.9240    7.4770 C   0  0  0  0  0  3  0  0  0  0  0  0
   -5.5500  -11.8070    8.3190 C   0  0  0  0  0  3  0  0  0  0  0  0
   -6.6210  -11.4980    9.1630 C   0  0  0  0  0  0  0  0  0  0  0  0
   -7.7380  -12.3320    9.1410 C   0  0  0  0  0  3  0  0  0  0  0  0
   -7.7780  -13.4490    8.2940 C   0  0  0  0  0  3  0  0  0  0  0  0
   -6.7680  -15.0280    6.4710 C   0  0  2  0  0  0  0  0  0  0  0  0
   -8.0820  -15.3480    5.7010 C   0  0  0  0  0  2  0  0  0  0  0  0
   -7.6870  -16.8650    5.7870 C   0  0  1  0  0  0  0  0  0  0  0  0
   -6.9030  -16.4540    7.0850 C   0  0  0  0  0  2  0  0  0  0  0  0
   -5.6140  -14.9370    5.5410 N   0  0  0  0  0  4  0  0  0  0  0  0
   -4.7160  -14.9530    6.0370 H   0  0  0  0  0  0  0  0  0  0  0  0
   -5.6450  -14.0810    4.9770 H   0  0  0  0  0  0  0  0  0  0  0  0
   -5.6280  -15.7430    4.8860 H   0  0  0  0  0  0  0  0  0  0  0  0
   -8.8440  -17.8390    5.8900 C   0  0  0  0  0  3  0  0  0  0  0  0
   -9.8560  -17.8000    7.0040 C   0  0  0  0  0  2  0  0  0  0  0  0
  -10.2840  -17.5370    5.5860 C   0  0  0  0  0  2  0  0  0  0  0  0
   -6.7530  -17.2330    4.7270 O   0  0  0  0  0  0  0  0  0  0  0  0
   -6.8620  -18.2020    4.6270 H   0  0  0  0  0  0  0  0  0  0  0  0
  1  5  2  0  0  0  0
  2  1  1  0  0  0  0
  2  3  2  0  0  0  0
  3  4  1  0  0  0  0
  4  6  1  0  0  0  0
  5  4  1  0  0  0  0
  5 15  1  0  0  0  0
  7  6  1  0  0  0  0
  8  9  1  0  0  0  0
  8  7  1  0  0  0  0
 10  9  2  0  0  0  0
 11 10  1  0  0  0  0
 12 11  2  0  0  0  0
 12 14  1  0  0  0  0
 13 12  1  0  0  0  0
 14  3  1  0  0  0  0
 14  8  2  0  0  0  0
 15 20  2  0  0  0  0
 15 16  1  0  0  0  0
 16 17  2  0  0  0  0
 17 18  1  0  0  0  0
 19 18  2  0  0  0  0
 20 19  1  0  0  0  0
 21 22  2  0  0  0  0
 21 26  1  0  0  0  0
 22 23  1  0  0  0  0
 23 24  2  0  0  0  0
 24  1  1  0  0  0  0
 25 24  1  0  0  0  0
 26 25  2  0  0  0  0
 27 31  1  6  0  0  0
 27 30  1  0  0  0  0
 27 21  1  0  0  0  0
 28 29  1  0  0  0  0
 28 27  1  0  0  0  0
 29 38  1  6  0  0  0
 29 35  1  0  0  0  0
 29 30  1  0  0  0  0
 31 32  1  0  0  0  0
 33 31  1  0  0  0  0
 34 31  1  0  0  0  0
 35 36  1  0  0  0  0
 37 35  1  0  0  0  0
 37 36  1  0  0  0  0
 39 38  1  0  0  0  0
M  END
>  <minimizedAffinity>
-5.51088715

$$$$

 OpenBabel11232420073D

 39 45  0  0  1  0  0  0  0  0999 V2000
   -5.2320   -8.9280   12.3150 C   0  0  0  0  0  0  0  0  0  0  0  0
   -4.5340   -9.5680   13.3190 N   0  0  0  0  0  0  0  0  0  0  0  0
   -3.5040   -8.8000   13.5880 C   0  0  0  0  0  0  0  0  0  0  0  0
   -3.5240   -7.6780   12.8070 N   0  0  0  0  0  0  0  0  0  0  0  0
   -4.6290   -7.7180   11.9860 C   0  0  0  0  0  0  0  0  0  0  0  0
   -2.5740   -6.6020   13.0110 C   0  0  0  0  0  2  0  0  0  0  0  0
   -1.3060   -7.0630   13.5230 O   0  0  0  0  0  0  0  0  0  0  0  0
   -1.3550   -8.0720   14.4540 C   0  0  0  0  0  0  0  0  0  0  0  0
   -0.2460   -8.2100   15.2910 C   0  0  0  0  0  3  0  0  0  0  0  0
   -0.2150   -9.2360   16.2380 C   0  0  0  0  0  3  0  0  0  0  0  0
   -1.2850  -10.1260   16.3350 C   0  0  0  0  0  3  0  0  0  0  0  0
   -2.3800   -9.9940   15.4830 C   0  0  0  0  0  0  0  0  0  0  0  0
   -3.3870  -10.8730   15.6020 F   0  0  0  0  0  0  0  0  0  0  0  0
   -2.4230   -8.9740   14.5340 C   0  0  0  0  0  0  0  0  0  0  0  0
   -5.0080   -6.6380   11.0870 C   0  0  0  0  0  0  0  0  0  0  0  0
   -5.3830   -5.3890   11.5970 C   0  0  0  0  0  3  0  0  0  0  0  0
   -5.7560   -4.3600   10.7310 C   0  0  0  0  0  3  0  0  0  0  0  0
   -5.7560   -4.5740    9.3540 C   0  0  0  0  0  3  0  0  0  0  0  0
   -5.3820   -5.8140    8.8380 C   0  0  0  0  0  3  0  0  0  0  0  0
   -5.0060   -6.8440    9.7030 C   0  0  0  0  0  3  0  0  0  0  0  0
   -8.8020  -10.5810   10.5310 C   0  0  0  0  0  0  0  0  0  0  0  0
   -7.5470  -10.6160    9.8920 C   0  0  0  0  0  3  0  0  0  0  0  0
   -6.3950  -10.0900   10.4900 C   0  0  0  0  0  3  0  0  0  0  0  0
   -6.4430   -9.5160   11.7630 C   0  0  0  0  0  0  0  0  0  0  0  0
   -7.6720   -9.4760   12.4220 C   0  0  0  0  0  3  0  0  0  0  0  0
   -8.8230  -10.0020   11.8180 C   0  0  0  0  0  3  0  0  0  0  0  0
  -10.1010  -11.1590    9.8520 C   0  0  2  0  0  0  0  0  0  0  0  0
  -11.4510  -11.1250   10.6230 C   0  0  0  0  0  2  0  0  0  0  0  0
  -11.8460  -12.4400    9.8620 C   0  0  1  0  0  0  0  0  0  0  0  0
  -10.3000  -12.7040    9.7800 C   0  0  0  0  0  2  0  0  0  0  0  0
  -10.2330  -10.5250    8.5160 N   0  0  0  0  0  4  0  0  0  0  0  0
   -9.4340  -10.7340    7.9070 H   0  0  0  0  0  0  0  0  0  0  0  0
  -10.3170   -9.5050    8.5840 H   0  0  0  0  0  0  0  0  0  0  0  0
  -11.0900  -10.8790    8.0450 H   0  0  0  0  0  0  0  0  0  0  0  0
  -12.7290  -13.4030   10.6300 C   0  0  0  0  0  3  0  0  0  0  0  0
  -14.1530  -13.0900   11.0080 C   0  0  0  0  0  2  0  0  0  0  0  0
  -13.8550  -14.2190   10.0590 C   0  0  0  0  0  2  0  0  0  0  0  0
  -12.3800  -12.1450    8.5350 O   0  0  0  0  0  0  0  0  0  0  0  0
  -12.9230  -12.9300    8.3080 H   0  0  0  0  0  0  0  0  0  0  0  0
  1  2  1  0  0  0  0
  2  3  2  0  0  0  0
  3 14  1  0  0  0  0
  4  6  1  0  0  0  0
  4  3  1  0  0  0  0
  5  1  2  0  0  0  0
  5  4  1  0  0  0  0
  6  7  1  0  0  0  0
  7  8  1  0  0  0  0
  8 14  2  0  0  0  0
  8  9  1  0  0  0  0
  9 10  2  0  0  0  0
 10 11  1  0  0  0  0
 12 13  1  0  0  0  0
 12 11  2  0  0  0  0
 14 12  1  0  0  0  0
 15 16  1  0  0  0  0
 15  5  1  0  0  0  0
 17 16  2  0  0  0  0
 18 17  1  0  0  0  0
 19 18  2  0  0  0  0
 19 20  1  0  0  0  0
 20 15  2  0  0  0  0
 21 26  1  0  0  0  0
 22 23  1  0  0  0  0
 22 21  2  0  0  0  0
 23 24  2  0  0  0  0
 24  1  1  0  0  0  0
 24 25  1  0  0  0  0
 26 25  2  0  0  0  0
 27 31  1  6  0  0  0
 27 21  1  0  0  0  0
 27 28  1  0  0  0  0
 29 38  1  6  0  0  0
 29 28  1  0  0  0  0
 29 35  1  0  0  0  0
 30 27  1  0  0  0  0
 30 29  1  0  0  0  0
 31 33  1  0  0  0  0
 32 31  1  0  0  0  0
 34 31  1  0  0  0  0
 35 36  1  0  0  0  0
 37 35  1  0  0  0  0
 37 36  1  0  0  0  0
 39 38  1  0  0  0  0
M  END
>  <minimizedAffinity>
-5.37786102

$$$$

 OpenBabel11232420073D

 39 45  0  0  1  0  0  0  0  0999 V2000
   -7.0150  -11.4020    9.6560 C   0  0  0  0  0  0  0  0  0  0  0  0
   -6.3950  -11.9000    8.5280 N   0  0  0  0  0  0  0  0  0  0  0  0
   -7.1220  -12.9220    8.1380 C   0  0  0  0  0  0  0  0  0  0  0  0
   -8.1990  -13.0870    8.9630 N   0  0  0  0  0  0  0  0  0  0  0  0
   -8.1720  -12.1180    9.9420 C   0  0  0  0  0  0  0  0  0  0  0  0
   -9.2340  -14.0580    8.6640 C   0  0  0  0  0  2  0  0  0  0  0  0
   -8.7360  -15.2030    7.9420 O   0  0  0  0  0  0  0  0  0  0  0  0
   -7.7830  -14.9540    6.9850 C   0  0  0  0  0  0  0  0  0  0  0  0
   -7.6330  -15.9120    5.9810 C   0  0  0  0  0  3  0  0  0  0  0  0
   -6.6600  -15.7380    4.9950 C   0  0  0  0  0  3  0  0  0  0  0  0
   -5.8330  -14.6150    5.0240 C   0  0  0  0  0  3  0  0  0  0  0  0
   -5.9760  -13.6720    6.0410 C   0  0  0  0  0  0  0  0  0  0  0  0
   -5.1580  -12.6080    6.0380 F   0  0  0  0  0  0  0  0  0  0  0  0
   -6.9430  -13.8340    7.0300 C   0  0  0  0  0  0  0  0  0  0  0  0
   -9.2210  -11.9450   10.9380 C   0  0  0  0  0  0  0  0  0  0  0  0
  -10.2760  -11.0540   10.7100 C   0  0  0  0  0  3  0  0  0  0  0  0
  -11.2720  -10.8840   11.6720 C   0  0  0  0  0  3  0  0  0  0  0  0
  -11.2200  -11.6020   12.8650 C   0  0  0  0  0  3  0  0  0  0  0  0
  -10.1730  -12.4940   13.0980 C   0  0  0  0  0  3  0  0  0  0  0  0
   -9.1770  -12.6670   12.1350 C   0  0  0  0  0  3  0  0  0  0  0  0
   -5.2440   -7.9950   11.6350 C   0  0  0  0  0  0  0  0  0  0  0  0
   -5.5310   -8.0080   10.2550 C   0  0  0  0  0  3  0  0  0  0  0  0
   -6.1210   -9.1140    9.6310 C   0  0  0  0  0  3  0  0  0  0  0  0
   -6.4620  -10.2560   10.3610 C   0  0  0  0  0  0  0  0  0  0  0  0
   -6.1970  -10.2660   11.7310 C   0  0  0  0  0  3  0  0  0  0  0  0
   -5.6050   -9.1570   12.3510 C   0  0  0  0  0  3  0  0  0  0  0  0
   -4.5680   -6.7560   12.3350 C   0  0  2  0  0  0  0  0  0  0  0  0
   -3.1260   -6.8870   12.9040 C   0  0  0  0  0  2  0  0  0  0  0  0
   -3.5330   -5.8390   14.0000 C   0  0  1  0  0  0  0  0  0  0  0  0
   -4.9940   -6.3730   13.7850 C   0  0  0  0  0  2  0  0  0  0  0  0
   -4.6730   -5.6000   11.4080 N   0  0  0  0  0  4  0  0  0  0  0  0
   -5.6480   -5.3580   11.2000 H   0  0  0  0  0  0  0  0  0  0  0  0
   -4.1980   -5.7820   10.5170 H   0  0  0  0  0  0  0  0  0  0  0  0
   -4.2240   -4.7670   11.8370 H   0  0  0  0  0  0  0  0  0  0  0  0
   -2.8660   -6.0120   15.3510 C   0  0  0  0  0  3  0  0  0  0  0  0
   -1.3750   -6.1390   15.5220 C   0  0  0  0  0  2  0  0  0  0  0  0
   -2.1020   -4.9570   16.1010 C   0  0  0  0  0  2  0  0  0  0  0  0
   -3.4130   -4.4730   13.4990 O   0  0  0  0  0  0  0  0  0  0  0  0
   -3.3130   -3.9230   14.3050 H   0  0  0  0  0  0  0  0  0  0  0  0
  1  5  2  0  0  0  0
  1 24  1  0  0  0  0
  2  1  1  0  0  0  0
  3  2  2  0  0  0  0
  3  4  1  0  0  0  0
  4  5  1  0  0  0  0
  5 15  1  0  0  0  0
  6  4  1  0  0  0  0
  7  6  1  0  0  0  0
  8 14  1  0  0  0  0
  8  7  1  0  0  0  0
  9  8  2  0  0  0  0
 10 11  2  0  0  0  0
 10  9  1  0  0  0  0
 11 12  1  0  0  0  0
 12 14  2  0  0  0  0
 13 12  1  0  0  0  0
 14  3  1  0  0  0  0
 15 20  1  0  0  0  0
 16 15  2  0  0  0  0
 16 17  1  0  0  0  0
 17 18  2  0  0  0  0
 18 19  1  0  0  0  0
 20 19  2  0  0  0  0
 21 27  1  0  0  0  0
 21 26  1  0  0  0  0
 22 21  2  0  0  0  0
 23 22  1  0  0  0  0
 23 24  2  0  0  0  0
 24 25  1  0  0  0  0
 25 26  2  0  0  0  0
 27 31  1  6  0  0  0
 27 28  1  0  0  0  0
 27 30  1  0  0  0  0
 28 29  1  0  0  0  0
 29 38  1  6  0  0  0
 29 35  1  0  0  0  0
 30 29  1  0  0  0  0
 31 34  1  0  0  0  0
 32 31  1  0  0  0  0
 33 31  1  0  0  0  0
 35 36  1  0  0  0  0
 35 37  1  0  0  0  0
 36 37  1  0  0  0  0
 38 39  1  0  0  0  0
M  END
>  <minimizedAffinity>
-5.31456327

$$$$

 OpenBabel11232420073D

 39 45  0  0  1  0  0  0  0  0999 V2000
   -3.7290   -7.4160   13.8120 C   0  0  0  0  0  0  0  0  0  0  0  0
   -2.4210   -7.8490   13.8840 N   0  0  0  0  0  0  0  0  0  0  0  0
   -1.8580   -7.1400   14.8350 C   0  0  0  0  0  0  0  0  0  0  0  0
   -2.7620   -6.2790   15.3910 N   0  0  0  0  0  0  0  0  0  0  0  0
   -3.9810   -6.4390   14.7700 C   0  0  0  0  0  0  0  0  0  0  0  0
   -2.4260   -5.4870   16.5580 C   0  0  0  0  0  2  0  0  0  0  0  0
   -1.0250   -5.1520   16.6240 O   0  0  0  0  0  0  0  0  0  0  0  0
   -0.1450   -6.1290   16.2280 C   0  0  0  0  0  0  0  0  0  0  0  0
    1.1620   -6.0310   16.7070 C   0  0  0  0  0  3  0  0  0  0  0  0
    2.1180   -6.9730   16.3170 C   0  0  0  0  0  3  0  0  0  0  0  0
    1.7640   -7.9990   15.4410 C   0  0  0  0  0  3  0  0  0  0  0  0
    0.4620   -8.0800   14.9510 C   0  0  0  0  0  0  0  0  0  0  0  0
    0.1620   -9.0770   14.1050 F   0  0  0  0  0  0  0  0  0  0  0  0
   -0.5000   -7.1470   15.3330 C   0  0  0  0  0  0  0  0  0  0  0  0
   -5.1930   -5.7420   15.1750 C   0  0  0  0  0  0  0  0  0  0  0  0
   -6.0210   -6.2770   16.1690 C   0  0  0  0  0  3  0  0  0  0  0  0
   -7.1870   -5.6100   16.5470 C   0  0  0  0  0  3  0  0  0  0  0  0
   -7.5320   -4.4070   15.9330 C   0  0  0  0  0  3  0  0  0  0  0  0
   -6.7110   -3.8660   14.9440 C   0  0  0  0  0  3  0  0  0  0  0  0
   -5.5420   -4.5310   14.5670 C   0  0  0  0  0  3  0  0  0  0  0  0
   -6.3970   -9.2840   10.9740 C   0  0  0  0  0  0  0  0  0  0  0  0
   -6.2980   -9.7050   12.3150 C   0  0  0  0  0  3  0  0  0  0  0  0
   -5.4410   -9.0790   13.2270 C   0  0  0  0  0  3  0  0  0  0  0  0
   -4.6500   -7.9920   12.8440 C   0  0  0  0  0  0  0  0  0  0  0  0
   -4.7340   -7.5500   11.5240 C   0  0  0  0  0  3  0  0  0  0  0  0
   -5.5930   -8.1810   10.6130 C   0  0  0  0  0  3  0  0  0  0  0  0
   -7.3510   -9.9970    9.9430 C   0  0  2  0  0  0  0  0  0  0  0  0
   -8.0580   -9.1570    8.8410 C   0  0  0  0  0  2  0  0  0  0  0  0
   -9.2460  -10.1800    8.9130 C   0  0  1  0  0  0  0  0  0  0  0  0
   -8.7830  -10.4170   10.3940 C   0  0  0  0  0  2  0  0  0  0  0  0
   -6.6060  -11.1370    9.3500 N   0  0  0  0  0  4  0  0  0  0  0  0
   -6.3250  -11.8260   10.0560 H   0  0  0  0  0  0  0  0  0  0  0  0
   -5.7590  -10.8250    8.8620 H   0  0  0  0  0  0  0  0  0  0  0  0
   -7.2060  -11.6220    8.6550 H   0  0  0  0  0  0  0  0  0  0  0  0
  -10.6230   -9.6060    8.6430 C   0  0  0  0  0  3  0  0  0  0  0  0
  -11.0030   -8.9590    7.3380 C   0  0  0  0  0  2  0  0  0  0  0  0
  -11.6860  -10.2240    7.7800 C   0  0  0  0  0  2  0  0  0  0  0  0
   -8.9770  -11.3640    8.1020 O   0  0  0  0  0  0  0  0  0  0  0  0
   -9.8640  -11.7350    7.9060 H   0  0  0  0  0  0  0  0  0  0  0  0
  1  2  1  0  0  0  0
  1  5  2  0  0  0  0
  2  3  2  0  0  0  0
  3 14  1  0  0  0  0
  3  4  1  0  0  0  0
  4  6  1  0  0  0  0
  5 15  1  0  0  0  0
  5  4  1  0  0  0  0
  6  7  1  0  0  0  0
  8  7  1  0  0  0  0
  8  9  1  0  0  0  0
 10  9  2  0  0  0  0
 11 10  1  0  0  0  0
 12 14  1  0  0  0  0
 12 11  2  0  0  0  0
 13 12  1  0  0  0  0
 14  8  2  0  0  0  0
 15 16  1  0  0  0  0
 16 17  2  0  0  0  0
 18 17  1  0  0  0  0
 19 18  2  0  0  0  0
 20 19  1  0  0  0  0
 20 15  2  0  0  0  0
 21 22  1  0  0  0  0
 22 23  2  0  0  0  0
 24 23  1  0  0  0  0
 24  1  1  0  0  0  0
 25 24  2  0  0  0  0
 26 21  2  0  0  0  0
 26 25  1  0  0  0  0
 27 31  1  6  0  0  0
 27 30  1  0  0  0  0
 27 21  1  0  0  0  0
 28 29  1  0  0  0  0
 28 27  1  0  0  0  0
 29 38  1  6  0  0  0
 29 30  1  0  0  0  0
 31 32  1  0  0  0  0
 33 31  1  0  0  0  0
 34 31  1  0  0  0  0
 35 29  1  0  0  0  0
 36 37  1  0  0  0  0
 36 35  1  0  0  0  0
 37 35  1  0  0  0  0
 39 38  1  0  0  0  0
M  END
>  <minimizedAffinity>
-5.28732872

$$$$

 OpenBabel11232420073D

 39 45  0  0  1  0  0  0  0  0999 V2000
   -9.3570   -9.5910    9.2460 C   0  0  0  0  0  0  0  0  0  0  0  0
  -10.2000   -8.9610    8.3530 N   0  0  0  0  0  0  0  0  0  0  0  0
  -11.0440   -9.8800    7.9440 C   0  0  0  0  0  0  0  0  0  0  0  0
  -10.7860  -11.0750    8.5560 N   0  0  0  0  0  0  0  0  0  0  0  0
   -9.7180  -10.9240    9.4120 C   0  0  0  0  0  0  0  0  0  0  0  0
  -11.6670  -12.2140    8.3830 C   0  0  0  0  0  2  0  0  0  0  0  0
  -12.3240  -12.2250    7.0990 O   0  0  0  0  0  0  0  0  0  0  0  0
  -12.7340  -11.0070    6.6130 C   0  0  0  0  0  0  0  0  0  0  0  0
  -13.7490  -11.0210    5.6560 C   0  0  0  0  0  3  0  0  0  0  0  0
  -14.1910   -9.8200    5.0950 C   0  0  0  0  0  3  0  0  0  0  0  0
  -13.6080   -8.6150    5.4850 C   0  0  0  0  0  3  0  0  0  0  0  0
  -12.5810   -8.6100    6.4270 C   0  0  0  0  0  0  0  0  0  0  0  0
  -12.0410   -7.4310    6.7710 F   0  0  0  0  0  0  0  0  0  0  0  0
  -12.1310   -9.8010    6.9940 C   0  0  0  0  0  0  0  0  0  0  0  0
   -9.2320  -11.9770   10.2920 C   0  0  0  0  0  0  0  0  0  0  0  0
   -9.7110  -12.0830   11.6040 C   0  0  0  0  0  3  0  0  0  0  0  0
   -9.2340  -13.0870   12.4470 C   0  0  0  0  0  3  0  0  0  0  0  0
   -8.2770  -13.9890   11.9850 C   0  0  0  0  0  3  0  0  0  0  0  0
   -7.7970  -13.8910   10.6800 C   0  0  0  0  0  3  0  0  0  0  0  0
   -8.2750  -12.8880    9.8340 C   0  0  0  0  0  3  0  0  0  0  0  0
   -6.2750   -7.2910   11.2140 C   0  0  0  0  0  0  0  0  0  0  0  0
   -7.4720   -7.6650   11.8570 C   0  0  0  0  0  3  0  0  0  0  0  0
   -8.4540   -8.4240   11.2110 C   0  0  0  0  0  3  0  0  0  0  0  0
   -8.2800   -8.8570    9.8930 C   0  0  0  0  0  0  0  0  0  0  0  0
   -7.1000   -8.5080    9.2360 C   0  0  0  0  0  3  0  0  0  0  0  0
   -6.1200   -7.7460    9.8870 C   0  0  0  0  0  3  0  0  0  0  0  0
   -5.1750   -6.4240   11.9360 C   0  0  2  0  0  0  0  0  0  0  0  0
   -4.9480   -6.5920   13.4660 C   0  0  0  0  0  2  0  0  0  0  0  0
   -4.5410   -5.0760   13.5070 C   0  0  1  0  0  0  0  0  0  0  0  0
   -5.4690   -4.9260   12.2490 C   0  0  0  0  0  2  0  0  0  0  0  0
   -3.9040   -6.5900   11.1870 N   0  0  0  0  0  4  0  0  0  0  0  0
   -3.9810   -6.2650   10.2180 H   0  0  0  0  0  0  0  0  0  0  0  0
   -3.5980   -7.5690   11.1660 H   0  0  0  0  0  0  0  0  0  0  0  0
   -3.1530   -6.0390   11.6470 H   0  0  0  0  0  0  0  0  0  0  0  0
   -4.8870   -4.3380   14.7840 C   0  0  0  0  0  3  0  0  0  0  0  0
   -4.5560   -4.8650   16.1550 C   0  0  0  0  0  2  0  0  0  0  0  0
   -3.9240   -3.5910   15.6640 C   0  0  0  0  0  2  0  0  0  0  0  0
   -3.1420   -4.8920   13.1280 O   0  0  0  0  0  0  0  0  0  0  0  0
   -2.8890   -4.0350   13.5320 H   0  0  0  0  0  0  0  0  0  0  0  0
  1  5  2  0  0  0  0
  1 24  1  0  0  0  0
  2  1  1  0  0  0  0
  3  2  2  0  0  0  0
  3  4  1  0  0  0  0
  4  5  1  0  0  0  0
  5 15  1  0  0  0  0
  6  4  1  0  0  0  0
  7  6  1  0  0  0  0
  8 14  1  0  0  0  0
  8  7  1  0  0  0  0
  9  8  2  0  0  0  0
 10 11  2  0  0  0  0
 10  9  1  0  0  0  0
 11 12  1  0  0  0  0
 12 13  1  0  0  0  0
 12 14  2  0  0  0  0
 14  3  1  0  0  0  0
 15 16  1  0  0  0  0
 16 17  2  0  0  0  0
 18 17  1  0  0  0  0
 19 18  2  0  0  0  0
 20 15  2  0  0  0  0
 20 19  1  0  0  0  0
 21 22  1  0  0  0  0
 21 27  1  0  0  0  0
 23 22  2  0  0  0  0
 24 23  1  0  0  0  0
 25 26  1  0  0  0  0
 25 24  2  0  0  0  0
 26 21  2  0  0  0  0
 27 31  1  6  0  0  0
 27 30  1  0  0  0  0
 27 28  1  0  0  0  0
 28 29  1  0  0  0  0
 29 38  1  6  0  0  0
 29 35  1  0  0  0  0
 30 29  1  0  0  0  0
 31 34  1  0  0  0  0
 32 31  1  0  0  0  0
 33 31  1  0  0  0  0
 35 37  1  0  0  0  0
 35 36  1  0  0  0  0
 37 36  1  0  0  0  0
 38 39  1  0  0  0  0
M  END
>  <minimizedAffinity>
-5.19182301

$$$$
