
 OpenBabel11232420073D

 39 45  0  0  1  0  0  0  0  0999 V2000
   -5.2730   -8.8820   12.4390 C   0  0  0  0  0  0  0  0  0  0  0  0
   -4.5520   -9.5340   13.4190 N   0  0  0  0  0  0  0  0  0  0  0  0
   -3.4650   -8.8210   13.6010 C   0  0  0  0  0  0  0  0  0  0  0  0
   -3.4690   -7.7230   12.7880 N   0  0  0  0  0  0  0  0  0  0  0  0
   -4.6240   -7.7200   12.0370 C   0  0  0  0  0  0  0  0  0  0  0  0
   -2.4480   -6.7000   12.9000 C   0  0  0  0  0  2  0  0  0  0  0  0
   -1.1790   -7.2210   13.3490 O   0  0  0  0  0  0  0  0  0  0  0  0
   -1.2280   -8.1990   14.3130 C   0  0  0  0  0  0  0  0  0  0  0  0
   -0.0800   -8.3790   15.0850 C   0  0  0  0  0  3  0  0  0  0  0  0
   -0.0490   -9.3780   16.0610 C   0  0  0  0  0  3  0  0  0  0  0  0
   -1.1610  -10.1990   16.2500 C   0  0  0  0  0  3  0  0  0  0  0  0
   -2.2970  -10.0270   15.4610 C   0  0  0  0  0  0  0  0  0  0  0  0
   -3.3430  -10.8400   15.6690 F   0  0  0  0  0  0  0  0  0  0  0  0
   -2.3400   -9.0330   14.4850 C   0  0  0  0  0  0  0  0  0  0  0  0
   -4.9950   -6.6450   11.1280 C   0  0  0  0  0  0  0  0  0  0  0  0
   -5.3600   -5.3890   11.6270 C   0  0  0  0  0  3  0  0  0  0  0  0
   -5.7250   -4.3650   10.7520 C   0  0  0  0  0  3  0  0  0  0  0  0
   -5.7280   -4.5900    9.3770 C   0  0  0  0  0  3  0  0  0  0  0  0
   -5.3630   -5.8380    8.8720 C   0  0  0  0  0  3  0  0  0  0  0  0
   -4.9950   -6.8630    9.7460 C   0  0  0  0  0  3  0  0  0  0  0  0
   -9.0250  -10.3890   10.9190 C   0  0  0  0  0  0  0  0  0  0  0  0
   -7.7910  -10.6520   10.2910 C   0  0  0  0  0  3  0  0  0  0  0  0
   -6.5810  -10.1700   10.8050 C   0  0  0  0  0  3  0  0  0  0  0  0
   -6.5480   -9.4120   11.9800 C   0  0  0  0  0  0  0  0  0  0  0  0
   -7.7550   -9.1450   12.6250 C   0  0  0  0  0  3  0  0  0  0  0  0
   -8.9650   -9.6290   12.1050 C   0  0  0  0  0  3  0  0  0  0  0  0
  -10.3880  -10.9200   10.3320 C   0  0  2  0  0  0  0  0  0  0  0  0
  -10.5560  -11.0670    8.7930 C   0  0  0  0  0  2  0  0  0  0  0  0
  -12.0810  -10.7500    8.9930 C   0  0  1  0  0  0  0  0  0  0  0  0
  -11.6160   -9.9620   10.2700 C   0  0  0  0  0  2  0  0  0  0  0  0
  -10.7160  -12.1900   11.0290 N   0  0  0  0  0  4  0  0  0  0  0  0
  -10.8330  -12.0580   12.0390 H   0  0  0  0  0  0  0  0  0  0  0  0
   -9.9910  -12.9010   10.8870 H   0  0  0  0  0  0  0  0  0  0  0  0
  -11.6070  -12.5730   10.6550 H   0  0  0  0  0  0  0  0  0  0  0  0
  -12.7500  -10.0030    7.8570 C   0  0  0  0  0  3  0  0  0  0  0  0
  -12.8570  -10.5540    6.4600 C   0  0  0  0  0  2  0  0  0  0  0  0
  -14.1000  -10.3080    7.2710 C   0  0  0  0  0  2  0  0  0  0  0  0
  -12.8260  -11.9450    9.3790 O   0  0  0  0  0  0  0  0  0  0  0  0
  -13.7520  -11.7530    9.1170 H   0  0  0  0  0  0  0  0  0  0  0  0
  1  2  1  0  0  0  0
  2  3  2  0  0  0  0
  3 14  1  0  0  0  0
  4  6  1  0  0  0  0
  4  3  1  0  0  0  0
  5  1  2  0  0  0  0
  5  4  1  0  0  0  0
  6  7  1  0  0  0  0
  7  8  1  0  0  0  0
  8 14  2  0  0  0  0
  8  9  1  0  0  0  0
  9 10  2  0  0  0  0
 10 11  1  0  0  0  0
 12 13  1  0  0  0  0
 12 11  2  0  0  0  0
 14 12  1  0  0  0  0
 15 16  1  0  0  0  0
 15  5  1  0  0  0  0
 17 16  2  0  0  0  0
 18 17  1  0  0  0  0
 19 18  2  0  0  0  0
 19 20  1  0  0  0  0
 20 15  2  0  0  0  0
 21 26  1  0  0  0  0
 22 23  1  0  0  0  0
 22 21  2  0  0  0  0
 23 24  2  0  0  0  0
 24  1  1  0  0  0  0
 24 25  1  0  0  0  0
 26 25  2  0  0  0  0
 27 21  1  0  0  0  0
 27 31  1  1  0  0  0
 28 29  1  0  0  0  0
 28 27  1  0  0  0  0
 29 38  1  1  0  0  0
 29 30  1  0  0  0  0
 30 27  1  0  0  0  0
 31 32  1  0  0  0  0
 33 31  1  0  0  0  0
 34 31  1  0  0  0  0
 35 29  1  0  0  0  0
 36 37  1  0  0  0  0
 36 35  1  0  0  0  0
 37 35  1  0  0  0  0
 39 38  1  0  0  0  0
M  END
>  <minimizedAffinity>
-5.63231659

$$$$
