
 OpenBabel11232420073D

 39 45  0  0  1  0  0  0  0  0999 V2000
   -4.6610   -6.7900   13.6200 C   0  0  0  0  0  0  0  0  0  0  0  0
   -3.3590   -6.9650   14.0430 N   0  0  0  0  0  0  0  0  0  0  0  0
   -3.1320   -6.0120   14.9170 C   0  0  0  0  0  0  0  0  0  0  0  0
   -4.2480   -5.2410   15.0870 N   0  0  0  0  0  0  0  0  0  0  0  0
   -5.2570   -5.7210   14.2800 C   0  0  0  0  0  0  0  0  0  0  0  0
   -4.3020   -4.2100   16.1050 C   0  0  0  0  0  2  0  0  0  0  0  0
   -3.0120   -3.6260   16.3800 O   0  0  0  0  0  0  0  0  0  0  0  0
   -1.9410   -4.4860   16.3830 C   0  0  0  0  0  0  0  0  0  0  0  0
   -0.8060   -4.0750   17.0840 C   0  0  0  0  0  3  0  0  0  0  0  0
    0.3310   -4.8860   17.1000 C   0  0  0  0  0  3  0  0  0  0  0  0
    0.3320   -6.0960   16.4060 C   0  0  0  0  0  3  0  0  0  0  0  0
   -0.7980   -6.4910   15.6920 C   0  0  0  0  0  0  0  0  0  0  0  0
   -0.7560   -7.6580   15.0320 F   0  0  0  0  0  0  0  0  0  0  0  0
   -1.9390   -5.6910   15.6680 C   0  0  0  0  0  0  0  0  0  0  0  0
   -6.6120   -5.1900   14.2780 C   0  0  0  0  0  0  0  0  0  0  0  0
   -7.4260   -5.3160   15.4110 C   0  0  0  0  0  3  0  0  0  0  0  0
   -8.7280   -4.8140   15.3990 C   0  0  0  0  0  3  0  0  0  0  0  0
   -9.2230   -4.1860   14.2590 C   0  0  0  0  0  3  0  0  0  0  0  0
   -8.4180   -4.0550   13.1270 C   0  0  0  0  0  3  0  0  0  0  0  0
   -7.1140   -4.5530   13.1380 C   0  0  0  0  0  3  0  0  0  0  0  0
   -6.2960   -9.5640   10.7400 C   0  0  0  0  0  0  0  0  0  0  0  0
   -6.2770   -9.8280   12.1240 C   0  0  0  0  0  3  0  0  0  0  0  0
   -5.7580   -8.9120   13.0460 C   0  0  0  0  0  3  0  0  0  0  0  0
   -5.2450   -7.6810   12.6290 C   0  0  0  0  0  0  0  0  0  0  0  0
   -5.2600   -7.3900   11.2650 C   0  0  0  0  0  3  0  0  0  0  0  0
   -5.7790   -8.3120   10.3440 C   0  0  0  0  0  3  0  0  0  0  0  0
   -6.8670  -10.6010    9.7000 C   0  0  2  0  0  0  0  0  0  0  0  0
   -7.4250  -11.9630   10.2020 C   0  0  0  0  0  2  0  0  0  0  0  0
   -6.9530  -12.5850    8.8400 C   0  0  1  0  0  0  0  0  0  0  0  0
   -5.8770  -11.4410    8.8390 C   0  0  0  0  0  2  0  0  0  0  0  0
   -7.8650   -9.8930    8.8570 N   0  0  0  0  0  4  0  0  0  0  0  0
   -7.4490   -9.1150    8.3360 H   0  0  0  0  0  0  0  0  0  0  0  0
   -8.6390   -9.5180    9.4160 H   0  0  0  0  0  0  0  0  0  0  0  0
   -8.2700  -10.5550    8.1670 H   0  0  0  0  0  0  0  0  0  0  0  0
   -6.5050  -14.0320    8.9000 C   0  0  0  0  0  3  0  0  0  0  0  0
   -7.4410  -15.1700    9.2090 C   0  0  0  0  0  2  0  0  0  0  0  0
   -6.7760  -15.0860    7.8630 C   0  0  0  0  0  2  0  0  0  0  0  0
   -7.9350  -12.3580    7.7830 O   0  0  0  0  0  0  0  0  0  0  0  0
   -7.7560  -13.0630    7.1250 H   0  0  0  0  0  0  0  0  0  0  0  0
  1  2  1  0  0  0  0
  1  5  2  0  0  0  0
  2  3  2  0  0  0  0
  3  4  1  0  0  0  0
  3 14  1  0  0  0  0
  4  6  1  0  0  0  0
  5  4  1  0  0  0  0
  6  7  1  0  0  0  0
  7  8  1  0  0  0  0
  8  9  1  0  0  0  0
  9 10  2  0  0  0  0
 11 10  1  0  0  0  0
 12 11  2  0  0  0  0
 13 12  1  0  0  0  0
 14 12  1  0  0  0  0
 14  8  2  0  0  0  0
 15  5  1  0  0  0  0
 15 16  1  0  0  0  0
 17 16  2  0  0  0  0
 18 17  1  0  0  0  0
 19 20  1  0  0  0  0
 19 18  2  0  0  0  0
 20 15  2  0  0  0  0
 21 22  1  0  0  0  0
 22 23  2  0  0  0  0
 24 23  1  0  0  0  0
 24  1  1  0  0  0  0
 25 24  2  0  0  0  0
 26 21  2  0  0  0  0
 26 25  1  0  0  0  0
 27 31  1  6  0  0  0
 27 28  1  0  0  0  0
 27 21  1  0  0  0  0
 29 38  1  6  0  0  0
 29 35  1  0  0  0  0
 29 28  1  0  0  0  0
 30 29  1  0  0  0  0
 30 27  1  0  0  0  0
 31 33  1  0  0  0  0
 32 31  1  0  0  0  0
 34 31  1  0  0  0  0
 35 36  1  0  0  0  0
 37 35  1  0  0  0  0
 37 36  1  0  0  0  0
 39 38  1  0  0  0  0
M  END
>  <minimizedAffinity>
-5.70993614

$$$$
