
 OpenBabel11232420073D

 39 45  0  0  1  0  0  0  0  0999 V2000
   -9.3570   -9.5910    9.2460 C   0  0  0  0  0  0  0  0  0  0  0  0
  -10.2000   -8.9610    8.3530 N   0  0  0  0  0  0  0  0  0  0  0  0
  -11.0440   -9.8800    7.9440 C   0  0  0  0  0  0  0  0  0  0  0  0
  -10.7860  -11.0750    8.5560 N   0  0  0  0  0  0  0  0  0  0  0  0
   -9.7180  -10.9240    9.4120 C   0  0  0  0  0  0  0  0  0  0  0  0
  -11.6670  -12.2140    8.3830 C   0  0  0  0  0  2  0  0  0  0  0  0
  -12.3240  -12.2250    7.0990 O   0  0  0  0  0  0  0  0  0  0  0  0
  -12.7340  -11.0070    6.6130 C   0  0  0  0  0  0  0  0  0  0  0  0
  -13.7490  -11.0210    5.6560 C   0  0  0  0  0  3  0  0  0  0  0  0
  -14.1910   -9.8200    5.0950 C   0  0  0  0  0  3  0  0  0  0  0  0
  -13.6080   -8.6150    5.4850 C   0  0  0  0  0  3  0  0  0  0  0  0
  -12.5810   -8.6100    6.4270 C   0  0  0  0  0  0  0  0  0  0  0  0
  -12.0410   -7.4310    6.7710 F   0  0  0  0  0  0  0  0  0  0  0  0
  -12.1310   -9.8010    6.9940 C   0  0  0  0  0  0  0  0  0  0  0  0
   -9.2320  -11.9770   10.2920 C   0  0  0  0  0  0  0  0  0  0  0  0
   -9.7110  -12.0830   11.6040 C   0  0  0  0  0  3  0  0  0  0  0  0
   -9.2340  -13.0870   12.4470 C   0  0  0  0  0  3  0  0  0  0  0  0
   -8.2770  -13.9890   11.9850 C   0  0  0  0  0  3  0  0  0  0  0  0
   -7.7970  -13.8910   10.6800 C   0  0  0  0  0  3  0  0  0  0  0  0
   -8.2750  -12.8880    9.8340 C   0  0  0  0  0  3  0  0  0  0  0  0
   -6.2750   -7.2910   11.2140 C   0  0  0  0  0  0  0  0  0  0  0  0
   -7.4720   -7.6650   11.8570 C   0  0  0  0  0  3  0  0  0  0  0  0
   -8.4540   -8.4240   11.2110 C   0  0  0  0  0  3  0  0  0  0  0  0
   -8.2800   -8.8570    9.8930 C   0  0  0  0  0  0  0  0  0  0  0  0
   -7.1000   -8.5080    9.2360 C   0  0  0  0  0  3  0  0  0  0  0  0
   -6.1200   -7.7460    9.8870 C   0  0  0  0  0  3  0  0  0  0  0  0
   -5.1750   -6.4240   11.9360 C   0  0  2  0  0  0  0  0  0  0  0  0
   -4.9480   -6.5920   13.4660 C   0  0  0  0  0  2  0  0  0  0  0  0
   -4.5410   -5.0760   13.5070 C   0  0  1  0  0  0  0  0  0  0  0  0
   -5.4690   -4.9260   12.2490 C   0  0  0  0  0  2  0  0  0  0  0  0
   -3.9040   -6.5900   11.1870 N   0  0  0  0  0  4  0  0  0  0  0  0
   -3.9810   -6.2650   10.2180 H   0  0  0  0  0  0  0  0  0  0  0  0
   -3.5980   -7.5690   11.1660 H   0  0  0  0  0  0  0  0  0  0  0  0
   -3.1530   -6.0390   11.6470 H   0  0  0  0  0  0  0  0  0  0  0  0
   -4.8870   -4.3380   14.7840 C   0  0  0  0  0  3  0  0  0  0  0  0
   -4.5560   -4.8650   16.1550 C   0  0  0  0  0  2  0  0  0  0  0  0
   -3.9240   -3.5910   15.6640 C   0  0  0  0  0  2  0  0  0  0  0  0
   -3.1420   -4.8920   13.1280 O   0  0  0  0  0  0  0  0  0  0  0  0
   -2.8890   -4.0350   13.5320 H   0  0  0  0  0  0  0  0  0  0  0  0
  1  5  2  0  0  0  0
  1 24  1  0  0  0  0
  2  1  1  0  0  0  0
  3  2  2  0  0  0  0
  3  4  1  0  0  0  0
  4  5  1  0  0  0  0
  5 15  1  0  0  0  0
  6  4  1  0  0  0  0
  7  6  1  0  0  0  0
  8 14  1  0  0  0  0
  8  7  1  0  0  0  0
  9  8  2  0  0  0  0
 10 11  2  0  0  0  0
 10  9  1  0  0  0  0
 11 12  1  0  0  0  0
 12 13  1  0  0  0  0
 12 14  2  0  0  0  0
 14  3  1  0  0  0  0
 15 16  1  0  0  0  0
 16 17  2  0  0  0  0
 18 17  1  0  0  0  0
 19 18  2  0  0  0  0
 20 15  2  0  0  0  0
 20 19  1  0  0  0  0
 21 22  1  0  0  0  0
 21 27  1  0  0  0  0
 23 22  2  0  0  0  0
 24 23  1  0  0  0  0
 25 26  1  0  0  0  0
 25 24  2  0  0  0  0
 26 21  2  0  0  0  0
 27 31  1  6  0  0  0
 27 30  1  0  0  0  0
 27 28  1  0  0  0  0
 28 29  1  0  0  0  0
 29 38  1  6  0  0  0
 29 35  1  0  0  0  0
 30 29  1  0  0  0  0
 31 34  1  0  0  0  0
 32 31  1  0  0  0  0
 33 31  1  0  0  0  0
 35 37  1  0  0  0  0
 35 36  1  0  0  0  0
 37 36  1  0  0  0  0
 38 39  1  0  0  0  0
M  END
>  <minimizedAffinity>
-5.19182301

$$$$
