
 OpenBabel11232419433D

 41 46  0  0  1  0  0  0  0  0999 V2000
   58.8380  -42.0340   16.6490 C   0  0  0  0  0  0  0  0  0  0  0  0
   58.4430  -41.5320   17.8770 N   0  0  0  0  0  0  0  0  0  0  0  0
   57.1720  -41.8370   17.9980 C   0  0  0  0  0  0  0  0  0  0  0  0
   56.7160  -42.4720   16.8800 N   0  0  0  0  0  0  0  0  0  0  0  0
   57.7680  -42.6550   16.0100 C   0  0  0  0  0  0  0  0  0  0  0  0
   55.3820  -43.0380   16.8130 C   0  0  0  0  0  2  0  0  0  0  0  0
   54.4420  -42.4240   17.7230 O   0  0  0  0  0  0  0  0  0  0  0  0
   54.9340  -42.0000   18.9310 C   0  0  0  0  0  0  0  0  0  0  0  0
   54.0150  -41.8590   19.9740 C   0  0  0  0  0  3  0  0  0  0  0  0
   54.4500  -41.4150   21.2290 C   0  0  0  0  0  0  0  0  0  0  0  0
   55.8010  -41.0730   21.4090 C   0  0  0  0  0  3  0  0  0  0  0  0
   56.7120  -41.1910   20.3560 C   0  0  0  0  0  3  0  0  0  0  0  0
   56.2780  -41.6620   19.1180 C   0  0  0  0  0  0  0  0  0  0  0  0
   62.9830  -41.9850   15.3210 C   0  0  0  0  0  0  0  0  0  0  0  0
   62.3620  -43.1200   15.8890 C   0  0  0  0  0  3  0  0  0  0  0  0
   61.0270  -43.1100   16.3240 C   0  0  0  0  0  3  0  0  0  0  0  0
   60.2360  -41.9610   16.2310 C   0  0  0  0  0  0  0  0  0  0  0  0
   60.8410  -40.8090   15.7360 C   0  0  0  0  0  3  0  0  0  0  0  0
   62.1720  -40.8280   15.2870 C   0  0  0  0  0  3  0  0  0  0  0  0
   66.4930  -43.5570   12.4610 C   0  0  0  0  0  1  0  0  0  0  0  0
   65.1640  -43.3280   13.1670 C   0  0  1  0  0  0  0  0  0  0  0  0
   65.2820  -43.3080   14.7110 C   0  0  0  0  0  2  0  0  0  0  0  0
   64.4880  -41.9710   14.7470 C   0  0  1  0  0  0  0  0  0  0  0  0
   64.6920  -41.8530   13.2110 C   0  0  0  0  0  2  0  0  0  0  0  0
   65.2820  -40.9370   15.4620 N   0  0  0  0  0  4  0  0  0  0  0  0
   64.9270  -39.9920   15.2660 H   0  0  0  0  0  0  0  0  0  0  0  0
   65.2350  -41.0820   16.4800 H   0  0  0  0  0  0  0  0  0  0  0  0
   66.2760  -40.9440   15.2030 H   0  0  0  0  0  0  0  0  0  0  0  0
   64.1850  -44.2580   12.6690 O   0  0  0  0  0  0  0  0  0  0  0  0
   64.2090  -44.2040   11.6950 H   0  0  0  0  0  0  0  0  0  0  0  0
   57.6590  -43.4590   14.8000 C   0  0  0  0  0  0  0  0  0  0  0  0
   58.3590  -43.1000   13.6420 C   0  0  0  0  0  3  0  0  0  0  0  0
   58.2380  -43.8700   12.4840 C   0  0  0  0  0  3  0  0  0  0  0  0
   57.4200  -45.0000   12.4780 C   0  0  0  0  0  3  0  0  0  0  0  0
   56.7210  -45.3620   13.6290 C   0  0  0  0  0  3  0  0  0  0  0  0
   56.8400  -44.5950   14.7870 C   0  0  0  0  0  3  0  0  0  0  0  0
   53.5400  -41.2760   22.4010 C   0  0  0  0  0  0  0  0  0  0  0  0
   53.7120  -40.2100   23.2370 N   0  0  0  0  0  0  0  0  0  0  0  0
   52.6390  -42.0800   22.6040 O   0  0  0  0  0  0  0  0  0  0  0  0
   53.0720  -40.1380   24.0180 H   0  0  0  0  0  0  0  0  0  0  0  0
   54.3850  -39.4700   23.1120 H   0  0  0  0  0  0  0  0  0  0  0  0
  1  2  1  0  0  0  0
  2  3  2  0  0  0  0
  3 13  1  0  0  0  0
  4  3  1  0  0  0  0
  5  1  2  0  0  0  0
  5  4  1  0  0  0  0
  6  4  1  0  0  0  0
  6  7  1  0  0  0  0
  7  8  1  0  0  0  0
  8 13  2  0  0  0  0
  8  9  1  0  0  0  0
  9 10  2  0  0  0  0
 10 11  1  0  0  0  0
 10 37  1  0  0  0  0
 12 11  2  0  0  0  0
 13 12  1  0  0  0  0
 14 15  1  0  0  0  0
 15 16  2  0  0  0  0
 17 16  1  0  0  0  0
 17  1  1  0  0  0  0
 18 17  2  0  0  0  0
 19 14  2  0  0  0  0
 19 18  1  0  0  0  0
 21 20  1  6  0  0  0
 21 24  1  0  0  0  0
 21 22  1  0  0  0  0
 22 23  1  0  0  0  0
 23 14  1  0  0  0  0
 23 25  1  1  0  0  0
 24 23  1  0  0  0  0
 25 27  1  0  0  0  0
 26 25  1  0  0  0  0
 28 25  1  0  0  0  0
 29 21  1  0  0  0  0
 30 29  1  0  0  0  0
 31  5  1  0  0  0  0
 32 31  2  0  0  0  0
 33 32  1  0  0  0  0
 34 33  2  0  0  0  0
 34 35  1  0  0  0  0
 35 36  2  0  0  0  0
 36 31  1  0  0  0  0
 37 39  2  0  0  0  0
 37 38  1  0  0  0  0
 38 40  1  0  0  0  0
 41 38  1  0  0  0  0
M  END
>  <minimizedAffinity>
-2.07506704

$$$$
