
 OpenBabel11232419433D

 41 46  0  0  1  0  0  0  0  0999 V2000
   59.3470  -42.2050   17.1000 C   0  0  0  0  0  0  0  0  0  0  0  0
   59.9580  -42.9360   16.0960 N   0  0  0  0  0  0  0  0  0  0  0  0
   61.1430  -42.3970   15.9300 C   0  0  0  0  0  0  0  0  0  0  0  0
   61.3060  -41.3190   16.7490 N   0  0  0  0  0  0  0  0  0  0  0  0
   60.1910  -41.1910   17.5470 C   0  0  0  0  0  0  0  0  0  0  0  0
   62.5780  -40.6290   16.8610 C   0  0  0  0  0  2  0  0  0  0  0  0
   63.4300  -40.7870   15.7050 O   0  0  0  0  0  0  0  0  0  0  0  0
   63.3720  -41.9900   15.0480 C   0  0  0  0  0  0  0  0  0  0  0  0
   64.4760  -42.3390   14.2680 C   0  0  0  0  0  3  0  0  0  0  0  0
   64.4730  -43.5490   13.5610 C   0  0  0  0  0  0  0  0  0  0  0  0
   63.3380  -44.3740   13.6110 C   0  0  0  0  0  3  0  0  0  0  0  0
   62.2250  -44.0090   14.3730 C   0  0  0  0  0  3  0  0  0  0  0  0
   62.2460  -42.8190   15.0980 C   0  0  0  0  0  0  0  0  0  0  0  0
   55.5270  -43.4020   18.8090 C   0  0  0  0  0  0  0  0  0  0  0  0
   56.7450  -44.0560   19.0950 C   0  0  0  0  0  3  0  0  0  0  0  0
   57.9650  -43.6620   18.5220 C   0  0  0  0  0  3  0  0  0  0  0  0
   58.0390  -42.6000   17.6160 C   0  0  0  0  0  0  0  0  0  0  0  0
   56.8440  -41.9780   17.2650 C   0  0  0  0  0  3  0  0  0  0  0  0
   55.6280  -42.3660   17.8540 C   0  0  0  0  0  3  0  0  0  0  0  0
   52.6190  -44.0060   22.5700 C   0  0  0  0  0  1  0  0  0  0  0  0
   53.7980  -43.6950   21.6590 C   0  0  1  0  0  0  0  0  0  0  0  0
   54.1050  -44.8240   20.6440 C   0  0  0  0  0  2  0  0  0  0  0  0
   54.1180  -43.7750   19.4940 C   0  0  1  0  0  0  0  0  0  0  0  0
   53.4780  -42.7520   20.4730 C   0  0  0  0  0  2  0  0  0  0  0  0
   53.1450  -44.1750   18.4430 N   0  0  0  0  0  4  0  0  0  0  0  0
   52.9230  -43.3870   17.8210 H   0  0  0  0  0  0  0  0  0  0  0  0
   53.5290  -44.9320   17.8610 H   0  0  0  0  0  0  0  0  0  0  0  0
   52.2550  -44.5130   18.8290 H   0  0  0  0  0  0  0  0  0  0  0  0
   54.9310  -43.3000   22.4530 O   0  0  0  0  0  0  0  0  0  0  0  0
   54.6220  -42.6060   23.0660 H   0  0  0  0  0  0  0  0  0  0  0  0
   60.1190  -40.2500   18.6560 C   0  0  0  0  0  0  0  0  0  0  0  0
   60.3850  -38.8910   18.4530 C   0  0  0  0  0  3  0  0  0  0  0  0
   60.3260  -37.9980   19.5240 C   0  0  0  0  0  3  0  0  0  0  0  0
   60.0000  -38.4570   20.8000 C   0  0  0  0  0  3  0  0  0  0  0  0
   59.7330  -39.8100   21.0080 C   0  0  0  0  0  3  0  0  0  0  0  0
   59.7920  -40.7040   19.9390 C   0  0  0  0  0  3  0  0  0  0  0  0
   65.6270  -44.0100   12.7380 C   0  0  0  0  0  0  0  0  0  0  0  0
   65.6880  -45.3270   12.3800 N   0  0  0  0  0  0  0  0  0  0  0  0
   66.4930  -43.2290   12.3640 O   0  0  0  0  0  0  0  0  0  0  0  0
   66.4780  -45.6060   11.8130 H   0  0  0  0  0  0  0  0  0  0  0  0
   64.9910  -46.0230   12.5900 H   0  0  0  0  0  0  0  0  0  0  0  0
  1  5  2  0  0  0  0
  1 17  1  0  0  0  0
  2  1  1  0  0  0  0
  3  2  2  0  0  0  0
  3  4  1  0  0  0  0
  4  6  1  0  0  0  0
  4  5  1  0  0  0  0
  5 31  1  0  0  0  0
  7  6  1  0  0  0  0
  8 13  1  0  0  0  0
  8  7  1  0  0  0  0
  9  8  2  0  0  0  0
 10 11  2  0  0  0  0
 10  9  1  0  0  0  0
 11 12  1  0  0  0  0
 12 13  2  0  0  0  0
 13  3  1  0  0  0  0
 14 15  1  0  0  0  0
 14 23  1  0  0  0  0
 16 15  2  0  0  0  0
 17 16  1  0  0  0  0
 18 17  2  0  0  0  0
 18 19  1  0  0  0  0
 19 14  2  0  0  0  0
 21 29  1  0  0  0  0
 21 20  1  1  0  0  0
 22 21  1  0  0  0  0
 23 25  1  6  0  0  0
 23 24  1  0  0  0  0
 23 22  1  0  0  0  0
 24 21  1  0  0  0  0
 25 28  1  0  0  0  0
 26 25  1  0  0  0  0
 27 25  1  0  0  0  0
 29 30  1  0  0  0  0
 31 36  1  0  0  0  0
 32 31  2  0  0  0  0
 32 33  1  0  0  0  0
 33 34  2  0  0  0  0
 34 35  1  0  0  0  0
 36 35  2  0  0  0  0
 37 10  1  0  0  0  0
 38 41  1  0  0  0  0
 38 37  1  0  0  0  0
 39 37  2  0  0  0  0
 40 38  1  0  0  0  0
M  END
>  <minimizedAffinity>
-4.65943575

$$$$
