
 OpenBabel11232419433D

 41 46  0  0  1  0  0  0  0  0999 V2000
   59.3470  -42.2050   17.1000 C   0  0  0  0  0  0  0  0  0  0  0  0
   59.9580  -42.9360   16.0960 N   0  0  0  0  0  0  0  0  0  0  0  0
   61.1430  -42.3970   15.9300 C   0  0  0  0  0  0  0  0  0  0  0  0
   61.3060  -41.3190   16.7490 N   0  0  0  0  0  0  0  0  0  0  0  0
   60.1910  -41.1910   17.5470 C   0  0  0  0  0  0  0  0  0  0  0  0
   62.5780  -40.6290   16.8610 C   0  0  0  0  0  2  0  0  0  0  0  0
   63.4300  -40.7870   15.7050 O   0  0  0  0  0  0  0  0  0  0  0  0
   63.3720  -41.9900   15.0480 C   0  0  0  0  0  0  0  0  0  0  0  0
   64.4760  -42.3390   14.2680 C   0  0  0  0  0  3  0  0  0  0  0  0
   64.4730  -43.5490   13.5610 C   0  0  0  0  0  0  0  0  0  0  0  0
   63.3380  -44.3740   13.6110 C   0  0  0  0  0  3  0  0  0  0  0  0
   62.2250  -44.0090   14.3730 C   0  0  0  0  0  3  0  0  0  0  0  0
   62.2460  -42.8190   15.0980 C   0  0  0  0  0  0  0  0  0  0  0  0
   55.5270  -43.4020   18.8090 C   0  0  0  0  0  0  0  0  0  0  0  0
   56.7450  -44.0560   19.0950 C   0  0  0  0  0  3  0  0  0  0  0  0
   57.9650  -43.6620   18.5220 C   0  0  0  0  0  3  0  0  0  0  0  0
   58.0390  -42.6000   17.6160 C   0  0  0  0  0  0  0  0  0  0  0  0
   56.8440  -41.9780   17.2650 C   0  0  0  0  0  3  0  0  0  0  0  0
   55.6280  -42.3660   17.8540 C   0  0  0  0  0  3  0  0  0  0  0  0
   52.6190  -44.0060   22.5700 C   0  0  0  0  0  1  0  0  0  0  0  0
   53.7980  -43.6950   21.6590 C   0  0  1  0  0  0  0  0  0  0  0  0
   54.1050  -44.8240   20.6440 C   0  0  0  0  0  2  0  0  0  0  0  0
   54.1180  -43.7750   19.4940 C   0  0  1  0  0  0  0  0  0  0  0  0
   53.4780  -42.7520   20.4730 C   0  0  0  0  0  2  0  0  0  0  0  0
   53.1450  -44.1750   18.4430 N   0  0  0  0  0  4  0  0  0  0  0  0
   52.9230  -43.3870   17.8210 H   0  0  0  0  0  0  0  0  0  0  0  0
   53.5290  -44.9320   17.8610 H   0  0  0  0  0  0  0  0  0  0  0  0
   52.2550  -44.5130   18.8290 H   0  0  0  0  0  0  0  0  0  0  0  0
   54.9310  -43.3000   22.4530 O   0  0  0  0  0  0  0  0  0  0  0  0
   54.6220  -42.6060   23.0660 H   0  0  0  0  0  0  0  0  0  0  0  0
   60.1190  -40.2500   18.6560 C   0  0  0  0  0  0  0  0  0  0  0  0
   60.3850  -38.8910   18.4530 C   0  0  0  0  0  3  0  0  0  0  0  0
   60.3260  -37.9980   19.5240 C   0  0  0  0  0  3  0  0  0  0  0  0
   60.0000  -38.4570   20.8000 C   0  0  0  0  0  3  0  0  0  0  0  0
   59.7330  -39.8100   21.0080 C   0  0  0  0  0  3  0  0  0  0  0  0
   59.7920  -40.7040   19.9390 C   0  0  0  0  0  3  0  0  0  0  0  0
   65.6270  -44.0100   12.7380 C   0  0  0  0  0  0  0  0  0  0  0  0
   65.6880  -45.3270   12.3800 N   0  0  0  0  0  0  0  0  0  0  0  0
   66.4930  -43.2290   12.3640 O   0  0  0  0  0  0  0  0  0  0  0  0
   66.4780  -45.6060   11.8130 H   0  0  0  0  0  0  0  0  0  0  0  0
   64.9910  -46.0230   12.5900 H   0  0  0  0  0  0  0  0  0  0  0  0
  1  5  2  0  0  0  0
  1 17  1  0  0  0  0
  2  1  1  0  0  0  0
  3  2  2  0  0  0  0
  3  4  1  0  0  0  0
  4  6  1  0  0  0  0
  4  5  1  0  0  0  0
  5 31  1  0  0  0  0
  7  6  1  0  0  0  0
  8 13  1  0  0  0  0
  8  7  1  0  0  0  0
  9  8  2  0  0  0  0
 10 11  2  0  0  0  0
 10  9  1  0  0  0  0
 11 12  1  0  0  0  0
 12 13  2  0  0  0  0
 13  3  1  0  0  0  0
 14 15  1  0  0  0  0
 14 23  1  0  0  0  0
 16 15  2  0  0  0  0
 17 16  1  0  0  0  0
 18 17  2  0  0  0  0
 18 19  1  0  0  0  0
 19 14  2  0  0  0  0
 21 29  1  0  0  0  0
 21 20  1  1  0  0  0
 22 21  1  0  0  0  0
 23 25  1  6  0  0  0
 23 24  1  0  0  0  0
 23 22  1  0  0  0  0
 24 21  1  0  0  0  0
 25 28  1  0  0  0  0
 26 25  1  0  0  0  0
 27 25  1  0  0  0  0
 29 30  1  0  0  0  0
 31 36  1  0  0  0  0
 32 31  2  0  0  0  0
 32 33  1  0  0  0  0
 33 34  2  0  0  0  0
 34 35  1  0  0  0  0
 36 35  2  0  0  0  0
 37 10  1  0  0  0  0
 38 41  1  0  0  0  0
 38 37  1  0  0  0  0
 39 37  2  0  0  0  0
 40 38  1  0  0  0  0
M  END
>  <minimizedAffinity>
-4.65943575

$$$$

 OpenBabel11232419433D

 41 46  0  0  1  0  0  0  0  0999 V2000
   58.5160  -43.4710   16.9000 C   0  0  0  0  0  0  0  0  0  0  0  0
   59.8920  -43.4220   17.0380 N   0  0  0  0  0  0  0  0  0  0  0  0
   60.3770  -43.4560   15.8190 C   0  0  0  0  0  0  0  0  0  0  0  0
   59.3760  -43.5730   14.9000 N   0  0  0  0  0  0  0  0  0  0  0  0
   58.1640  -43.5420   15.5540 C   0  0  0  0  0  0  0  0  0  0  0  0
   59.6330  -43.4940   13.4740 C   0  0  0  0  0  2  0  0  0  0  0  0
   60.9870  -43.8370   13.1060 O   0  0  0  0  0  0  0  0  0  0  0  0
   61.9780  -43.4910   13.9900 C   0  0  0  0  0  0  0  0  0  0  0  0
   63.2710  -43.3690   13.4750 C   0  0  0  0  0  3  0  0  0  0  0  0
   64.3300  -43.0320   14.3280 C   0  0  0  0  0  0  0  0  0  0  0  0
   64.0840  -42.8670   15.7010 C   0  0  0  0  0  3  0  0  0  0  0  0
   62.7940  -43.0150   16.2160 C   0  0  0  0  0  3  0  0  0  0  0  0
   61.7380  -43.3200   15.3570 C   0  0  0  0  0  0  0  0  0  0  0  0
   56.0370  -43.2250   20.4680 C   0  0  0  0  0  0  0  0  0  0  0  0
   56.5460  -44.4400   19.9580 C   0  0  0  0  0  3  0  0  0  0  0  0
   57.3330  -44.4990   18.7970 C   0  0  0  0  0  3  0  0  0  0  0  0
   57.6460  -43.3480   18.0670 C   0  0  0  0  0  0  0  0  0  0  0  0
   57.1040  -42.1450   18.5100 C   0  0  0  0  0  3  0  0  0  0  0  0
   56.3300  -42.0900   19.6810 C   0  0  0  0  0  3  0  0  0  0  0  0
   52.6190  -41.3160   23.2320 C   0  0  0  0  0  1  0  0  0  0  0  0
   53.5540  -41.6680   22.0850 C   0  0  1  0  0  0  0  0  0  0  0  0
   55.0470  -41.7030   22.4970 C   0  0  0  0  0  2  0  0  0  0  0  0
   55.1890  -43.1030   21.8330 C   0  0  1  0  0  0  0  0  0  0  0  0
   53.6390  -43.1780   21.7490 C   0  0  0  0  0  2  0  0  0  0  0  0
   55.7080  -44.0780   22.8280 N   0  0  0  0  0  4  0  0  0  0  0  0
   55.5520  -45.0460   22.5190 H   0  0  0  0  0  0  0  0  0  0  0  0
   56.7210  -43.9540   22.9650 H   0  0  0  0  0  0  0  0  0  0  0  0
   55.2660  -43.9820   23.7510 H   0  0  0  0  0  0  0  0  0  0  0  0
   53.2800  -40.8160   20.9590 O   0  0  0  0  0  0  0  0  0  0  0  0
   52.3170  -40.8520   20.8010 H   0  0  0  0  0  0  0  0  0  0  0  0
   56.8910  -43.4660   14.8500 C   0  0  0  0  0  0  0  0  0  0  0  0
   56.3090  -42.2250   14.5660 C   0  0  0  0  0  3  0  0  0  0  0  0
   55.0820  -42.1620   13.9020 C   0  0  0  0  0  3  0  0  0  0  0  0
   54.4330  -43.3360   13.5210 C   0  0  0  0  0  3  0  0  0  0  0  0
   55.0080  -44.5750   13.8020 C   0  0  0  0  0  3  0  0  0  0  0  0
   56.2340  -44.6400   14.4650 C   0  0  0  0  0  3  0  0  0  0  0  0
   65.7290  -42.8460   13.8490 C   0  0  0  0  0  0  0  0  0  0  0  0
   66.2350  -41.5780   13.7910 N   0  0  0  0  0  0  0  0  0  0  0  0
   66.4260  -43.8030   13.5360 O   0  0  0  0  0  0  0  0  0  0  0  0
   67.1910  -41.4860   13.4720 H   0  0  0  0  0  0  0  0  0  0  0  0
   65.7560  -40.7430   14.0860 H   0  0  0  0  0  0  0  0  0  0  0  0
  1  2  1  0  0  0  0
  1 17  1  0  0  0  0
  3  2  2  0  0  0  0
  4  5  1  0  0  0  0
  4  3  1  0  0  0  0
  5  1  2  0  0  0  0
  6  4  1  0  0  0  0
  7  6  1  0  0  0  0
  7  8  1  0  0  0  0
  8 13  1  0  0  0  0
  9  8  2  0  0  0  0
  9 10  1  0  0  0  0
 10 11  2  0  0  0  0
 11 12  1  0  0  0  0
 13  3  1  0  0  0  0
 13 12  2  0  0  0  0
 14 23  1  0  0  0  0
 15 14  1  0  0  0  0
 16 15  2  0  0  0  0
 17 18  2  0  0  0  0
 17 16  1  0  0  0  0
 18 19  1  0  0  0  0
 19 14  2  0  0  0  0
 21 22  1  0  0  0  0
 21 20  1  1  0  0  0
 23 22  1  0  0  0  0
 23 25  1  1  0  0  0
 24 23  1  0  0  0  0
 24 21  1  0  0  0  0
 25 27  1  0  0  0  0
 25 28  1  0  0  0  0
 26 25  1  0  0  0  0
 29 21  1  0  0  0  0
 30 29  1  0  0  0  0
 31  5  1  0  0  0  0
 32 31  1  0  0  0  0
 33 32  2  0  0  0  0
 34 35  2  0  0  0  0
 34 33  1  0  0  0  0
 35 36  1  0  0  0  0
 36 31  2  0  0  0  0
 37 10  1  0  0  0  0
 38 37  1  0  0  0  0
 38 41  1  0  0  0  0
 39 37  2  0  0  0  0
 40 38  1  0  0  0  0
M  END
>  <minimizedAffinity>
-3.80376911

$$$$

 OpenBabel11232419433D

 41 46  0  0  1  0  0  0  0  0999 V2000
   57.9460  -42.5660   16.5590 C   0  0  0  0  0  0  0  0  0  0  0  0
   59.2400  -42.2920   16.9660 N   0  0  0  0  0  0  0  0  0  0  0  0
   60.0040  -43.1640   16.3510 C   0  0  0  0  0  0  0  0  0  0  0  0
   59.2540  -44.0210   15.5990 N   0  0  0  0  0  0  0  0  0  0  0  0
   57.9320  -43.6410   15.6730 C   0  0  0  0  0  0  0  0  0  0  0  0
   59.8650  -44.9930   14.7110 C   0  0  0  0  0  2  0  0  0  0  0  0
   61.2130  -45.3560   15.0830 O   0  0  0  0  0  0  0  0  0  0  0  0
   61.9900  -44.3740   15.6420 C   0  0  0  0  0  0  0  0  0  0  0  0
   63.3740  -44.5410   15.5640 C   0  0  0  0  0  3  0  0  0  0  0  0
   64.2230  -43.5800   16.1280 C   0  0  0  0  0  0  0  0  0  0  0  0
   63.6680  -42.4820   16.8060 C   0  0  0  0  0  3  0  0  0  0  0  0
   62.2820  -42.3320   16.9040 C   0  0  0  0  0  3  0  0  0  0  0  0
   61.4430  -43.2760   16.3140 C   0  0  0  0  0  0  0  0  0  0  0  0
   54.7690  -39.9020   17.8800 C   0  0  0  0  0  0  0  0  0  0  0  0
   55.8700  -40.2580   18.6890 C   0  0  0  0  0  3  0  0  0  0  0  0
   56.8780  -41.1310   18.2480 C   0  0  0  0  0  3  0  0  0  0  0  0
   56.8380  -41.7120   16.9770 C   0  0  0  0  0  0  0  0  0  0  0  0
   55.7310  -41.4290   16.1820 C   0  0  0  0  0  3  0  0  0  0  0  0
   54.7330  -40.5430   16.6220 C   0  0  0  0  0  3  0  0  0  0  0  0
   52.7160  -35.5710   17.9200 C   0  0  0  0  0  1  0  0  0  0  0  0
   53.6220  -36.7660   17.6560 C   0  0  1  0  0  0  0  0  0  0  0  0
   54.0650  -37.4980   18.9470 C   0  0  0  0  0  2  0  0  0  0  0  0
   53.6280  -38.8530   18.3190 C   0  0  1  0  0  0  0  0  0  0  0  0
   52.8900  -38.0550   17.2080 C   0  0  0  0  0  2  0  0  0  0  0  0
   52.6520  -39.5280   19.2160 N   0  0  0  0  0  4  0  0  0  0  0  0
   52.1390  -40.2670   18.7200 H   0  0  0  0  0  0  0  0  0  0  0  0
   53.1330  -39.9640   20.0140 H   0  0  0  0  0  0  0  0  0  0  0  0
   51.9510  -38.8830   19.6030 H   0  0  0  0  0  0  0  0  0  0  0  0
   54.7130  -36.3670   16.8080 O   0  0  0  0  0  0  0  0  0  0  0  0
   54.3240  -35.9010   16.0430 H   0  0  0  0  0  0  0  0  0  0  0  0
   56.8940  -44.2380   14.8440 C   0  0  0  0  0  0  0  0  0  0  0  0
   55.7340  -44.7630   15.4260 C   0  0  0  0  0  3  0  0  0  0  0  0
   54.7500  -45.3440   14.6250 C   0  0  0  0  0  3  0  0  0  0  0  0
   54.9190  -45.4030   13.2420 C   0  0  0  0  0  3  0  0  0  0  0  0
   56.0720  -44.8800   12.6570 C   0  0  0  0  0  3  0  0  0  0  0  0
   57.0570  -44.2990   13.4550 C   0  0  0  0  0  3  0  0  0  0  0  0
   65.7090  -43.6670   16.0530 C   0  0  0  0  0  0  0  0  0  0  0  0
   66.4510  -42.8810   16.8890 N   0  0  0  0  0  0  0  0  0  0  0  0
   66.2620  -44.4400   15.2820 O   0  0  0  0  0  0  0  0  0  0  0  0
   67.4570  -42.9700   16.8210 H   0  0  0  0  0  0  0  0  0  0  0  0
   66.0810  -42.2640   17.5950 H   0  0  0  0  0  0  0  0  0  0  0  0
  1  2  1  0  0  0  0
  1 17  1  0  0  0  0
  3  2  2  0  0  0  0
  4  5  1  0  0  0  0
  4  3  1  0  0  0  0
  5  1  2  0  0  0  0
  6  7  1  0  0  0  0
  6  4  1  0  0  0  0
  7  8  1  0  0  0  0
  8 13  1  0  0  0  0
  9  8  2  0  0  0  0
  9 10  1  0  0  0  0
 10 11  2  0  0  0  0
 11 12  1  0  0  0  0
 13  3  1  0  0  0  0
 13 12  2  0  0  0  0
 14 23  1  0  0  0  0
 14 15  1  0  0  0  0
 16 15  2  0  0  0  0
 17 16  1  0  0  0  0
 18 19  1  0  0  0  0
 18 17  2  0  0  0  0
 19 14  2  0  0  0  0
 21 20  1  1  0  0  0
 21 22  1  0  0  0  0
 23 22  1  0  0  0  0
 23 25  1  1  0  0  0
 24 21  1  0  0  0  0
 24 23  1  0  0  0  0
 25 28  1  0  0  0  0
 25 27  1  0  0  0  0
 26 25  1  0  0  0  0
 29 21  1  0  0  0  0
 30 29  1  0  0  0  0
 31 32  1  0  0  0  0
 31  5  1  0  0  0  0
 33 32  2  0  0  0  0
 34 33  1  0  0  0  0
 35 34  2  0  0  0  0
 35 36  1  0  0  0  0
 36 31  2  0  0  0  0
 37 10  1  0  0  0  0
 37 38  1  0  0  0  0
 38 41  1  0  0  0  0
 39 37  2  0  0  0  0
 40 38  1  0  0  0  0
M  END
>  <minimizedAffinity>
-3.16660094

$$$$

 OpenBabel11232419433D

 41 46  0  0  1  0  0  0  0  0999 V2000
   57.8760  -44.4170   16.0150 C   0  0  0  0  0  0  0  0  0  0  0  0
   59.2260  -44.5910   16.2680 N   0  0  0  0  0  0  0  0  0  0  0  0
   59.8310  -44.4360   15.1140 C   0  0  0  0  0  0  0  0  0  0  0  0
   58.9270  -44.2160   14.1160 N   0  0  0  0  0  0  0  0  0  0  0  0
   57.6640  -44.1530   14.6640 C   0  0  0  0  0  0  0  0  0  0  0  0
   59.3430  -43.8750   12.7680 C   0  0  0  0  0  2  0  0  0  0  0  0
   60.6790  -44.3190   12.4410 O   0  0  0  0  0  0  0  0  0  0  0  0
   61.6030  -44.3090   13.4550 C   0  0  0  0  0  0  0  0  0  0  0  0
   62.9490  -44.2640   13.0830 C   0  0  0  0  0  3  0  0  0  0  0  0
   63.9430  -44.2660   14.0700 C   0  0  0  0  0  0  0  0  0  0  0  0
   63.5730  -44.3600   15.4220 C   0  0  0  0  0  3  0  0  0  0  0  0
   62.2260  -44.4300   15.7880 C   0  0  0  0  0  3  0  0  0  0  0  0
   61.2400  -44.3980   14.8030 C   0  0  0  0  0  0  0  0  0  0  0  0
   55.0130  -44.2450   19.2880 C   0  0  0  0  0  0  0  0  0  0  0  0
   56.2420  -43.5490   19.2930 C   0  0  0  0  0  3  0  0  0  0  0  0
   57.1580  -43.6290   18.2330 C   0  0  0  0  0  3  0  0  0  0  0  0
   56.9080  -44.4220   17.1080 C   0  0  0  0  0  0  0  0  0  0  0  0
   55.7340  -45.1700   17.1040 C   0  0  0  0  0  3  0  0  0  0  0  0
   54.8130  -45.0730   18.1610 C   0  0  0  0  0  3  0  0  0  0  0  0
   53.0920  -42.2360   23.1930 C   0  0  0  0  0  1  0  0  0  0  0  0
   53.9620  -42.5720   21.9890 C   0  0  1  0  0  0  0  0  0  0  0  0
   54.3800  -44.0630   21.9290 C   0  0  0  0  0  2  0  0  0  0  0  0
   53.9030  -44.1280   20.4490 C   0  0  1  0  0  0  0  0  0  0  0  0
   53.1920  -42.7620   20.6590 C   0  0  0  0  0  2  0  0  0  0  0  0
   52.9050  -45.2200   20.2940 N   0  0  0  0  0  4  0  0  0  0  0  0
   52.3710  -45.1150   19.4220 H   0  0  0  0  0  0  0  0  0  0  0  0
   53.3710  -46.1370   20.2660 H   0  0  0  0  0  0  0  0  0  0  0  0
   52.2240  -45.2520   21.0620 H   0  0  0  0  0  0  0  0  0  0  0  0
   55.0660  -41.6530   21.9200 O   0  0  0  0  0  0  0  0  0  0  0  0
   54.6940  -40.7530   21.9870 H   0  0  0  0  0  0  0  0  0  0  0  0
   56.4920  -43.7540   13.8970 C   0  0  0  0  0  0  0  0  0  0  0  0
   56.1600  -42.4010   13.7590 C   0  0  0  0  0  3  0  0  0  0  0  0
   55.0270  -42.0280   13.0330 C   0  0  0  0  0  3  0  0  0  0  0  0
   54.2240  -43.0030   12.4430 C   0  0  0  0  0  3  0  0  0  0  0  0
   54.5510  -44.3530   12.5760 C   0  0  0  0  0  3  0  0  0  0  0  0
   55.6820  -44.7270   13.3010 C   0  0  0  0  0  3  0  0  0  0  0  0
   65.3980  -44.1800   13.7560 C   0  0  0  0  0  0  0  0  0  0  0  0
   66.2550  -43.7830   14.7430 N   0  0  0  0  0  0  0  0  0  0  0  0
   65.8270  -44.4820   12.6500 O   0  0  0  0  0  0  0  0  0  0  0  0
   67.2370  -43.7450   14.5010 H   0  0  0  0  0  0  0  0  0  0  0  0
   65.9970  -43.5770   15.6940 H   0  0  0  0  0  0  0  0  0  0  0  0
  1  2  1  0  0  0  0
  1 17  1  0  0  0  0
  3  2  2  0  0  0  0
  4  5  1  0  0  0  0
  4  3  1  0  0  0  0
  5  1  2  0  0  0  0
  6  4  1  0  0  0  0
  7  6  1  0  0  0  0
  7  8  1  0  0  0  0
  8 13  1  0  0  0  0
  9  8  2  0  0  0  0
  9 10  1  0  0  0  0
 10 11  2  0  0  0  0
 11 12  1  0  0  0  0
 13  3  1  0  0  0  0
 13 12  2  0  0  0  0
 14 15  1  0  0  0  0
 14 23  1  0  0  0  0
 16 15  2  0  0  0  0
 17 16  1  0  0  0  0
 18 17  2  0  0  0  0
 18 19  1  0  0  0  0
 19 14  2  0  0  0  0
 21 20  1  1  0  0  0
 22 21  1  0  0  0  0
 23 25  1  6  0  0  0
 23 24  1  0  0  0  0
 23 22  1  0  0  0  0
 24 21  1  0  0  0  0
 25 28  1  0  0  0  0
 26 25  1  0  0  0  0
 27 25  1  0  0  0  0
 29 30  1  0  0  0  0
 29 21  1  0  0  0  0
 31  5  1  0  0  0  0
 32 31  1  0  0  0  0
 33 32  2  0  0  0  0
 34 35  2  0  0  0  0
 34 33  1  0  0  0  0
 35 36  1  0  0  0  0
 36 31  2  0  0  0  0
 37 10  1  0  0  0  0
 37 38  1  0  0  0  0
 38 41  1  0  0  0  0
 39 37  2  0  0  0  0
 40 38  1  0  0  0  0
M  END
>  <minimizedAffinity>
-2.18817878

$$$$

 OpenBabel11232419433D

 41 46  0  0  1  0  0  0  0  0999 V2000
   58.8380  -42.0340   16.6490 C   0  0  0  0  0  0  0  0  0  0  0  0
   58.4430  -41.5320   17.8770 N   0  0  0  0  0  0  0  0  0  0  0  0
   57.1720  -41.8370   17.9980 C   0  0  0  0  0  0  0  0  0  0  0  0
   56.7160  -42.4720   16.8800 N   0  0  0  0  0  0  0  0  0  0  0  0
   57.7680  -42.6550   16.0100 C   0  0  0  0  0  0  0  0  0  0  0  0
   55.3820  -43.0380   16.8130 C   0  0  0  0  0  2  0  0  0  0  0  0
   54.4420  -42.4240   17.7230 O   0  0  0  0  0  0  0  0  0  0  0  0
   54.9340  -42.0000   18.9310 C   0  0  0  0  0  0  0  0  0  0  0  0
   54.0150  -41.8590   19.9740 C   0  0  0  0  0  3  0  0  0  0  0  0
   54.4500  -41.4150   21.2290 C   0  0  0  0  0  0  0  0  0  0  0  0
   55.8010  -41.0730   21.4090 C   0  0  0  0  0  3  0  0  0  0  0  0
   56.7120  -41.1910   20.3560 C   0  0  0  0  0  3  0  0  0  0  0  0
   56.2780  -41.6620   19.1180 C   0  0  0  0  0  0  0  0  0  0  0  0
   62.9830  -41.9850   15.3210 C   0  0  0  0  0  0  0  0  0  0  0  0
   62.3620  -43.1200   15.8890 C   0  0  0  0  0  3  0  0  0  0  0  0
   61.0270  -43.1100   16.3240 C   0  0  0  0  0  3  0  0  0  0  0  0
   60.2360  -41.9610   16.2310 C   0  0  0  0  0  0  0  0  0  0  0  0
   60.8410  -40.8090   15.7360 C   0  0  0  0  0  3  0  0  0  0  0  0
   62.1720  -40.8280   15.2870 C   0  0  0  0  0  3  0  0  0  0  0  0
   66.4930  -43.5570   12.4610 C   0  0  0  0  0  1  0  0  0  0  0  0
   65.1640  -43.3280   13.1670 C   0  0  1  0  0  0  0  0  0  0  0  0
   65.2820  -43.3080   14.7110 C   0  0  0  0  0  2  0  0  0  0  0  0
   64.4880  -41.9710   14.7470 C   0  0  1  0  0  0  0  0  0  0  0  0
   64.6920  -41.8530   13.2110 C   0  0  0  0  0  2  0  0  0  0  0  0
   65.2820  -40.9370   15.4620 N   0  0  0  0  0  4  0  0  0  0  0  0
   64.9270  -39.9920   15.2660 H   0  0  0  0  0  0  0  0  0  0  0  0
   65.2350  -41.0820   16.4800 H   0  0  0  0  0  0  0  0  0  0  0  0
   66.2760  -40.9440   15.2030 H   0  0  0  0  0  0  0  0  0  0  0  0
   64.1850  -44.2580   12.6690 O   0  0  0  0  0  0  0  0  0  0  0  0
   64.2090  -44.2040   11.6950 H   0  0  0  0  0  0  0  0  0  0  0  0
   57.6590  -43.4590   14.8000 C   0  0  0  0  0  0  0  0  0  0  0  0
   58.3590  -43.1000   13.6420 C   0  0  0  0  0  3  0  0  0  0  0  0
   58.2380  -43.8700   12.4840 C   0  0  0  0  0  3  0  0  0  0  0  0
   57.4200  -45.0000   12.4780 C   0  0  0  0  0  3  0  0  0  0  0  0
   56.7210  -45.3620   13.6290 C   0  0  0  0  0  3  0  0  0  0  0  0
   56.8400  -44.5950   14.7870 C   0  0  0  0  0  3  0  0  0  0  0  0
   53.5400  -41.2760   22.4010 C   0  0  0  0  0  0  0  0  0  0  0  0
   53.7120  -40.2100   23.2370 N   0  0  0  0  0  0  0  0  0  0  0  0
   52.6390  -42.0800   22.6040 O   0  0  0  0  0  0  0  0  0  0  0  0
   53.0720  -40.1380   24.0180 H   0  0  0  0  0  0  0  0  0  0  0  0
   54.3850  -39.4700   23.1120 H   0  0  0  0  0  0  0  0  0  0  0  0
  1  2  1  0  0  0  0
  2  3  2  0  0  0  0
  3 13  1  0  0  0  0
  4  3  1  0  0  0  0
  5  1  2  0  0  0  0
  5  4  1  0  0  0  0
  6  4  1  0  0  0  0
  6  7  1  0  0  0  0
  7  8  1  0  0  0  0
  8 13  2  0  0  0  0
  8  9  1  0  0  0  0
  9 10  2  0  0  0  0
 10 11  1  0  0  0  0
 10 37  1  0  0  0  0
 12 11  2  0  0  0  0
 13 12  1  0  0  0  0
 14 15  1  0  0  0  0
 15 16  2  0  0  0  0
 17 16  1  0  0  0  0
 17  1  1  0  0  0  0
 18 17  2  0  0  0  0
 19 14  2  0  0  0  0
 19 18  1  0  0  0  0
 21 20  1  6  0  0  0
 21 24  1  0  0  0  0
 21 22  1  0  0  0  0
 22 23  1  0  0  0  0
 23 14  1  0  0  0  0
 23 25  1  1  0  0  0
 24 23  1  0  0  0  0
 25 27  1  0  0  0  0
 26 25  1  0  0  0  0
 28 25  1  0  0  0  0
 29 21  1  0  0  0  0
 30 29  1  0  0  0  0
 31  5  1  0  0  0  0
 32 31  2  0  0  0  0
 33 32  1  0  0  0  0
 34 33  2  0  0  0  0
 34 35  1  0  0  0  0
 35 36  2  0  0  0  0
 36 31  1  0  0  0  0
 37 39  2  0  0  0  0
 37 38  1  0  0  0  0
 38 40  1  0  0  0  0
 41 38  1  0  0  0  0
M  END
>  <minimizedAffinity>
-2.07506704

$$$$

 OpenBabel11232419433D

 41 46  0  0  1  0  0  0  0  0999 V2000
   59.2890  -41.0620   17.5990 C   0  0  0  0  0  0  0  0  0  0  0  0
   59.8840  -41.8360   16.6180 N   0  0  0  0  0  0  0  0  0  0  0  0
   61.0650  -41.3050   16.4070 C   0  0  0  0  0  0  0  0  0  0  0  0
   61.2410  -40.1910   17.1760 N   0  0  0  0  0  0  0  0  0  0  0  0
   60.1400  -40.0290   17.9860 C   0  0  0  0  0  0  0  0  0  0  0  0
   62.5140  -39.4960   17.2340 C   0  0  0  0  0  2  0  0  0  0  0  0
   63.3450  -39.7040   16.0710 O   0  0  0  0  0  0  0  0  0  0  0  0
   63.2780  -40.9350   15.4700 C   0  0  0  0  0  0  0  0  0  0  0  0
   64.3680  -41.3170   14.6860 C   0  0  0  0  0  3  0  0  0  0  0  0
   64.3550  -42.5560   14.0330 C   0  0  0  0  0  0  0  0  0  0  0  0
   63.2220  -43.3800   14.1380 C   0  0  0  0  0  3  0  0  0  0  0  0
   62.1220  -42.9820   14.9040 C   0  0  0  0  0  3  0  0  0  0  0  0
   62.1540  -41.7610   15.5760 C   0  0  0  0  0  0  0  0  0  0  0  0
   55.3930  -42.2820   19.1060 C   0  0  0  0  0  0  0  0  0  0  0  0
   55.6290  -41.9290   17.7600 C   0  0  0  0  0  3  0  0  0  0  0  0
   56.8920  -41.5250   17.2970 C   0  0  0  0  0  3  0  0  0  0  0  0
   57.9910  -41.4350   18.1550 C   0  0  0  0  0  0  0  0  0  0  0  0
   57.7730  -41.7140   19.5010 C   0  0  0  0  0  3  0  0  0  0  0  0
   56.5110  -42.1330   19.9570 C   0  0  0  0  0  3  0  0  0  0  0  0
   52.6200  -45.4040   21.4580 C   0  0  0  0  0  1  0  0  0  0  0  0
   53.7910  -44.6570   20.8360 C   0  0  1  0  0  0  0  0  0  0  0  0
   53.5620  -44.2810   19.3510 C   0  0  0  0  0  2  0  0  0  0  0  0
   53.9800  -42.8160   19.6660 C   0  0  1  0  0  0  0  0  0  0  0  0
   53.8620  -43.1490   21.1800 C   0  0  0  0  0  2  0  0  0  0  0  0
   52.8980  -41.8860   19.2480 N   0  0  0  0  0  4  0  0  0  0  0  0
   53.0100  -40.9630   19.6840 H   0  0  0  0  0  0  0  0  0  0  0  0
   52.9070  -41.7520   18.2270 H   0  0  0  0  0  0  0  0  0  0  0  0
   51.9600  -42.2250   19.4970 H   0  0  0  0  0  0  0  0  0  0  0  0
   55.0090  -45.3860   21.0710 O   0  0  0  0  0  0  0  0  0  0  0  0
   55.0410  -45.5880   22.0260 H   0  0  0  0  0  0  0  0  0  0  0  0
   60.0860  -39.0400   19.0540 C   0  0  0  0  0  0  0  0  0  0  0  0
   59.5580  -39.3730   20.3060 C   0  0  0  0  0  3  0  0  0  0  0  0
   59.4980  -38.4140   21.3190 C   0  0  0  0  0  3  0  0  0  0  0  0
   59.9660  -37.1210   21.0850 C   0  0  0  0  0  3  0  0  0  0  0  0
   60.4930  -36.7840   19.8390 C   0  0  0  0  0  3  0  0  0  0  0  0
   60.5540  -37.7400   18.8260 C   0  0  0  0  0  3  0  0  0  0  0  0
   65.4950  -43.0520   13.2100 C   0  0  0  0  0  0  0  0  0  0  0  0
   66.4920  -42.1770   12.8840 N   0  0  0  0  0  0  0  0  0  0  0  0
   65.5580  -44.2210   12.8520 O   0  0  0  0  0  0  0  0  0  0  0  0
   67.2570  -42.5470   12.3340 H   0  0  0  0  0  0  0  0  0  0  0  0
   66.5520  -41.2180   13.1870 H   0  0  0  0  0  0  0  0  0  0  0  0
  1  5  2  0  0  0  0
  1 17  1  0  0  0  0
  2  1  1  0  0  0  0
  3  2  2  0  0  0  0
  3  4  1  0  0  0  0
  4  6  1  0  0  0  0
  4  5  1  0  0  0  0
  5 31  1  0  0  0  0
  7  6  1  0  0  0  0
  8 13  1  0  0  0  0
  8  7  1  0  0  0  0
  9  8  2  0  0  0  0
 10 11  2  0  0  0  0
 10  9  1  0  0  0  0
 11 12  1  0  0  0  0
 12 13  2  0  0  0  0
 13  3  1  0  0  0  0
 14 23  1  0  0  0  0
 14 19  1  0  0  0  0
 15 14  2  0  0  0  0
 16 15  1  0  0  0  0
 16 17  2  0  0  0  0
 17 18  1  0  0  0  0
 18 19  2  0  0  0  0
 21 29  1  0  0  0  0
 21 24  1  0  0  0  0
 21 20  1  1  0  0  0
 22 23  1  0  0  0  0
 22 21  1  0  0  0  0
 23 25  1  6  0  0  0
 23 24  1  0  0  0  0
 25 28  1  0  0  0  0
 25 26  1  0  0  0  0
 27 25  1  0  0  0  0
 29 30  1  0  0  0  0
 31 32  1  0  0  0  0
 32 33  2  0  0  0  0
 34 33  1  0  0  0  0
 35 34  2  0  0  0  0
 36 31  2  0  0  0  0
 36 35  1  0  0  0  0
 37 10  1  0  0  0  0
 38 41  1  0  0  0  0
 38 37  1  0  0  0  0
 39 37  2  0  0  0  0
 40 38  1  0  0  0  0
M  END
>  <minimizedAffinity>
-1.77515125

$$$$
