
 OpenBabel11232420183D

 41 47  0  0  1  0  0  0  0  0999 V2000
   -6.6020  -10.6230   11.4170 C   0  0  0  0  0  0  0  0  0  0  0  0
   -5.8610  -10.7780   10.2880 N   0  0  0  0  0  0  0  0  0  0  0  0
   -6.2950  -11.6710    9.3710 C   0  0  0  0  0  0  0  0  0  0  0  0
   -5.4560  -11.8020    8.1810 C   0  0  0  0  0  3  0  0  0  0  0  0
   -5.7840  -12.6680    7.2150 C   0  0  0  0  0  3  0  0  0  0  0  0
   -6.9420  -13.4690    7.3430 C   0  0  0  0  0  0  0  0  0  0  0  0
   -7.4360  -14.3770    6.5330 N   0  0  0  0  0  0  0  0  0  0  0  0
   -8.5610  -14.8850    7.1120 N   0  0  0  0  0  0  0  0  0  0  0  0
   -8.7490  -14.2860    8.2760 C   0  0  0  0  0  0  0  0  0  0  0  0
   -7.7480  -13.3510    8.4740 N   0  0  0  0  0  0  0  0  0  0  0  0
   -7.4540  -12.4360    9.5190 C   0  0  0  0  0  0  0  0  0  0  0  0
   -8.2190  -12.2400   10.6640 C   0  0  0  0  0  3  0  0  0  0  0  0
   -7.8050  -11.3170   11.6450 C   0  0  0  0  0  0  0  0  0  0  0  0
   -4.7320   -7.8960   14.2320 C   0  0  0  0  0  0  0  0  0  0  0  0
   -5.4960   -7.4360   13.1370 C   0  0  0  0  0  3  0  0  0  0  0  0
   -6.1050   -8.3150   12.2320 C   0  0  0  0  0  3  0  0  0  0  0  0
   -5.9930   -9.7000   12.3870 C   0  0  0  0  0  0  0  0  0  0  0  0
   -5.2470  -10.1780   13.4700 C   0  0  0  0  0  3  0  0  0  0  0  0
   -4.6300   -9.2970   14.3670 C   0  0  0  0  0  3  0  0  0  0  0  0
   -3.9800   -6.8960   15.2120 C   0  0  1  0  0  0  0  0  0  0  0  0
   -2.9180   -7.4710   16.1780 C   0  0  0  0  0  2  0  0  0  0  0  0
   -1.9200   -6.3270   15.7970 C   0  0  1  0  0  0  0  0  0  0  0  0
   -2.8980   -5.9520   14.6340 C   0  0  0  0  0  2  0  0  0  0  0  0
   -5.0460   -6.1510   15.9250 N   0  0  0  0  0  4  0  0  0  0  0  0
   -5.6640   -5.6650   15.2600 H   0  0  0  0  0  0  0  0  0  0  0  0
   -4.6880   -5.4480   16.5790 H   0  0  0  0  0  0  0  0  0  0  0  0
   -5.6530   -6.7880   16.4590 H   0  0  0  0  0  0  0  0  0  0  0  0
   -1.6350   -5.2540   16.8560 C   0  0  0  0  0  3  0  0  0  0  0  0
   -0.5600   -4.1990   16.8100 C   0  0  0  0  0  2  0  0  0  0  0  0
   -2.0040   -3.7950   16.7870 C   0  0  0  0  0  2  0  0  0  0  0  0
   -0.6610   -6.8490   15.2970 O   0  0  0  0  0  0  0  0  0  0  0  0
   -0.8510   -7.5180   14.6180 H   0  0  0  0  0  0  0  0  0  0  0  0
   -8.6430  -11.1050   12.8370 C   0  0  0  0  0  0  0  0  0  0  0  0
   -8.5300  -11.9470   13.9560 C   0  0  0  0  0  3  0  0  0  0  0  0
   -9.3330  -11.7510   15.0820 C   0  0  0  0  0  3  0  0  0  0  0  0
  -10.2640  -10.7150   15.1050 C   0  0  0  0  0  3  0  0  0  0  0  0
  -10.3960   -9.8760   14.0010 C   0  0  0  0  0  3  0  0  0  0  0  0
   -9.5930  -10.0710   12.8750 C   0  0  0  0  0  3  0  0  0  0  0  0
   -9.8530  -14.6140    9.1960 C   0  0  0  0  0  3  0  0  0  0  0  0
  -10.8260  -15.3320    8.5710 F   0  0  0  0  0  0  0  0  0  0  0  0
   -9.4220  -15.3750   10.2390 F   0  0  0  0  0  0  0  0  0  0  0  0
  1 13  1  0  0  0  0
  1 17  1  0  0  0  0
  2  1  2  0  0  0  0
  3 11  2  0  0  0  0
  3  2  1  0  0  0  0
  4  3  1  0  0  0  0
  5  6  1  0  0  0  0
  5  4  2  0  0  0  0
  6 10  1  0  0  0  0
  7  8  1  0  0  0  0
  7  6  2  0  0  0  0
  8  9  2  0  0  0  0
  9 10  1  0  0  0  0
  9 39  1  0  0  0  0
 10 11  1  0  0  0  0
 11 12  1  0  0  0  0
 12 13  2  0  0  0  0
 13 33  1  0  0  0  0
 14 19  1  0  0  0  0
 14 20  1  0  0  0  0
 15 14  2  0  0  0  0
 16 17  2  0  0  0  0
 16 15  1  0  0  0  0
 17 18  1  0  0  0  0
 18 19  2  0  0  0  0
 20 24  1  1  0  0  0
 20 21  1  0  0  0  0
 22 31  1  6  0  0  0
 22 21  1  0  0  0  0
 22 28  1  0  0  0  0
 23 20  1  0  0  0  0
 23 22  1  0  0  0  0
 24 27  1  0  0  0  0
 24 26  1  0  0  0  0
 25 24  1  0  0  0  0
 29 28  1  0  0  0  0
 30 29  1  0  0  0  0
 30 28  1  0  0  0  0
 32 31  1  0  0  0  0
 33 38  2  0  0  0  0
 33 34  1  0  0  0  0
 34 35  2  0  0  0  0
 35 36  1  0  0  0  0
 37 36  2  0  0  0  0
 38 37  1  0  0  0  0
 39 41  1  0  0  0  0
 40 39  1  0  0  0  0
M  END
>  <minimizedAffinity>
-4.58340883

$$$$
