
 OpenBabel11232420183D

 41 47  0  0  1  0  0  0  0  0999 V2000
   -5.4690   -6.1280   14.0440 C   0  0  0  0  0  0  0  0  0  0  0  0
   -4.9860   -6.2460   15.3090 N   0  0  0  0  0  0  0  0  0  0  0  0
   -3.6880   -6.5930   15.4550 C   0  0  0  0  0  0  0  0  0  0  0  0
   -3.2250   -6.7110   16.8360 C   0  0  0  0  0  3  0  0  0  0  0  0
   -1.9610   -7.0640   17.0980 C   0  0  0  0  0  3  0  0  0  0  0  0
   -1.0650   -7.3320   16.0370 C   0  0  0  0  0  0  0  0  0  0  0  0
    0.1950   -7.6970   16.0660 N   0  0  0  0  0  0  0  0  0  0  0  0
    0.6160   -7.8500   14.7780 N   0  0  0  0  0  0  0  0  0  0  0  0
   -0.3910   -7.5780   13.9660 C   0  0  0  0  0  0  0  0  0  0  0  0
   -1.4980   -7.2220   14.7160 N   0  0  0  0  0  0  0  0  0  0  0  0
   -2.8230   -6.8340   14.3850 C   0  0  0  0  0  0  0  0  0  0  0  0
   -3.3240   -6.6770   13.0970 C   0  0  0  0  0  3  0  0  0  0  0  0
   -4.6710   -6.3130   12.8990 C   0  0  0  0  0  0  0  0  0  0  0  0
   -9.7220   -5.2820   13.8230 C   0  0  0  0  0  0  0  0  0  0  0  0
   -9.2230   -6.6010   13.8840 C   0  0  0  0  0  3  0  0  0  0  0  0
   -7.8510   -6.8750   13.9620 C   0  0  0  0  0  3  0  0  0  0  0  0
   -6.9110   -5.8410   13.9980 C   0  0  0  0  0  0  0  0  0  0  0  0
   -7.3850   -4.5260   13.9460 C   0  0  0  0  0  3  0  0  0  0  0  0
   -8.7560   -4.2550   13.8580 C   0  0  0  0  0  3  0  0  0  0  0  0
  -11.2740   -4.9770   13.6580 C   0  0  1  0  0  0  0  0  0  0  0  0
  -12.1390   -5.9740   12.8540 C   0  0  0  0  0  2  0  0  0  0  0  0
  -13.2350   -5.9580   13.9710 C   0  0  1  0  0  0  0  0  0  0  0  0
  -12.2120   -5.1870   14.8700 C   0  0  0  0  0  2  0  0  0  0  0  0
  -11.3590   -3.5960   13.1210 N   0  0  0  0  0  4  0  0  0  0  0  0
  -10.8870   -2.9280   13.7460 H   0  0  0  0  0  0  0  0  0  0  0  0
  -12.3200   -3.2660   12.9890 H   0  0  0  0  0  0  0  0  0  0  0  0
  -10.8790   -3.5190   12.2130 H   0  0  0  0  0  0  0  0  0  0  0  0
  -14.5620   -5.2580   13.6500 C   0  0  0  0  0  3  0  0  0  0  0  0
  -15.7700   -5.1510   14.5460 C   0  0  0  0  0  2  0  0  0  0  0  0
  -15.0210   -3.9130   14.1510 C   0  0  0  0  0  2  0  0  0  0  0  0
  -13.5090   -7.2880   14.4820 O   0  0  0  0  0  0  0  0  0  0  0  0
  -12.6640   -7.7190   14.6950 H   0  0  0  0  0  0  0  0  0  0  0  0
   -5.1750   -6.1250   11.5280 C   0  0  0  0  0  0  0  0  0  0  0  0
   -5.2970   -4.8380   10.9770 C   0  0  0  0  0  3  0  0  0  0  0  0
   -5.7850   -4.6600    9.6800 C   0  0  0  0  0  3  0  0  0  0  0  0
   -6.1630   -5.7630    8.9180 C   0  0  0  0  0  3  0  0  0  0  0  0
   -6.0560   -7.0460    9.4510 C   0  0  0  0  0  3  0  0  0  0  0  0
   -5.5680   -7.2240   10.7470 C   0  0  0  0  0  3  0  0  0  0  0  0
   -0.3080   -7.6780   12.4980 C   0  0  0  0  0  3  0  0  0  0  0  0
   -0.6160   -6.4940   11.9000 F   0  0  0  0  0  0  0  0  0  0  0  0
    0.9510   -7.9990   12.0910 F   0  0  0  0  0  0  0  0  0  0  0  0
  1  2  1  0  0  0  0
  2  3  2  0  0  0  0
  3  4  1  0  0  0  0
  4  5  2  0  0  0  0
  6  7  2  0  0  0  0
  6  5  1  0  0  0  0
  8  7  1  0  0  0  0
  9 10  1  0  0  0  0
  9  8  2  0  0  0  0
 10  6  1  0  0  0  0
 11 10  1  0  0  0  0
 11  3  1  0  0  0  0
 12 11  2  0  0  0  0
 13 12  1  0  0  0  0
 13  1  2  0  0  0  0
 14 19  2  0  0  0  0
 14 15  1  0  0  0  0
 15 16  2  0  0  0  0
 16 17  1  0  0  0  0
 17  1  1  0  0  0  0
 18 17  2  0  0  0  0
 19 18  1  0  0  0  0
 20 24  1  6  0  0  0
 20 14  1  0  0  0  0
 20 23  1  0  0  0  0
 21 20  1  0  0  0  0
 21 22  1  0  0  0  0
 22 31  1  1  0  0  0
 22 23  1  0  0  0  0
 24 25  1  0  0  0  0
 26 24  1  0  0  0  0
 27 24  1  0  0  0  0
 28 22  1  0  0  0  0
 28 30  1  0  0  0  0
 28 29  1  0  0  0  0
 30 29  1  0  0  0  0
 31 32  1  0  0  0  0
 33 13  1  0  0  0  0
 34 33  1  0  0  0  0
 35 34  2  0  0  0  0
 36 37  2  0  0  0  0
 36 35  1  0  0  0  0
 37 38  1  0  0  0  0
 38 33  2  0  0  0  0
 39  9  1  0  0  0  0
 40 39  1  0  0  0  0
 41 39  1  0  0  0  0
M  END
>  <minimizedAffinity>
-4.51896143

$$$$
