
 OpenBabel11232420183D

 41 47  0  0  1  0  0  0  0  0999 V2000
   -7.8890   -8.5530   10.6220 C   0  0  0  0  0  0  0  0  0  0  0  0
   -8.1770   -7.3150   11.1040 N   0  0  0  0  0  0  0  0  0  0  0  0
   -7.2010   -6.6550   11.7640 C   0  0  0  0  0  0  0  0  0  0  0  0
   -7.5690   -5.3330   12.2670 C   0  0  0  0  0  3  0  0  0  0  0  0
   -6.6820   -4.5980   12.9490 C   0  0  0  0  0  3  0  0  0  0  0  0
   -5.3830   -5.0990   13.1940 C   0  0  0  0  0  0  0  0  0  0  0  0
   -4.3760   -4.5590   13.8390 N   0  0  0  0  0  0  0  0  0  0  0  0
   -3.3410   -5.4470   13.8180 N   0  0  0  0  0  0  0  0  0  0  0  0
   -3.7220   -6.5290   13.1600 C   0  0  0  0  0  0  0  0  0  0  0  0
   -5.0230   -6.3590   12.7180 N   0  0  0  0  0  0  0  0  0  0  0  0
   -5.9200   -7.1710   11.9750 C   0  0  0  0  0  0  0  0  0  0  0  0
   -5.6300   -8.4250   11.4450 C   0  0  0  0  0  3  0  0  0  0  0  0
   -6.6190   -9.1460   10.7480 C   0  0  0  0  0  0  0  0  0  0  0  0
  -11.3500  -10.4440    8.8050 C   0  0  0  0  0  0  0  0  0  0  0  0
  -10.3450   -9.8200    8.0340 C   0  0  0  0  0  3  0  0  0  0  0  0
   -9.2250   -9.2150    8.6180 C   0  0  0  0  0  3  0  0  0  0  0  0
   -9.0460   -9.2190   10.0050 C   0  0  0  0  0  0  0  0  0  0  0  0
  -10.0260   -9.8380   10.7880 C   0  0  0  0  0  3  0  0  0  0  0  0
  -11.1500  -10.4330   10.2020 C   0  0  0  0  0  3  0  0  0  0  0  0
  -12.6570  -11.0620    8.1440 C   0  0  1  0  0  0  0  0  0  0  0  0
  -14.0350  -10.6450    8.7070 C   0  0  0  0  0  2  0  0  0  0  0  0
  -14.5790  -10.4060    7.2590 C   0  0  1  0  0  0  0  0  0  0  0  0
  -13.1050  -10.5530    6.7530 C   0  0  0  0  0  2  0  0  0  0  0  0
  -12.4610  -12.5330    8.1610 N   0  0  0  0  0  4  0  0  0  0  0  0
  -11.6010  -12.7960    7.6610 H   0  0  0  0  0  0  0  0  0  0  0  0
  -13.2340  -13.0540    7.7370 H   0  0  0  0  0  0  0  0  0  0  0  0
  -12.3460  -12.8810    9.1230 H   0  0  0  0  0  0  0  0  0  0  0  0
  -15.6150  -11.4010    6.7190 C   0  0  0  0  0  3  0  0  0  0  0  0
  -16.8270  -11.9270    7.4430 C   0  0  0  0  0  2  0  0  0  0  0  0
  -16.9990  -11.0820    6.2160 C   0  0  0  0  0  2  0  0  0  0  0  0
  -15.0800   -9.0550    7.0840 O   0  0  0  0  0  0  0  0  0  0  0  0
  -14.4110   -8.4310    7.4160 H   0  0  0  0  0  0  0  0  0  0  0  0
   -6.2840  -10.4590   10.1710 C   0  0  0  0  0  0  0  0  0  0  0  0
   -6.5070  -11.6420   10.8960 C   0  0  0  0  0  3  0  0  0  0  0  0
   -6.1780  -12.8860   10.3510 C   0  0  0  0  0  3  0  0  0  0  0  0
   -5.6170  -12.9660    9.0790 C   0  0  0  0  0  3  0  0  0  0  0  0
   -5.3810  -11.8030    8.3490 C   0  0  0  0  0  3  0  0  0  0  0  0
   -5.7110  -10.5590    8.8930 C   0  0  0  0  0  3  0  0  0  0  0  0
   -2.8680   -7.7160   12.9720 C   0  0  0  0  0  3  0  0  0  0  0  0
   -1.5490   -7.4060   13.1020 F   0  0  0  0  0  0  0  0  0  0  0  0
   -3.1340   -8.6720   13.9040 F   0  0  0  0  0  0  0  0  0  0  0  0
  1 13  2  0  0  0  0
  1  2  1  0  0  0  0
  2  3  2  0  0  0  0
  3 11  1  0  0  0  0
  3  4  1  0  0  0  0
  4  5  2  0  0  0  0
  5  6  1  0  0  0  0
  6  7  2  0  0  0  0
  8  7  1  0  0  0  0
  9  8  2  0  0  0  0
 10  9  1  0  0  0  0
 10  6  1  0  0  0  0
 11 10  1  0  0  0  0
 12 11  2  0  0  0  0
 13 12  1  0  0  0  0
 14 19  1  0  0  0  0
 15 16  1  0  0  0  0
 15 14  2  0  0  0  0
 16 17  2  0  0  0  0
 17  1  1  0  0  0  0
 17 18  1  0  0  0  0
 19 18  2  0  0  0  0
 20 24  1  6  0  0  0
 20 21  1  0  0  0  0
 20 14  1  0  0  0  0
 22 31  1  6  0  0  0
 22 21  1  0  0  0  0
 23 22  1  0  0  0  0
 23 20  1  0  0  0  0
 24 27  1  0  0  0  0
 25 24  1  0  0  0  0
 26 24  1  0  0  0  0
 28 22  1  0  0  0  0
 28 29  1  0  0  0  0
 30 28  1  0  0  0  0
 30 29  1  0  0  0  0
 31 32  1  0  0  0  0
 33 13  1  0  0  0  0
 33 34  1  0  0  0  0
 35 34  2  0  0  0  0
 36 35  1  0  0  0  0
 37 38  1  0  0  0  0
 37 36  2  0  0  0  0
 38 33  2  0  0  0  0
 39 40  1  0  0  0  0
 39  9  1  0  0  0  0
 39 41  1  0  0  0  0
M  END
>  <minimizedAffinity>
-5.15147734

$$$$
