
 OpenBabel11232420183D

 41 47  0  0  1  0  0  0  0  0999 V2000
   -7.2180  -11.6540    8.8480 C   0  0  0  0  0  0  0  0  0  0  0  0
   -6.3900  -11.8710    7.7920 N   0  0  0  0  0  0  0  0  0  0  0  0
   -6.5140  -13.0400    7.1270 C   0  0  0  0  0  0  0  0  0  0  0  0
   -5.5940  -13.2220    6.0060 C   0  0  0  0  0  3  0  0  0  0  0  0
   -5.6190  -14.3490    5.2860 C   0  0  0  0  0  3  0  0  0  0  0  0
   -6.5350  -15.3770    5.6090 C   0  0  0  0  0  0  0  0  0  0  0  0
   -6.7210  -16.5510    5.0510 N   0  0  0  0  0  0  0  0  0  0  0  0
   -7.7100  -17.1890    5.7390 N   0  0  0  0  0  0  0  0  0  0  0  0
   -8.1250  -16.4020    6.7170 C   0  0  0  0  0  0  0  0  0  0  0  0
   -7.4170  -15.2130    6.6760 N   0  0  0  0  0  0  0  0  0  0  0  0
   -7.4420  -14.0290    7.4610 C   0  0  0  0  0  0  0  0  0  0  0  0
   -8.3050  -13.7780    8.5220 C   0  0  0  0  0  3  0  0  0  0  0  0
   -8.2110  -12.5700    9.2420 C   0  0  0  0  0  0  0  0  0  0  0  0
   -6.3150   -7.9320   10.8930 C   0  0  0  0  0  0  0  0  0  0  0  0
   -7.1330   -7.9760    9.7430 C   0  0  0  0  0  3  0  0  0  0  0  0
   -7.4300   -9.1770    9.0860 C   0  0  0  0  0  3  0  0  0  0  0  0
   -6.9360  -10.3980    9.5580 C   0  0  0  0  0  0  0  0  0  0  0  0
   -6.1300  -10.3770   10.7010 C   0  0  0  0  0  3  0  0  0  0  0  0
   -5.8260   -9.1740   11.3490 C   0  0  0  0  0  3  0  0  0  0  0  0
   -5.9180   -6.5600   11.5910 C   0  0  1  0  0  0  0  0  0  0  0  0
   -5.9960   -6.4670   13.1320 C   0  0  0  0  0  2  0  0  0  0  0  0
   -4.5840   -5.7950   13.1850 C   0  0  1  0  0  0  0  0  0  0  0  0
   -4.4240   -6.1650   11.6740 C   0  0  0  0  0  2  0  0  0  0  0  0
   -6.7330   -5.5160   10.9210 N   0  0  0  0  0  4  0  0  0  0  0  0
   -6.5610   -5.5090    9.9060 H   0  0  0  0  0  0  0  0  0  0  0  0
   -6.5520   -4.5690   11.2690 H   0  0  0  0  0  0  0  0  0  0  0  0
   -7.7390   -5.6990   11.0360 H   0  0  0  0  0  0  0  0  0  0  0  0
   -4.5230   -4.3080   13.5590 C   0  0  0  0  0  3  0  0  0  0  0  0
   -4.9470   -3.6840   14.8640 C   0  0  0  0  0  2  0  0  0  0  0  0
   -3.5060   -3.6400   14.4490 C   0  0  0  0  0  2  0  0  0  0  0  0
   -3.6610   -6.5350   14.0250 O   0  0  0  0  0  0  0  0  0  0  0  0
   -3.6970   -7.4740   13.7720 H   0  0  0  0  0  0  0  0  0  0  0  0
   -9.1520  -12.3120   10.3450 C   0  0  0  0  0  0  0  0  0  0  0  0
  -10.3080  -11.5390   10.1390 C   0  0  0  0  0  3  0  0  0  0  0  0
  -11.1940  -11.2850   11.1880 C   0  0  0  0  0  3  0  0  0  0  0  0
  -10.9370  -11.7950   12.4590 C   0  0  0  0  0  3  0  0  0  0  0  0
   -9.7930  -12.5560   12.6840 C   0  0  0  0  0  3  0  0  0  0  0  0
   -8.9070  -12.8110   11.6340 C   0  0  0  0  0  3  0  0  0  0  0  0
   -9.1630  -16.7840    7.6910 C   0  0  0  0  0  3  0  0  0  0  0  0
   -9.8980  -17.8400    7.2470 F   0  0  0  0  0  0  0  0  0  0  0  0
   -8.6170  -17.1650    8.8780 F   0  0  0  0  0  0  0  0  0  0  0  0
  1 13  1  0  0  0  0
  1 17  1  0  0  0  0
  2  1  2  0  0  0  0
  3 11  2  0  0  0  0
  3  2  1  0  0  0  0
  4  3  1  0  0  0  0
  5  6  1  0  0  0  0
  5  4  2  0  0  0  0
  6 10  1  0  0  0  0
  7  6  2  0  0  0  0
  7  8  1  0  0  0  0
  8  9  2  0  0  0  0
  9 39  1  0  0  0  0
 10  9  1  0  0  0  0
 10 11  1  0  0  0  0
 11 12  1  0  0  0  0
 12 13  2  0  0  0  0
 13 33  1  0  0  0  0
 14 19  1  0  0  0  0
 14 20  1  0  0  0  0
 15 14  2  0  0  0  0
 16 17  2  0  0  0  0
 16 15  1  0  0  0  0
 17 18  1  0  0  0  0
 18 19  2  0  0  0  0
 20 24  1  6  0  0  0
 20 23  1  0  0  0  0
 20 21  1  0  0  0  0
 21 22  1  0  0  0  0
 22 28  1  0  0  0  0
 22 31  1  1  0  0  0
 23 22  1  0  0  0  0
 24 27  1  0  0  0  0
 24 26  1  0  0  0  0
 25 24  1  0  0  0  0
 28 30  1  0  0  0  0
 28 29  1  0  0  0  0
 30 29  1  0  0  0  0
 32 31  1  0  0  0  0
 33 38  1  0  0  0  0
 34 33  2  0  0  0  0
 34 35  1  0  0  0  0
 35 36  2  0  0  0  0
 36 37  1  0  0  0  0
 38 37  2  0  0  0  0
 39 41  1  0  0  0  0
 40 39  1  0  0  0  0
M  END
>  <minimizedAffinity>
-5.6151433

$$$$
