
 OpenBabel11232420183D

 41 47  0  0  1  0  0  0  0  0999 V2000
   -5.8630   -9.1560   12.1540 C   0  0  0  0  0  0  0  0  0  0  0  0
   -5.6570  -10.2140   12.9820 N   0  0  0  0  0  0  0  0  0  0  0  0
   -4.5450  -10.2030   13.7490 C   0  0  0  0  0  0  0  0  0  0  0  0
   -4.3710  -11.3690   14.6130 C   0  0  0  0  0  3  0  0  0  0  0  0
   -3.2970  -11.4700   15.4050 C   0  0  0  0  0  3  0  0  0  0  0  0
   -2.3170  -10.4490   15.4060 C   0  0  0  0  0  0  0  0  0  0  0  0
   -1.1990  -10.3510   16.0850 N   0  0  0  0  0  0  0  0  0  0  0  0
   -0.5900   -9.1870   15.7210 N   0  0  0  0  0  0  0  0  0  0  0  0
   -1.3390   -8.5780   14.8180 C   0  0  0  0  0  0  0  0  0  0  0  0
   -2.4750   -9.3340   14.5850 N   0  0  0  0  0  0  0  0  0  0  0  0
   -3.6040   -9.1710   13.7390 C   0  0  0  0  0  0  0  0  0  0  0  0
   -3.8480   -8.0790   12.9120 C   0  0  0  0  0  3  0  0  0  0  0  0
   -4.9970   -8.0480   12.0970 C   0  0  0  0  0  0  0  0  0  0  0  0
   -9.3770   -9.6960    9.6610 C   0  0  0  0  0  0  0  0  0  0  0  0
   -9.4490   -9.1000   10.9390 C   0  0  0  0  0  3  0  0  0  0  0  0
   -8.3150   -8.9200   11.7420 C   0  0  0  0  0  3  0  0  0  0  0  0
   -7.0490   -9.3120   11.2980 C   0  0  0  0  0  0  0  0  0  0  0  0
   -6.9540   -9.8980   10.0310 C   0  0  0  0  0  3  0  0  0  0  0  0
   -8.0910  -10.0870    9.2350 C   0  0  0  0  0  3  0  0  0  0  0  0
  -10.6760   -9.9680    8.7860 C   0  0  1  0  0  0  0  0  0  0  0  0
  -12.0220   -9.3720    9.2600 C   0  0  0  0  0  2  0  0  0  0  0  0
  -12.3270   -8.8560    7.8140 C   0  0  1  0  0  0  0  0  0  0  0  0
  -10.8490   -9.2140    7.4450 C   0  0  0  0  0  2  0  0  0  0  0  0
  -10.7430  -11.4400    8.6090 N   0  0  0  0  0  4  0  0  0  0  0  0
   -9.8840  -11.7970    8.1670 H   0  0  0  0  0  0  0  0  0  0  0  0
  -11.5340  -11.7490    8.0360 H   0  0  0  0  0  0  0  0  0  0  0  0
  -10.8140  -11.9210    9.5170 H   0  0  0  0  0  0  0  0  0  0  0  0
  -13.4420   -9.5620    7.0310 C   0  0  0  0  0  3  0  0  0  0  0  0
  -14.9050   -9.6200    7.3920 C   0  0  0  0  0  2  0  0  0  0  0  0
  -14.4710   -8.9160    6.1410 C   0  0  0  0  0  2  0  0  0  0  0  0
  -12.5600   -7.4240    7.7860 O   0  0  0  0  0  0  0  0  0  0  0  0
  -11.8420   -6.9840    8.2730 H   0  0  0  0  0  0  0  0  0  0  0  0
   -5.2500   -6.8710   11.2490 C   0  0  0  0  0  0  0  0  0  0  0  0
   -5.6560   -5.6510   11.8150 C   0  0  0  0  0  3  0  0  0  0  0  0
   -5.9060   -4.5380   11.0080 C   0  0  0  0  0  3  0  0  0  0  0  0
   -5.7610   -4.6290    9.6260 C   0  0  0  0  0  3  0  0  0  0  0  0
   -5.3670   -5.8340    9.0470 C   0  0  0  0  0  3  0  0  0  0  0  0
   -5.1150   -6.9460    9.8530 C   0  0  0  0  0  3  0  0  0  0  0  0
   -0.9700   -7.3060   14.1710 C   0  0  0  0  0  3  0  0  0  0  0  0
   -0.8880   -7.4410   12.8180 F   0  0  0  0  0  0  0  0  0  0  0  0
   -1.9000   -6.3400   14.4060 F   0  0  0  0  0  0  0  0  0  0  0  0
  1  2  1  0  0  0  0
  2  3  2  0  0  0  0
  3  4  1  0  0  0  0
  4  5  2  0  0  0  0
  5  6  1  0  0  0  0
  6  7  2  0  0  0  0
  8  7  1  0  0  0  0
  9  8  2  0  0  0  0
 10  9  1  0  0  0  0
 10  6  1  0  0  0  0
 11  3  1  0  0  0  0
 11 10  1  0  0  0  0
 12 11  2  0  0  0  0
 13  1  2  0  0  0  0
 13 12  1  0  0  0  0
 14 15  1  0  0  0  0
 15 16  2  0  0  0  0
 17 16  1  0  0  0  0
 17  1  1  0  0  0  0
 18 17  2  0  0  0  0
 19 14  2  0  0  0  0
 19 18  1  0  0  0  0
 20 24  1  6  0  0  0
 20 21  1  0  0  0  0
 20 14  1  0  0  0  0
 22 31  1  6  0  0  0
 22 21  1  0  0  0  0
 23 22  1  0  0  0  0
 23 20  1  0  0  0  0
 24 27  1  0  0  0  0
 25 24  1  0  0  0  0
 26 24  1  0  0  0  0
 28 29  1  0  0  0  0
 28 22  1  0  0  0  0
 30 28  1  0  0  0  0
 30 29  1  0  0  0  0
 31 32  1  0  0  0  0
 33 34  1  0  0  0  0
 33 13  1  0  0  0  0
 35 34  2  0  0  0  0
 36 35  1  0  0  0  0
 37 36  2  0  0  0  0
 37 38  1  0  0  0  0
 38 33  2  0  0  0  0
 39 41  1  0  0  0  0
 39  9  1  0  0  0  0
 40 39  1  0  0  0  0
M  END
>  <minimizedAffinity>
-5.76489925

$$$$
