
 OpenBabel11232420183D

 41 47  0  0  1  0  0  0  0  0999 V2000
   -8.1660   -8.7320   10.7910 C   0  0  0  0  0  0  0  0  0  0  0  0
   -8.5410   -7.5380   11.3230 N   0  0  0  0  0  0  0  0  0  0  0  0
   -7.5830   -6.7770   11.8950 C   0  0  0  0  0  0  0  0  0  0  0  0
   -8.0440   -5.5090   12.4560 C   0  0  0  0  0  3  0  0  0  0  0  0
   -7.1810   -4.6830   13.0600 C   0  0  0  0  0  3  0  0  0  0  0  0
   -5.8160   -5.0360   13.1660 C   0  0  0  0  0  0  0  0  0  0  0  0
   -4.8160   -4.3910   13.7180 N   0  0  0  0  0  0  0  0  0  0  0  0
   -3.6960   -5.1560   13.5780 N   0  0  0  0  0  0  0  0  0  0  0  0
   -4.0180   -6.2690   12.9410 C   0  0  0  0  0  0  0  0  0  0  0  0
   -5.3670   -6.2440   12.6340 N   0  0  0  0  0  0  0  0  0  0  0  0
   -6.2380   -7.1470   11.9680 C   0  0  0  0  0  0  0  0  0  0  0  0
   -5.8650   -8.3560   11.3890 C   0  0  0  0  0  3  0  0  0  0  0  0
   -6.8320   -9.1790   10.7800 C   0  0  0  0  0  0  0  0  0  0  0  0
  -11.4550  -11.1280    9.2760 C   0  0  0  0  0  0  0  0  0  0  0  0
  -11.1680  -11.0360   10.6550 C   0  0  0  0  0  3  0  0  0  0  0  0
  -10.1110  -10.2580   11.1460 C   0  0  0  0  0  3  0  0  0  0  0  0
   -9.2980   -9.5200   10.2800 C   0  0  0  0  0  0  0  0  0  0  0  0
   -9.5700   -9.5910    8.9100 C   0  0  0  0  0  3  0  0  0  0  0  0
  -10.6200  -10.3780    8.4210 C   0  0  0  0  0  3  0  0  0  0  0  0
  -12.6070  -12.0710    8.7180 C   0  0  1  0  0  0  0  0  0  0  0  0
  -12.8970  -12.0600    7.1990 C   0  0  0  0  0  2  0  0  0  0  0  0
  -12.9220  -13.6240    7.1700 C   0  0  1  0  0  0  0  0  0  0  0  0
  -12.3510  -13.5940    8.6260 C   0  0  0  0  0  2  0  0  0  0  0  0
  -13.8130  -11.7560    9.5240 N   0  0  0  0  0  4  0  0  0  0  0  0
  -13.6330  -11.9010   10.5270 H   0  0  0  0  0  0  0  0  0  0  0  0
  -14.6310  -12.3210    9.2750 H   0  0  0  0  0  0  0  0  0  0  0  0
  -14.0790  -10.7670    9.4250 H   0  0  0  0  0  0  0  0  0  0  0  0
  -14.2800  -14.3060    6.9570 C   0  0  0  0  0  3  0  0  0  0  0  0
  -14.5930  -15.7720    7.1180 C   0  0  0  0  0  2  0  0  0  0  0  0
  -15.2390  -14.7670    8.0250 C   0  0  0  0  0  2  0  0  0  0  0  0
  -11.9640  -14.1660    6.2240 O   0  0  0  0  0  0  0  0  0  0  0  0
  -11.1040  -13.7380    6.3750 H   0  0  0  0  0  0  0  0  0  0  0  0
   -6.4120  -10.4410   10.1490 C   0  0  0  0  0  0  0  0  0  0  0  0
   -6.6150  -11.6720   10.7950 C   0  0  0  0  0  3  0  0  0  0  0  0
   -6.2060  -12.8680   10.2000 C   0  0  0  0  0  3  0  0  0  0  0  0
   -5.5840  -12.8520    8.9540 C   0  0  0  0  0  3  0  0  0  0  0  0
   -5.3680  -11.6400    8.3010 C   0  0  0  0  0  3  0  0  0  0  0  0
   -5.7770  -10.4440    8.8960 C   0  0  0  0  0  3  0  0  0  0  0  0
   -3.0600   -7.3500   12.6480 C   0  0  0  0  0  3  0  0  0  0  0  0
   -1.7740   -6.9080   12.7150 F   0  0  0  0  0  0  0  0  0  0  0  0
   -3.1660   -8.3660   13.5480 F   0  0  0  0  0  0  0  0  0  0  0  0
  1  2  1  0  0  0  0
  2  3  2  0  0  0  0
  3 11  1  0  0  0  0
  3  4  1  0  0  0  0
  4  5  2  0  0  0  0
  5  6  1  0  0  0  0
  6  7  2  0  0  0  0
  8  7  1  0  0  0  0
  9  8  2  0  0  0  0
 10  9  1  0  0  0  0
 10  6  1  0  0  0  0
 11 10  1  0  0  0  0
 12 11  2  0  0  0  0
 13  1  2  0  0  0  0
 13 12  1  0  0  0  0
 14 15  1  0  0  0  0
 15 16  2  0  0  0  0
 17  1  1  0  0  0  0
 17 16  1  0  0  0  0
 18 17  2  0  0  0  0
 19 18  1  0  0  0  0
 19 14  2  0  0  0  0
 20 14  1  0  0  0  0
 20 24  1  1  0  0  0
 21 20  1  0  0  0  0
 22 31  1  6  0  0  0
 22 21  1  0  0  0  0
 22 23  1  0  0  0  0
 23 20  1  0  0  0  0
 24 25  1  0  0  0  0
 26 24  1  0  0  0  0
 27 24  1  0  0  0  0
 28 29  1  0  0  0  0
 28 22  1  0  0  0  0
 28 30  1  0  0  0  0
 29 30  1  0  0  0  0
 31 32  1  0  0  0  0
 33 13  1  0  0  0  0
 33 34  1  0  0  0  0
 35 34  2  0  0  0  0
 36 35  1  0  0  0  0
 37 38  1  0  0  0  0
 37 36  2  0  0  0  0
 38 33  2  0  0  0  0
 39 40  1  0  0  0  0
 39  9  1  0  0  0  0
 39 41  1  0  0  0  0
M  END
>  <minimizedAffinity>
-5.01790714

$$$$
