
 OpenBabel11232420183D

 41 47  0  0  1  0  0  0  0  0999 V2000
   -5.1710   -5.7420   14.6830 C   0  0  0  0  0  0  0  0  0  0  0  0
   -4.5860   -4.8360   15.5100 N   0  0  0  0  0  0  0  0  0  0  0  0
   -3.2840   -5.0170   15.8180 C   0  0  0  0  0  0  0  0  0  0  0  0
   -2.7090   -4.0180   16.7160 C   0  0  0  0  0  3  0  0  0  0  0  0
   -1.4300   -4.1080   17.1000 C   0  0  0  0  0  3  0  0  0  0  0  0
   -0.6260   -5.1780   16.6430 C   0  0  0  0  0  0  0  0  0  0  0  0
    0.6300   -5.4620   16.8980 N   0  0  0  0  0  0  0  0  0  0  0  0
    0.9420   -6.6110   16.2340 N   0  0  0  0  0  0  0  0  0  0  0  0
   -0.1270   -7.0270   15.5760 C   0  0  0  0  0  0  0  0  0  0  0  0
   -1.1660   -6.1370   15.7860 N   0  0  0  0  0  0  0  0  0  0  0  0
   -2.5110   -6.0760   15.3360 C   0  0  0  0  0  0  0  0  0  0  0  0
   -3.1160   -6.9760   14.4640 C   0  0  0  0  0  3  0  0  0  0  0  0
   -4.4720   -6.8220   14.1140 C   0  0  0  0  0  0  0  0  0  0  0  0
   -9.4200   -5.1080   14.0520 C   0  0  0  0  0  0  0  0  0  0  0  0
   -8.9330   -5.9930   15.0380 C   0  0  0  0  0  3  0  0  0  0  0  0
   -7.5620   -6.1940   15.2470 C   0  0  0  0  0  3  0  0  0  0  0  0
   -6.6100   -5.5050   14.4890 C   0  0  0  0  0  0  0  0  0  0  0  0
   -7.0720   -4.6170   13.5110 C   0  0  0  0  0  3  0  0  0  0  0  0
   -8.4420   -4.4270   13.2970 C   0  0  0  0  0  3  0  0  0  0  0  0
  -10.9760   -4.9400   13.7670 C   0  0  1  0  0  0  0  0  0  0  0  0
  -11.7070   -6.0610   12.9920 C   0  0  0  0  0  2  0  0  0  0  0  0
  -12.8750   -6.0480   14.0340 C   0  0  1  0  0  0  0  0  0  0  0  0
  -11.9770   -5.1330   14.9310 C   0  0  0  0  0  2  0  0  0  0  0  0
  -11.1260   -3.6150   13.1170 N   0  0  0  0  0  4  0  0  0  0  0  0
  -10.7500   -2.8660   13.7150 H   0  0  0  0  0  0  0  0  0  0  0  0
  -12.0980   -3.3730   12.8990 H   0  0  0  0  0  0  0  0  0  0  0  0
  -10.5930   -3.5680   12.2380 H   0  0  0  0  0  0  0  0  0  0  0  0
  -14.2260   -5.4820   13.5750 C   0  0  0  0  0  3  0  0  0  0  0  0
  -15.0020   -5.8770   12.3450 C   0  0  0  0  0  2  0  0  0  0  0  0
  -15.5740   -6.1420   13.7060 C   0  0  0  0  0  2  0  0  0  0  0  0
  -13.0840   -7.3540   14.6310 O   0  0  0  0  0  0  0  0  0  0  0  0
  -12.2250   -7.6990   14.9310 H   0  0  0  0  0  0  0  0  0  0  0  0
   -5.0860   -7.7690   13.1670 C   0  0  0  0  0  0  0  0  0  0  0  0
   -5.5990   -9.0000   13.6110 C   0  0  0  0  0  3  0  0  0  0  0  0
   -6.1710   -9.9010   12.7100 C   0  0  0  0  0  3  0  0  0  0  0  0
   -6.2330   -9.5900   11.3540 C   0  0  0  0  0  3  0  0  0  0  0  0
   -5.7220   -8.3780   10.8950 C   0  0  0  0  0  3  0  0  0  0  0  0
   -5.1510   -7.4760   11.7950 C   0  0  0  0  0  3  0  0  0  0  0  0
   -0.1660   -8.2640   14.7760 C   0  0  0  0  0  3  0  0  0  0  0  0
    0.4130   -8.0880   13.5570 F   0  0  0  0  0  0  0  0  0  0  0  0
    0.5170   -9.2720   15.3850 F   0  0  0  0  0  0  0  0  0  0  0  0
  1  2  1  0  0  0  0
  2  3  2  0  0  0  0
  3  4  1  0  0  0  0
  4  5  2  0  0  0  0
  6  7  2  0  0  0  0
  6  5  1  0  0  0  0
  8  7  1  0  0  0  0
  9 10  1  0  0  0  0
  9  8  2  0  0  0  0
 10  6  1  0  0  0  0
 11 10  1  0  0  0  0
 11  3  1  0  0  0  0
 12 11  2  0  0  0  0
 13 12  1  0  0  0  0
 13  1  2  0  0  0  0
 14 15  1  0  0  0  0
 15 16  2  0  0  0  0
 17  1  1  0  0  0  0
 17 16  1  0  0  0  0
 18 17  2  0  0  0  0
 19 18  1  0  0  0  0
 19 14  2  0  0  0  0
 20 24  1  6  0  0  0
 20 14  1  0  0  0  0
 20 23  1  0  0  0  0
 21 20  1  0  0  0  0
 21 22  1  0  0  0  0
 22 31  1  1  0  0  0
 22 23  1  0  0  0  0
 24 25  1  0  0  0  0
 26 24  1  0  0  0  0
 27 24  1  0  0  0  0
 28 30  1  0  0  0  0
 28 22  1  0  0  0  0
 29 28  1  0  0  0  0
 29 30  1  0  0  0  0
 31 32  1  0  0  0  0
 33 34  1  0  0  0  0
 33 13  1  0  0  0  0
 35 34  2  0  0  0  0
 36 35  1  0  0  0  0
 37 36  2  0  0  0  0
 37 38  1  0  0  0  0
 38 33  2  0  0  0  0
 39 41  1  0  0  0  0
 39  9  1  0  0  0  0
 40 39  1  0  0  0  0
M  END
>  <minimizedAffinity>
-4.51202202

$$$$
