
 OpenBabel10152418343D

 39 42  0  0  1  0  0  0  0  0999 V2000
   -0.4490  -11.6690  -24.5020 C   0  0  0  0  0  0  0  0  0  0  0  0
    0.9470  -11.6500  -24.5720 C   0  0  0  0  0  3  0  0  0  0  0  0
    1.6080  -11.4420  -25.7990 C   0  0  0  0  0  0  0  0  0  0  0  0
    0.8360  -11.1840  -26.9440 C   0  0  0  0  0  3  0  0  0  0  0  0
   -0.5560  -11.1170  -26.8610 C   0  0  0  0  0  3  0  0  0  0  0  0
   -1.1890  -11.3560  -25.6470 C   0  0  0  0  0  0  0  0  0  0  0  0
   -2.5260  -11.2590  -25.5940 F   0  0  0  0  0  0  0  0  0  0  0  0
   -1.2780  -11.2740  -22.1550 C   0  0  0  0  0  0  0  0  0  0  0  0
   -1.5210  -11.8330  -21.0860 O   0  0  0  0  0  0  0  0  0  0  0  0
   -1.0270  -12.0380  -23.2750 N   0  0  0  0  0  0  0  0  0  0  0  0
   -1.3450  -12.9950  -23.1720 H   0  0  0  0  0  0  0  0  0  0  0  0
   -1.6970   -6.9850  -22.3000 C   0  0  0  0  0  0  0  0  0  0  0  0
   -1.3840   -7.6440  -21.1060 C   0  0  0  0  0  3  0  0  0  0  0  0
   -1.2420   -9.0360  -21.0710 C   0  0  0  0  0  3  0  0  0  0  0  0
   -1.4130   -9.7910  -22.2370 C   0  0  0  0  0  0  0  0  0  0  0  0
   -1.7920   -9.1390  -23.4160 C   0  0  0  0  0  3  0  0  0  0  0  0
   -1.8920   -7.7510  -23.4500 C   0  0  0  0  0  0  0  0  0  0  0  0
   -2.1850   -7.1880  -24.6310 F   0  0  0  0  0  0  0  0  0  0  0  0
   -0.7020   -4.8650  -22.7120 C   0  0  0  0  0  1  0  0  0  0  0  0
   -1.7870   -5.6240  -22.1900 O   0  0  0  0  0  0  0  0  0  0  0  0
    3.1310  -11.4860  -25.8960 C   0  0  1  0  0  3  0  0  0  0  0  0
    3.5430  -12.0380  -27.2650 C   0  0  0  0  0  1  0  0  0  0  0  0
    3.7000  -10.1510  -25.7240 N   0  0  0  0  0  0  0  0  0  0  0  0
    4.6990  -10.1420  -25.5340 H   0  0  0  0  0  0  0  0  0  0  0  0
    3.4620   -9.1270  -26.6240 C   0  0  0  0  0  0  0  0  0  0  0  0
    4.2260   -9.2370  -27.7300 N   0  0  0  0  0  0  0  0  0  0  0  0
    4.0330   -8.3510  -28.7220 C   0  0  0  0  0  3  0  0  0  0  0  0
    3.1110   -7.3250  -28.6660 C   0  0  0  0  0  3  0  0  0  0  0  0
    2.3550   -7.1330  -27.4950 C   0  0  0  0  0  0  0  0  0  0  0  0
    1.4100   -6.0790  -27.3200 C   0  0  0  0  0  0  0  0  0  0  0  0
    0.6770   -5.9490  -26.1320 C   0  0  0  0  0  3  0  0  0  0  0  0
    0.8980   -6.8230  -25.0820 C   0  0  0  0  0  3  0  0  0  0  0  0
    1.8270   -7.8500  -25.2310 C   0  0  0  0  0  3  0  0  0  0  0  0
    2.5440   -8.0600  -26.4340 C   0  0  0  0  0  0  0  0  0  0  0  0
    1.1010   -5.0570  -28.3520 C   0  0  0  0  0  0  0  0  0  0  0  0
    1.7540   -3.8630  -28.2720 N   0  0  0  0  0  0  0  0  0  0  0  0
    0.2370   -5.2520  -29.1990 O   0  0  0  0  0  0  0  0  0  0  0  0
    1.5100   -3.1550  -28.9530 H   0  0  0  0  0  0  0  0  0  0  0  0
    2.3920   -3.6230  -27.5270 H   0  0  0  0  0  0  0  0  0  0  0  0
  1 10  1  0  0  0  0
  2  1  1  0  0  0  0
  3  2  2  0  0  0  0
  4  5  2  0  0  0  0
  4  3  1  0  0  0  0
  5  6  1  0  0  0  0
  6  7  1  0  0  0  0
  6  1  2  0  0  0  0
  8  9  2  0  0  0  0
 10 11  1  0  0  0  0
 10  8  1  0  0  0  0
 12 20  1  0  0  0  0
 12 13  1  0  0  0  0
 13 14  2  0  0  0  0
 15  8  1  0  0  0  0
 15 14  1  0  0  0  0
 16 15  2  0  0  0  0
 17 16  1  0  0  0  0
 17 12  2  0  0  0  0
 18 17  1  0  0  0  0
 19 20  1  0  0  0  0
 21 22  1  6  0  0  0
 21  3  1  0  0  0  0
 21 23  1  0  0  0  0
 23 24  1  0  0  0  0
 25 34  1  0  0  0  0
 25 23  1  0  0  0  0
 26 25  2  0  0  0  0
 27 28  2  0  0  0  0
 27 26  1  0  0  0  0
 28 29  1  0  0  0  0
 29 30  2  0  0  0  0
 29 34  1  0  0  0  0
 30 31  1  0  0  0  0
 31 32  2  0  0  0  0
 33 32  1  0  0  0  0
 34 33  2  0  0  0  0
 35 36  1  0  0  0  0
 35 30  1  0  0  0  0
 36 39  1  0  0  0  0
 37 35  2  0  0  0  0
 38 36  1  0  0  0  0
M  END
>  <minimizedAffinity>
-8.51806068

$$$$

 OpenBabel10152418343D

 39 42  0  0  1  0  0  0  0  0999 V2000
    0.6260  -11.7670  -25.5970 C   0  0  0  0  0  0  0  0  0  0  0  0
    1.6960  -11.7220  -26.4940 C   0  0  0  0  0  3  0  0  0  0  0  0
    3.0270  -11.6720  -26.0330 C   0  0  0  0  0  0  0  0  0  0  0  0
    3.2620  -11.7380  -24.6490 C   0  0  0  0  0  3  0  0  0  0  0  0
    2.1990  -11.8700  -23.7540 C   0  0  0  0  0  3  0  0  0  0  0  0
    0.8920  -11.8860  -24.2290 C   0  0  0  0  0  0  0  0  0  0  0  0
   -0.1060  -12.0390  -23.3460 F   0  0  0  0  0  0  0  0  0  0  0  0
   -1.7480  -10.9250  -25.6840 C   0  0  0  0  0  0  0  0  0  0  0  0
   -2.8710  -11.1780  -26.1200 O   0  0  0  0  0  0  0  0  0  0  0  0
   -0.6690  -11.6550  -26.1340 N   0  0  0  0  0  0  0  0  0  0  0  0
   -0.8650  -12.1480  -26.9970 H   0  0  0  0  0  0  0  0  0  0  0  0
   -1.2010   -7.4460  -23.1970 C   0  0  0  0  0  0  0  0  0  0  0  0
   -1.3630   -7.3300  -24.5820 C   0  0  0  0  0  3  0  0  0  0  0  0
   -1.5480   -8.4650  -25.3800 C   0  0  0  0  0  3  0  0  0  0  0  0
   -1.5730   -9.7370  -24.7990 C   0  0  0  0  0  0  0  0  0  0  0  0
   -1.3440   -9.8580  -23.4240 C   0  0  0  0  0  3  0  0  0  0  0  0
   -1.2000   -8.7220  -22.6330 C   0  0  0  0  0  0  0  0  0  0  0  0
   -1.0590   -8.9090  -21.3130 F   0  0  0  0  0  0  0  0  0  0  0  0
   -0.2240   -5.2780  -23.1710 C   0  0  0  0  0  1  0  0  0  0  0  0
   -1.0470   -6.2540  -22.5420 O   0  0  0  0  0  0  0  0  0  0  0  0
    4.2000  -11.5560  -27.0040 C   0  0  1  0  0  3  0  0  0  0  0  0
    3.7110  -11.8100  -28.4330 C   0  0  0  0  0  1  0  0  0  0  0  0
    4.8040  -10.2280  -26.9300 N   0  0  0  0  0  0  0  0  0  0  0  0
    5.8120  -10.2180  -27.0620 H   0  0  0  0  0  0  0  0  0  0  0  0
    4.3040   -9.1500  -27.6400 C   0  0  0  0  0  0  0  0  0  0  0  0
    4.8770   -9.0350  -28.8550 N   0  0  0  0  0  0  0  0  0  0  0  0
    4.4210   -8.0770  -29.6810 C   0  0  0  0  0  3  0  0  0  0  0  0
    3.4130   -7.1940  -29.3480 C   0  0  0  0  0  3  0  0  0  0  0  0
    2.8490   -7.2360  -28.0600 C   0  0  0  0  0  0  0  0  0  0  0  0
    1.8350   -6.3420  -27.6040 C   0  0  0  0  0  0  0  0  0  0  0  0
    1.3040   -6.4430  -26.3110 C   0  0  0  0  0  3  0  0  0  0  0  0
    1.7960   -7.3920  -25.4320 C   0  0  0  0  0  3  0  0  0  0  0  0
    2.7960   -8.2630  -25.8560 C   0  0  0  0  0  3  0  0  0  0  0  0
    3.3170   -8.2420  -27.1720 C   0  0  0  0  0  0  0  0  0  0  0  0
    1.2430   -5.2610  -28.4320 C   0  0  0  0  0  0  0  0  0  0  0  0
    1.8700   -4.0500  -28.4310 N   0  0  0  0  0  0  0  0  0  0  0  0
    0.1900   -5.4290  -29.0360 O   0  0  0  0  0  0  0  0  0  0  0  0
    1.4410   -3.3050  -28.9650 H   0  0  0  0  0  0  0  0  0  0  0  0
    2.6780   -3.8390  -27.8630 H   0  0  0  0  0  0  0  0  0  0  0  0
  1  6  1  0  0  0  0
  2  3  1  0  0  0  0
  2  1  2  0  0  0  0
  3  4  2  0  0  0  0
  4  5  1  0  0  0  0
  6  5  2  0  0  0  0
  6  7  1  0  0  0  0
  8 15  1  0  0  0  0
  9  8  2  0  0  0  0
 10  8  1  0  0  0  0
 10  1  1  0  0  0  0
 11 10  1  0  0  0  0
 12 17  1  0  0  0  0
 12 20  1  0  0  0  0
 13 12  2  0  0  0  0
 14 15  2  0  0  0  0
 14 13  1  0  0  0  0
 15 16  1  0  0  0  0
 16 17  2  0  0  0  0
 17 18  1  0  0  0  0
 19 20  1  0  0  0  0
 21 22  1  6  0  0  0
 21 23  1  0  0  0  0
 21  3  1  0  0  0  0
 24 23  1  0  0  0  0
 25 34  1  0  0  0  0
 25 23  1  0  0  0  0
 26 25  2  0  0  0  0
 27 28  2  0  0  0  0
 27 26  1  0  0  0  0
 28 29  1  0  0  0  0
 29 30  2  0  0  0  0
 29 34  1  0  0  0  0
 30 31  1  0  0  0  0
 31 32  2  0  0  0  0
 33 32  1  0  0  0  0
 34 33  2  0  0  0  0
 35 36  1  0  0  0  0
 35 30  1  0  0  0  0
 36 39  1  0  0  0  0
 37 35  2  0  0  0  0
 38 36  1  0  0  0  0
M  END
>  <minimizedAffinity>
-8.12969112

$$$$
