
 OpenBabel11232420413D

 40 45  0  0  1  0  0  0  0  0999 V2000
  -19.5230   24.5400   11.9080 C   0  0  0  0  0  0  0  0  0  0  0  0
  -20.8450   24.7670   11.5640 C   0  0  0  0  0  3  0  0  0  0  0  0
  -21.3280   25.9930   11.2710 N   0  0  0  0  0  0  0  0  0  0  0  0
  -20.4530   27.0300   11.3190 C   0  0  0  0  0  3  0  0  0  0  0  0
  -19.0970   26.9060   11.6200 C   0  0  0  0  0  0  0  0  0  0  0  0
  -18.6330   25.6080   11.8690 C   0  0  0  0  0  3  0  0  0  0  0  0
  -18.2020   28.0600   11.7950 C   0  0  0  0  0  0  0  0  0  0  0  0
  -16.8610   28.0200   11.3330 C   0  0  0  0  0  3  0  0  0  0  0  0
  -15.9540   29.0480   11.6120 C   0  0  0  0  0  3  0  0  0  0  0  0
  -16.4140   30.1120   12.3550 C   0  0  0  0  0  0  0  0  0  0  0  0
  -17.7270   30.1990   12.8040 C   0  0  0  0  0  0  0  0  0  0  0  0
  -18.6340   29.1870   12.5200 C   0  0  0  0  0  3  0  0  0  0  0  0
  -17.9220   31.4950   13.5580 C   0  0  2  0  0  3  0  0  0  0  0  0
  -16.4940   32.0950   13.5040 C   0  0  0  0  0  0  0  0  0  0  0  0
  -16.1060   33.1470   13.9860 O   0  0  0  0  0  0  0  0  0  0  0  0
  -15.6970   31.2200   12.7690 N   0  0  0  0  0  0  0  0  0  0  0  0
  -14.7210   31.4030   12.5860 H   0  0  0  0  0  0  0  0  0  0  0  0
  -18.3810   31.3840   14.9740 C   0  0  0  0  0  0  0  0  0  0  0  0
  -18.2070   30.4090   15.9400 C   0  0  0  0  0  3  0  0  0  0  0  0
  -18.8040   30.8950   17.1260 C   0  0  0  0  0  3  0  0  0  0  0  0
  -19.2990   32.1400   16.8210 C   0  0  0  0  0  3  0  0  0  0  0  0
  -19.0530   32.4460   15.5230 O   0  0  0  0  0  0  0  0  0  0  0  0
  -19.0380   23.3280   12.3080 O   0  0  0  0  0  0  0  0  0  0  0  0
  -19.9480   22.2430   12.0210 C   0  0  0  0  0  2  0  0  0  0  0  0
  -19.2640   21.2150   11.0880 C   0  0  1  0  0  3  0  0  0  0  0  0
  -19.8860   19.8650   11.3600 N   0  0  0  0  0  4  0  0  0  0  0  0
  -20.9140   19.9520   11.3630 H   0  0  0  0  0  0  0  0  0  0  0  0
  -19.6230   19.5160   12.2910 H   0  0  0  0  0  0  0  0  0  0  0  0
  -19.6130   19.1540   10.6700 H   0  0  0  0  0  0  0  0  0  0  0  0
  -19.4100   21.5510    9.5900 C   0  0  0  0  0  2  0  0  0  0  0  0
  -18.1200   21.9380    8.9350 C   0  0  0  0  0  0  0  0  0  0  0  0
  -17.2990   23.0010    9.2570 C   0  0  0  0  0  3  0  0  0  0  0  0
  -16.2380   23.0080    8.3870 N   0  0  0  0  0  0  0  0  0  0  0  0
  -16.3570   21.9770    7.4870 C   0  0  0  0  0  0  0  0  0  0  0  0
  -15.5250   21.6160    6.4220 C   0  0  0  0  0  3  0  0  0  0  0  0
  -15.9070   20.5220    5.6410 C   0  0  0  0  0  3  0  0  0  0  0  0
  -17.0770   19.8220    5.9160 C   0  0  0  0  0  3  0  0  0  0  0  0
  -17.8980   20.1950    6.9860 C   0  0  0  0  0  3  0  0  0  0  0  0
  -17.5310   21.2920    7.7960 C   0  0  0  0  0  0  0  0  0  0  0  0
  -15.4850   23.6850    8.3800 H   0  0  0  0  0  0  0  0  0  0  0  0
  1 23  1  0  0  0  0
  2  1  2  0  0  0  0
  3  4  2  0  0  0  0
  3  2  1  0  0  0  0
  4  5  1  0  0  0  0
  5  7  1  0  0  0  0
  5  6  2  0  0  0  0
  6  1  1  0  0  0  0
  7 12  1  0  0  0  0
  8  9  1  0  0  0  0
  8  7  2  0  0  0  0
  9 10  2  0  0  0  0
 10 16  1  0  0  0  0
 10 11  1  0  0  0  0
 11 13  1  0  0  0  0
 12 11  2  0  0  0  0
 13 18  1  1  0  0  0
 14 13  1  0  0  0  0
 14 15  2  0  0  0  0
 16 14  1  0  0  0  0
 17 16  1  0  0  0  0
 18 22  1  0  0  0  0
 18 19  2  0  0  0  0
 19 20  1  0  0  0  0
 21 20  2  0  0  0  0
 22 21  1  0  0  0  0
 24 23  1  0  0  0  0
 25 30  1  6  0  0  0
 25 26  1  0  0  0  0
 25 24  1  0  0  0  0
 26 27  1  0  0  0  0
 26 28  1  0  0  0  0
 29 26  1  0  0  0  0
 31 32  2  0  0  0  0
 31 30  1  0  0  0  0
 33 32  1  0  0  0  0
 34 39  1  0  0  0  0
 34 33  1  0  0  0  0
 35 34  2  0  0  0  0
 36 37  2  0  0  0  0
 36 35  1  0  0  0  0
 37 38  1  0  0  0  0
 38 39  2  0  0  0  0
 39 31  1  0  0  0  0
 40 33  1  0  0  0  0
M  END
>  <minimizedAffinity>
-9.80649376

$$$$
