
 OpenBabel11232420413D

 40 45  0  0  1  0  0  0  0  0999 V2000
  -17.6670   24.3160   11.1250 C   0  0  0  0  0  0  0  0  0  0  0  0
  -16.8630   24.3040    9.9980 C   0  0  0  0  0  3  0  0  0  0  0  0
  -16.7280   25.3680    9.1800 N   0  0  0  0  0  0  0  0  0  0  0  0
  -17.4200   26.4900    9.5050 C   0  0  0  0  0  3  0  0  0  0  0  0
  -18.2280   26.6200   10.6330 C   0  0  0  0  0  0  0  0  0  0  0  0
  -18.2990   25.5040   11.4780 C   0  0  0  0  0  3  0  0  0  0  0  0
  -19.0700   27.7980   10.8910 C   0  0  0  0  0  0  0  0  0  0  0  0
  -19.4200   28.6890    9.8430 C   0  0  0  0  0  3  0  0  0  0  0  0
  -20.1000   29.8870   10.0900 C   0  0  0  0  0  3  0  0  0  0  0  0
  -20.4240   30.1720   11.3980 C   0  0  0  0  0  0  0  0  0  0  0  0
  -20.1190   29.3120   12.4480 C   0  0  0  0  0  0  0  0  0  0  0  0
  -19.4560   28.1180   12.2070 C   0  0  0  0  0  3  0  0  0  0  0  0
  -20.6330   29.8950   13.7450 C   0  0  2  0  0  3  0  0  0  0  0  0
  -21.2280   31.2410   13.2600 C   0  0  0  0  0  0  0  0  0  0  0  0
  -21.7630   32.1080   13.9310 O   0  0  0  0  0  0  0  0  0  0  0  0
  -21.0670   31.2980   11.8770 N   0  0  0  0  0  0  0  0  0  0  0  0
  -21.3890   32.0820   11.3270 H   0  0  0  0  0  0  0  0  0  0  0  0
  -19.6250   30.1330   14.8190 C   0  0  0  0  0  0  0  0  0  0  0  0
  -18.2440   30.2200   14.8020 C   0  0  0  0  0  3  0  0  0  0  0  0
  -17.8370   30.5450   16.1170 C   0  0  0  0  0  3  0  0  0  0  0  0
  -18.9890   30.6470   16.8580 C   0  0  0  0  0  3  0  0  0  0  0  0
  -20.0770   30.3970   16.0860 O   0  0  0  0  0  0  0  0  0  0  0  0
  -17.8990   23.2210   11.9070 O   0  0  0  0  0  0  0  0  0  0  0  0
  -19.2570   23.1620   12.3940 C   0  0  0  0  0  2  0  0  0  0  0  0
  -19.9640   21.9030   11.8370 C   0  0  1  0  0  3  0  0  0  0  0  0
  -21.3520   21.8560   12.4320 N   0  0  0  0  0  4  0  0  0  0  0  0
  -21.8000   22.7800   12.3360 H   0  0  0  0  0  0  0  0  0  0  0  0
  -21.3180   21.6540   13.4390 H   0  0  0  0  0  0  0  0  0  0  0  0
  -21.9510   21.1470   11.9890 H   0  0  0  0  0  0  0  0  0  0  0  0
  -20.0660   21.8840   10.2990 C   0  0  0  0  0  2  0  0  0  0  0  0
  -19.1450   20.8980    9.6500 C   0  0  0  0  0  0  0  0  0  0  0  0
  -18.1660   21.1530    8.7090 C   0  0  0  0  0  3  0  0  0  0  0  0
  -17.5790   19.9630    8.3600 N   0  0  0  0  0  0  0  0  0  0  0  0
  -18.1670   18.9270    9.0450 C   0  0  0  0  0  0  0  0  0  0  0  0
  -17.9040   17.5530    8.9920 C   0  0  0  0  0  3  0  0  0  0  0  0
  -18.6840   16.7110    9.7880 C   0  0  0  0  0  3  0  0  0  0  0  0
  -19.6890   17.2260   10.6010 C   0  0  0  0  0  3  0  0  0  0  0  0
  -19.9390   18.6020   10.6430 C   0  0  0  0  0  3  0  0  0  0  0  0
  -19.1600   19.4760    9.8550 C   0  0  0  0  0  0  0  0  0  0  0  0
  -16.8380   19.8480    7.6790 H   0  0  0  0  0  0  0  0  0  0  0  0
  1  6  1  0  0  0  0
  1 23  1  0  0  0  0
  2  1  2  0  0  0  0
  3  4  2  0  0  0  0
  3  2  1  0  0  0  0
  4  5  1  0  0  0  0
  5  7  1  0  0  0  0
  5  6  2  0  0  0  0
  7 12  1  0  0  0  0
  8  9  1  0  0  0  0
  8  7  2  0  0  0  0
  9 10  2  0  0  0  0
 10 16  1  0  0  0  0
 10 11  1  0  0  0  0
 11 13  1  0  0  0  0
 12 11  2  0  0  0  0
 13 18  1  1  0  0  0
 14 13  1  0  0  0  0
 14 15  2  0  0  0  0
 16 14  1  0  0  0  0
 17 16  1  0  0  0  0
 18 22  1  0  0  0  0
 19 18  2  0  0  0  0
 19 20  1  0  0  0  0
 20 21  2  0  0  0  0
 22 21  1  0  0  0  0
 23 24  1  0  0  0  0
 25 30  1  6  0  0  0
 25 24  1  0  0  0  0
 25 26  1  0  0  0  0
 26 28  1  0  0  0  0
 27 26  1  0  0  0  0
 29 26  1  0  0  0  0
 31 39  1  0  0  0  0
 31 30  1  0  0  0  0
 32 31  2  0  0  0  0
 33 32  1  0  0  0  0
 33 34  1  0  0  0  0
 34 39  1  0  0  0  0
 35 34  2  0  0  0  0
 35 36  1  0  0  0  0
 36 37  2  0  0  0  0
 37 38  1  0  0  0  0
 39 38  2  0  0  0  0
 40 33  1  0  0  0  0
M  END
>  <minimizedAffinity>
-9.90198708

$$$$
