
 OpenBabel11232420413D

 40 45  0  0  1  0  0  0  0  0999 V2000
  -21.4550   19.4860   12.7160 C   0  0  0  0  0  0  0  0  0  0  0  0
  -22.5760   20.2170   13.0730 C   0  0  0  0  0  3  0  0  0  0  0  0
  -22.6910   21.5420   12.8470 N   0  0  0  0  0  0  0  0  0  0  0  0
  -21.6470   22.1590   12.2350 C   0  0  0  0  0  3  0  0  0  0  0  0
  -20.4900   21.5110   11.8050 C   0  0  0  0  0  0  0  0  0  0  0  0
  -20.4370   20.1270   12.0180 C   0  0  0  0  0  3  0  0  0  0  0  0
  -19.3210   22.2230   11.2660 C   0  0  0  0  0  0  0  0  0  0  0  0
  -18.0260   21.6480   11.3240 C   0  0  0  0  0  3  0  0  0  0  0  0
  -16.8840   22.3630   10.9460 C   0  0  0  0  0  3  0  0  0  0  0  0
  -17.0640   23.6560   10.5080 C   0  0  0  0  0  0  0  0  0  0  0  0
  -18.3200   24.2450   10.4140 C   0  0  0  0  0  0  0  0  0  0  0  0
  -19.4570   23.5370   10.7760 C   0  0  0  0  0  3  0  0  0  0  0  0
  -18.1820   25.6500    9.8730 C   0  0  2  0  0  3  0  0  0  0  0  0
  -16.6440   25.7710    9.7280 C   0  0  0  0  0  0  0  0  0  0  0  0
  -16.0020   26.7320    9.3370 O   0  0  0  0  0  0  0  0  0  0  0  0
  -16.0880   24.5510   10.1110 N   0  0  0  0  0  0  0  0  0  0  0  0
  -15.0930   24.3810   10.0910 H   0  0  0  0  0  0  0  0  0  0  0  0
  -18.7080   26.7540   10.7300 C   0  0  0  0  0  0  0  0  0  0  0  0
  -19.9580   27.3370   10.8390 C   0  0  0  0  0  3  0  0  0  0  0  0
  -19.8770   28.2850   11.8850 C   0  0  0  0  0  3  0  0  0  0  0  0
  -18.5890   28.2220   12.3590 C   0  0  0  0  0  3  0  0  0  0  0  0
  -17.8710   27.3020   11.6660 O   0  0  0  0  0  0  0  0  0  0  0  0
  -21.2750   18.1690   13.0280 O   0  0  0  0  0  0  0  0  0  0  0  0
  -20.0430   17.6340   12.4950 C   0  0  0  0  0  2  0  0  0  0  0  0
  -20.3490   16.6780   11.3160 C   0  0  1  0  0  3  0  0  0  0  0  0
  -21.6300   15.9460   11.6420 N   0  0  0  0  0  4  0  0  0  0  0  0
  -22.3440   16.6210   11.9540 H   0  0  0  0  0  0  0  0  0  0  0  0
  -21.4940   15.2890   12.4200 H   0  0  0  0  0  0  0  0  0  0  0  0
  -22.0000   15.4150   10.8430 H   0  0  0  0  0  0  0  0  0  0  0  0
  -20.5040   17.4010    9.9620 C   0  0  0  0  0  2  0  0  0  0  0  0
  -19.1980   17.7680    9.3280 C   0  0  0  0  0  0  0  0  0  0  0  0
  -18.0420   17.0140    9.2840 C   0  0  0  0  0  3  0  0  0  0  0  0
  -17.0760   17.7400    8.6330 N   0  0  0  0  0  0  0  0  0  0  0  0
  -17.5730   18.9660    8.2640 C   0  0  0  0  0  0  0  0  0  0  0  0
  -16.9450   20.0260    7.6010 C   0  0  0  0  0  3  0  0  0  0  0  0
  -17.6920   21.1840    7.3730 C   0  0  0  0  0  3  0  0  0  0  0  0
  -19.0140   21.2760    7.7960 C   0  0  0  0  0  3  0  0  0  0  0  0
  -19.6290   20.2060    8.4570 C   0  0  0  0  0  3  0  0  0  0  0  0
  -18.8990   19.0210    8.6920 C   0  0  0  0  0  0  0  0  0  0  0  0
  -16.1230   17.4390    8.4680 H   0  0  0  0  0  0  0  0  0  0  0  0
  1 23  1  0  0  0  0
  1  2  1  0  0  0  0
  3  2  2  0  0  0  0
  4  3  1  0  0  0  0
  5  6  1  0  0  0  0
  5  4  2  0  0  0  0
  6  1  2  0  0  0  0
  7  8  1  0  0  0  0
  7  5  1  0  0  0  0
  9  8  2  0  0  0  0
 10  9  1  0  0  0  0
 11 10  2  0  0  0  0
 11 12  1  0  0  0  0
 12  7  2  0  0  0  0
 13 11  1  0  0  0  0
 13 18  1  1  0  0  0
 14 13  1  0  0  0  0
 14 16  1  0  0  0  0
 15 14  2  0  0  0  0
 16 10  1  0  0  0  0
 17 16  1  0  0  0  0
 18 19  2  0  0  0  0
 18 22  1  0  0  0  0
 19 20  1  0  0  0  0
 20 21  2  0  0  0  0
 22 21  1  0  0  0  0
 24 23  1  0  0  0  0
 25 30  1  6  0  0  0
 25 26  1  0  0  0  0
 25 24  1  0  0  0  0
 26 27  1  0  0  0  0
 26 28  1  0  0  0  0
 29 26  1  0  0  0  0
 31 30  1  0  0  0  0
 32 31  2  0  0  0  0
 33 32  1  0  0  0  0
 34 33  1  0  0  0  0
 34 39  1  0  0  0  0
 35 34  2  0  0  0  0
 36 35  1  0  0  0  0
 36 37  2  0  0  0  0
 37 38  1  0  0  0  0
 38 39  2  0  0  0  0
 39 31  1  0  0  0  0
 40 33  1  0  0  0  0
M  END
>  <minimizedAffinity>
-10.2185698

$$$$

 OpenBabel11232420413D

 40 45  0  0  1  0  0  0  0  0999 V2000
  -18.8270   18.5130    9.1240 C   0  0  0  0  0  0  0  0  0  0  0  0
  -18.2920   17.2370    9.2020 C   0  0  0  0  0  3  0  0  0  0  0  0
  -18.6150   16.3640   10.1790 N   0  0  0  0  0  0  0  0  0  0  0  0
  -19.5100   16.7810   11.1100 C   0  0  0  0  0  3  0  0  0  0  0  0
  -20.1330   18.0280   11.1050 C   0  0  0  0  0  0  0  0  0  0  0  0
  -19.8020   18.8820   10.0440 C   0  0  0  0  0  3  0  0  0  0  0  0
  -20.9960   18.5030   12.1960 C   0  0  0  0  0  0  0  0  0  0  0  0
  -21.3070   19.8800   12.3350 C   0  0  0  0  0  3  0  0  0  0  0  0
  -22.0090   20.3700   13.4420 C   0  0  0  0  0  3  0  0  0  0  0  0
  -22.3940   19.4590   14.4000 C   0  0  0  0  0  0  0  0  0  0  0  0
  -22.1290   18.0980   14.2870 C   0  0  0  0  0  0  0  0  0  0  0  0
  -21.4440   17.6060   13.1860 C   0  0  0  0  0  3  0  0  0  0  0  0
  -22.7070   17.3680   15.4790 C   0  0  2  0  0  3  0  0  0  0  0  0
  -23.2910   18.5440   16.3020 C   0  0  0  0  0  0  0  0  0  0  0  0
  -23.8650   18.4920   17.3780 O   0  0  0  0  0  0  0  0  0  0  0  0
  -23.0690   19.7150   15.5790 N   0  0  0  0  0  0  0  0  0  0  0  0
  -23.3740   20.6190   15.9100 H   0  0  0  0  0  0  0  0  0  0  0  0
  -21.7500   16.5810   16.3120 C   0  0  0  0  0  0  0  0  0  0  0  0
  -20.8040   16.9530   17.2500 C   0  0  0  0  0  3  0  0  0  0  0  0
  -20.2540   15.7590   17.7730 C   0  0  0  0  0  3  0  0  0  0  0  0
  -20.8990   14.7300   17.1320 C   0  0  0  0  0  3  0  0  0  0  0  0
  -21.8040   15.2140   16.2430 O   0  0  0  0  0  0  0  0  0  0  0  0
  -18.4370   19.4460    8.2070 O   0  0  0  0  0  0  0  0  0  0  0  0
  -17.0040   19.4840    8.0250 C   0  0  0  0  0  2  0  0  0  0  0  0
  -16.5190   20.9530    7.9690 C   0  0  1  0  0  3  0  0  0  0  0  0
  -15.9940   21.2070    6.5750 N   0  0  0  0  0  4  0  0  0  0  0  0
  -16.6760   20.8660    5.8810 H   0  0  0  0  0  0  0  0  0  0  0  0
  -15.1240   20.6880    6.4050 H   0  0  0  0  0  0  0  0  0  0  0  0
  -15.8060   22.2030    6.3960 H   0  0  0  0  0  0  0  0  0  0  0  0
  -17.6230   21.9790    8.2950 C   0  0  0  0  0  2  0  0  0  0  0  0
  -17.6740   22.3640    9.7410 C   0  0  0  0  0  0  0  0  0  0  0  0
  -16.8510   21.9230   10.7590 C   0  0  0  0  0  3  0  0  0  0  0  0
  -17.2650   22.5020   11.9330 N   0  0  0  0  0  0  0  0  0  0  0  0
  -18.3570   23.3040   11.7050 C   0  0  0  0  0  0  0  0  0  0  0  0
  -19.1110   24.0670   12.6030 C   0  0  0  0  0  3  0  0  0  0  0  0
  -20.2030   24.7770   12.0950 C   0  0  0  0  0  3  0  0  0  0  0  0
  -20.5240   24.7210   10.7430 C   0  0  0  0  0  3  0  0  0  0  0  0
  -19.7590   23.9540    9.8570 C   0  0  0  0  0  3  0  0  0  0  0  0
  -18.6460   23.2330   10.3430 C   0  0  0  0  0  0  0  0  0  0  0  0
  -16.8520   22.3470   12.8440 H   0  0  0  0  0  0  0  0  0  0  0  0
  1  2  2  0  0  0  0
  1  6  1  0  0  0  0
  2  3  1  0  0  0  0
  3  4  2  0  0  0  0
  5  4  1  0  0  0  0
  5  7  1  0  0  0  0
  6  5  2  0  0  0  0
  7  8  2  0  0  0  0
  7 12  1  0  0  0  0
  8  9  1  0  0  0  0
  9 10  2  0  0  0  0
 10 16  1  0  0  0  0
 11 10  1  0  0  0  0
 11 13  1  0  0  0  0
 12 11  2  0  0  0  0
 13 14  1  0  0  0  0
 13 18  1  1  0  0  0
 14 15  2  0  0  0  0
 16 17  1  0  0  0  0
 16 14  1  0  0  0  0
 18 19  2  0  0  0  0
 19 20  1  0  0  0  0
 21 20  2  0  0  0  0
 22 18  1  0  0  0  0
 22 21  1  0  0  0  0
 23  1  1  0  0  0  0
 24 23  1  0  0  0  0
 25 24  1  6  0  0  0
 25 30  1  0  0  0  0
 26 25  1  0  0  0  0
 27 26  1  0  0  0  0
 28 26  1  0  0  0  0
 29 26  1  0  0  0  0
 30 31  1  0  0  0  0
 31 39  1  0  0  0  0
 31 32  2  0  0  0  0
 32 33  1  0  0  0  0
 33 40  1  0  0  0  0
 34 33  1  0  0  0  0
 34 35  1  0  0  0  0
 36 35  2  0  0  0  0
 37 36  1  0  0  0  0
 38 39  1  0  0  0  0
 38 37  2  0  0  0  0
 39 34  2  0  0  0  0
M  END
>  <minimizedAffinity>
-10.1367083

$$$$

 OpenBabel11232420413D

 40 45  0  0  1  0  0  0  0  0999 V2000
  -17.2680   24.8520    9.6630 C   0  0  0  0  0  0  0  0  0  0  0  0
  -15.9290   25.0900    9.9260 C   0  0  0  0  0  3  0  0  0  0  0  0
  -15.4870   26.2170   10.5240 N   0  0  0  0  0  0  0  0  0  0  0  0
  -16.4210   27.1370   10.8770 C   0  0  0  0  0  3  0  0  0  0  0  0
  -17.7940   26.9800   10.6910 C   0  0  0  0  0  0  0  0  0  0  0  0
  -18.2080   25.7740   10.1100 C   0  0  0  0  0  3  0  0  0  0  0  0
  -18.7710   28.0460   10.9610 C   0  0  0  0  0  0  0  0  0  0  0  0
  -19.2110   28.9120    9.9270 C   0  0  0  0  0  3  0  0  0  0  0  0
  -20.0300   30.0160   10.1890 C   0  0  0  0  0  3  0  0  0  0  0  0
  -20.4000   30.2330   11.4970 C   0  0  0  0  0  0  0  0  0  0  0  0
  -20.0080   29.3920   12.5340 C   0  0  0  0  0  0  0  0  0  0  0  0
  -19.2060   28.2890   12.2780 C   0  0  0  0  0  3  0  0  0  0  0  0
  -20.6010   29.8820   13.8360 C   0  0  2  0  0  3  0  0  0  0  0  0
  -21.3440   31.1600   13.3700 C   0  0  0  0  0  0  0  0  0  0  0  0
  -21.9850   31.9440   14.0520 O   0  0  0  0  0  0  0  0  0  0  0  0
  -21.1760   31.2650   11.9910 N   0  0  0  0  0  0  0  0  0  0  0  0
  -21.5820   32.0180   11.4530 H   0  0  0  0  0  0  0  0  0  0  0  0
  -19.6390   30.2140   14.9280 C   0  0  0  0  0  0  0  0  0  0  0  0
  -19.8090   30.4600   16.2790 C   0  0  0  0  0  3  0  0  0  0  0  0
  -18.5180   30.6370   16.8280 C   0  0  0  0  0  3  0  0  0  0  0  0
  -17.6350   30.4800   15.7870 C   0  0  0  0  0  3  0  0  0  0  0  0
  -18.3010   30.2280   14.6320 O   0  0  0  0  0  0  0  0  0  0  0  0
  -17.7250   23.7690    8.9680 O   0  0  0  0  0  0  0  0  0  0  0  0
  -18.1340   22.6850    9.8320 C   0  0  0  0  0  2  0  0  0  0  0  0
  -19.4730   22.0900    9.3350 C   0  0  1  0  0  3  0  0  0  0  0  0
  -20.4860   23.2100    9.3000 N   0  0  0  0  0  4  0  0  0  0  0  0
  -20.0800   24.0290    8.8220 H   0  0  0  0  0  0  0  0  0  0  0  0
  -20.7290   23.5210   10.2490 H   0  0  0  0  0  0  0  0  0  0  0  0
  -21.3580   22.9450    8.8230 H   0  0  0  0  0  0  0  0  0  0  0  0
  -19.3790   21.4430    7.9380 C   0  0  0  0  0  2  0  0  0  0  0  0
  -18.3560   20.3530    7.8520 C   0  0  0  0  0  0  0  0  0  0  0  0
  -18.2970   19.1920    8.5990 C   0  0  0  0  0  3  0  0  0  0  0  0
  -17.1820   18.4880    8.2190 N   0  0  0  0  0  0  0  0  0  0  0  0
  -16.4980   19.1750    7.2460 C   0  0  0  0  0  0  0  0  0  0  0  0
  -15.3090   18.8470    6.5850 C   0  0  0  0  0  3  0  0  0  0  0  0
  -14.8160   19.7560    5.6440 C   0  0  0  0  0  3  0  0  0  0  0  0
  -15.4880   20.9450    5.3800 C   0  0  0  0  0  3  0  0  0  0  0  0
  -16.6770   21.2580    6.0490 C   0  0  0  0  0  3  0  0  0  0  0  0
  -17.2010   20.3530    6.9980 C   0  0  0  0  0  0  0  0  0  0  0  0
  -16.8810   17.6050    8.6100 H   0  0  0  0  0  0  0  0  0  0  0  0
  1  2  2  0  0  0  0
  1  6  1  0  0  0  0
  2  3  1  0  0  0  0
  3  4  2  0  0  0  0
  5  4  1  0  0  0  0
  5  7  1  0  0  0  0
  6  5  2  0  0  0  0
  7 12  1  0  0  0  0
  8  9  1  0  0  0  0
  8  7  2  0  0  0  0
  9 10  2  0  0  0  0
 10 16  1  0  0  0  0
 10 11  1  0  0  0  0
 11 13  1  0  0  0  0
 12 11  2  0  0  0  0
 13 18  1  1  0  0  0
 14 13  1  0  0  0  0
 14 15  2  0  0  0  0
 16 14  1  0  0  0  0
 17 16  1  0  0  0  0
 18 19  2  0  0  0  0
 19 20  1  0  0  0  0
 21 20  2  0  0  0  0
 22 18  1  0  0  0  0
 22 21  1  0  0  0  0
 23  1  1  0  0  0  0
 23 24  1  0  0  0  0
 25 30  1  6  0  0  0
 25 24  1  0  0  0  0
 26 25  1  0  0  0  0
 26 28  1  0  0  0  0
 27 26  1  0  0  0  0
 29 26  1  0  0  0  0
 31 30  1  0  0  0  0
 31 32  2  0  0  0  0
 33 32  1  0  0  0  0
 33 40  1  0  0  0  0
 34 33  1  0  0  0  0
 35 34  2  0  0  0  0
 36 35  1  0  0  0  0
 37 36  2  0  0  0  0
 37 38  1  0  0  0  0
 38 39  2  0  0  0  0
 39 34  1  0  0  0  0
 39 31  1  0  0  0  0
M  END
>  <minimizedAffinity>
-10.1076393

$$$$

 OpenBabel11232420413D

 40 45  0  0  1  0  0  0  0  0999 V2000
  -18.4400   23.9720   11.5820 C   0  0  0  0  0  0  0  0  0  0  0  0
  -19.7210   23.4800   11.7690 C   0  0  0  0  0  3  0  0  0  0  0  0
  -20.8030   24.2770   11.8910 N   0  0  0  0  0  0  0  0  0  0  0  0
  -20.5960   25.6170   11.8180 C   0  0  0  0  0  3  0  0  0  0  0  0
  -19.3550   26.2140   11.5980 C   0  0  0  0  0  0  0  0  0  0  0  0
  -18.2700   25.3430   11.4290 C   0  0  0  0  0  3  0  0  0  0  0  0
  -19.1380   27.6670   11.6550 C   0  0  0  0  0  0  0  0  0  0  0  0
  -17.9110   28.2390   11.2300 C   0  0  0  0  0  3  0  0  0  0  0  0
  -17.6310   29.5990   11.4060 C   0  0  0  0  0  3  0  0  0  0  0  0
  -18.6000   30.3700   12.0080 C   0  0  0  0  0  0  0  0  0  0  0  0
  -19.8230   29.8510   12.4160 C   0  0  0  0  0  0  0  0  0  0  0  0
  -20.1100   28.5060   12.2340 C   0  0  0  0  0  3  0  0  0  0  0  0
  -20.6710   30.9540   13.0080 C   0  0  2  0  0  3  0  0  0  0  0  0
  -19.7060   32.1630   12.9140 C   0  0  0  0  0  0  0  0  0  0  0  0
  -19.9060   33.3110   13.2770 O   0  0  0  0  0  0  0  0  0  0  0  0
  -18.5340   31.7190   12.3050 N   0  0  0  0  0  0  0  0  0  0  0  0
  -17.7540   32.3350   12.1220 H   0  0  0  0  0  0  0  0  0  0  0  0
  -21.1270   30.7670   14.4170 C   0  0  0  0  0  0  0  0  0  0  0  0
  -20.4580   30.4220   15.5780 C   0  0  0  0  0  3  0  0  0  0  0  0
  -21.4030   30.4810   16.6280 C   0  0  0  0  0  3  0  0  0  0  0  0
  -22.5890   30.8650   16.0530 C   0  0  0  0  0  3  0  0  0  0  0  0
  -22.4370   31.0380   14.7160 O   0  0  0  0  0  0  0  0  0  0  0  0
  -17.3220   23.1900   11.5610 O   0  0  0  0  0  0  0  0  0  0  0  0
  -17.4290   22.0900   10.6290 C   0  0  0  0  0  2  0  0  0  0  0  0
  -17.7250   22.6280    9.2090 C   0  0  1  0  0  3  0  0  0  0  0  0
  -16.4090   22.7300    8.4740 N   0  0  0  0  0  4  0  0  0  0  0  0
  -15.8800   21.8530    8.5900 H   0  0  0  0  0  0  0  0  0  0  0  0
  -15.8220   23.4770    8.8670 H   0  0  0  0  0  0  0  0  0  0  0  0
  -16.5270   22.9180    7.4700 H   0  0  0  0  0  0  0  0  0  0  0  0
  -18.6930   21.7380    8.4030 C   0  0  0  0  0  2  0  0  0  0  0  0
  -18.2980   20.2930    8.3800 C   0  0  0  0  0  0  0  0  0  0  0  0
  -17.4580   19.6650    7.4800 C   0  0  0  0  0  3  0  0  0  0  0  0
  -17.3950   18.3330    7.8050 N   0  0  0  0  0  0  0  0  0  0  0  0
  -18.1920   18.0730    8.8940 C   0  0  0  0  0  0  0  0  0  0  0  0
  -18.4430   16.8640    9.5520 C   0  0  0  0  0  3  0  0  0  0  0  0
  -19.3300   16.8850   10.6320 C   0  0  0  0  0  3  0  0  0  0  0  0
  -19.9420   18.0680   11.0310 C   0  0  0  0  0  3  0  0  0  0  0  0
  -19.6790   19.2700   10.3620 C   0  0  0  0  0  3  0  0  0  0  0  0
  -18.7800   19.2780    9.2730 C   0  0  0  0  0  0  0  0  0  0  0  0
  -16.8640   17.6290    7.3070 H   0  0  0  0  0  0  0  0  0  0  0  0
  1  2  1  0  0  0  0
  2  3  2  0  0  0  0
  4  3  1  0  0  0  0
  5  7  1  0  0  0  0
  5  4  2  0  0  0  0
  6  1  2  0  0  0  0
  6  5  1  0  0  0  0
  7 12  1  0  0  0  0
  8  9  1  0  0  0  0
  8  7  2  0  0  0  0
  9 10  2  0  0  0  0
 10 16  1  0  0  0  0
 10 11  1  0  0  0  0
 11 13  1  0  0  0  0
 12 11  2  0  0  0  0
 13 18  1  1  0  0  0
 14 13  1  0  0  0  0
 14 15  2  0  0  0  0
 16 14  1  0  0  0  0
 17 16  1  0  0  0  0
 18 22  1  0  0  0  0
 18 19  2  0  0  0  0
 19 20  1  0  0  0  0
 21 20  2  0  0  0  0
 22 21  1  0  0  0  0
 23  1  1  0  0  0  0
 24 23  1  0  0  0  0
 25 30  1  6  0  0  0
 25 24  1  0  0  0  0
 26 27  1  0  0  0  0
 26 28  1  0  0  0  0
 26 25  1  0  0  0  0
 29 26  1  0  0  0  0
 31 30  1  0  0  0  0
 31 39  1  0  0  0  0
 32 33  1  0  0  0  0
 32 31  2  0  0  0  0
 33 34  1  0  0  0  0
 34 39  2  0  0  0  0
 34 35  1  0  0  0  0
 35 36  2  0  0  0  0
 36 37  1  0  0  0  0
 38 37  2  0  0  0  0
 39 38  1  0  0  0  0
 40 33  1  0  0  0  0
M  END
>  <minimizedAffinity>
-10.0800428

$$$$

 OpenBabel11232420413D

 40 45  0  0  1  0  0  0  0  0999 V2000
  -17.5180   20.6600    8.6080 C   0  0  0  0  0  0  0  0  0  0  0  0
  -17.0610   19.4890    8.0270 C   0  0  0  0  0  3  0  0  0  0  0  0
  -17.5240   18.2690    8.3700 N   0  0  0  0  0  0  0  0  0  0  0  0
  -18.4840   18.2190    9.3290 C   0  0  0  0  0  3  0  0  0  0  0  0
  -19.0370   19.3380    9.9510 C   0  0  0  0  0  0  0  0  0  0  0  0
  -18.5590   20.5840    9.5260 C   0  0  0  0  0  3  0  0  0  0  0  0
  -19.9790   19.2510   11.0770 C   0  0  0  0  0  0  0  0  0  0  0  0
  -20.5570   20.4180   11.6380 C   0  0  0  0  0  3  0  0  0  0  0  0
  -21.3430   20.3700   12.7950 C   0  0  0  0  0  3  0  0  0  0  0  0
  -21.5410   19.1360   13.3730 C   0  0  0  0  0  0  0  0  0  0  0  0
  -21.0120   17.9660   12.8390 C   0  0  0  0  0  0  0  0  0  0  0  0
  -20.2410   18.0070   11.6860 C   0  0  0  0  0  3  0  0  0  0  0  0
  -21.4350   16.7860   13.6840 C   0  0  2  0  0  3  0  0  0  0  0  0
  -22.2410   17.4880   14.8050 C   0  0  0  0  0  0  0  0  0  0  0  0
  -22.7940   16.9730   15.7640 O   0  0  0  0  0  0  0  0  0  0  0  0
  -22.2550   18.8520   14.5230 N   0  0  0  0  0  0  0  0  0  0  0  0
  -22.7330   19.5210   15.1100 H   0  0  0  0  0  0  0  0  0  0  0  0
  -20.3410   15.9580   14.2750 C   0  0  0  0  0  0  0  0  0  0  0  0
  -19.9070   14.6690   14.0260 C   0  0  0  0  0  3  0  0  0  0  0  0
  -18.7720   14.4540   14.8420 C   0  0  0  0  0  3  0  0  0  0  0  0
  -18.5720   15.6240   15.5330 C   0  0  0  0  0  3  0  0  0  0  0  0
  -19.5170   16.5400   15.2020 O   0  0  0  0  0  0  0  0  0  0  0  0
  -16.9910   21.8930    8.3500 O   0  0  0  0  0  0  0  0  0  0  0  0
  -17.6790   22.9510    9.0530 C   0  0  0  0  0  2  0  0  0  0  0  0
  -16.9610   23.2490   10.3910 C   0  0  1  0  0  3  0  0  0  0  0  0
  -16.0870   24.4630   10.1810 N   0  0  0  0  0  4  0  0  0  0  0  0
  -16.6320   25.2050    9.7150 H   0  0  0  0  0  0  0  0  0  0  0  0
  -15.2980   24.2500    9.5580 H   0  0  0  0  0  0  0  0  0  0  0  0
  -15.7030   24.8350   11.0600 H   0  0  0  0  0  0  0  0  0  0  0  0
  -17.9280   23.5120   11.5630 C   0  0  0  0  0  2  0  0  0  0  0  0
  -19.0420   24.4520   11.2200 C   0  0  0  0  0  0  0  0  0  0  0  0
  -20.2590   24.1400   10.6450 C   0  0  0  0  0  3  0  0  0  0  0  0
  -20.9690   25.3030   10.4760 N   0  0  0  0  0  0  0  0  0  0  0  0
  -20.2320   26.3750   10.9160 C   0  0  0  0  0  0  0  0  0  0  0  0
  -20.5480   27.7390   10.9200 C   0  0  0  0  0  3  0  0  0  0  0  0
  -19.5860   28.6270   11.4090 C   0  0  0  0  0  3  0  0  0  0  0  0
  -18.3570   28.1660   11.8710 C   0  0  0  0  0  3  0  0  0  0  0  0
  -18.0570   26.7980   11.8610 C   0  0  0  0  0  3  0  0  0  0  0  0
  -19.0140   25.8790   11.3800 C   0  0  0  0  0  0  0  0  0  0  0  0
  -21.8900   25.3760   10.0630 H   0  0  0  0  0  0  0  0  0  0  0  0
  1  6  1  0  0  0  0
  2  3  1  0  0  0  0
  2  1  2  0  0  0  0
  3  4  2  0  0  0  0
  4  5  1  0  0  0  0
  5  7  1  0  0  0  0
  6  5  2  0  0  0  0
  7  8  2  0  0  0  0
  7 12  1  0  0  0  0
  8  9  1  0  0  0  0
  9 10  2  0  0  0  0
 10 16  1  0  0  0  0
 11 10  1  0  0  0  0
 11 13  1  0  0  0  0
 12 11  2  0  0  0  0
 13 18  1  1  0  0  0
 13 14  1  0  0  0  0
 14 15  2  0  0  0  0
 16 14  1  0  0  0  0
 16 17  1  0  0  0  0
 18 22  1  0  0  0  0
 19 18  2  0  0  0  0
 19 20  1  0  0  0  0
 20 21  2  0  0  0  0
 22 21  1  0  0  0  0
 23  1  1  0  0  0  0
 23 24  1  0  0  0  0
 25 24  1  6  0  0  0
 25 30  1  0  0  0  0
 26 25  1  0  0  0  0
 26 29  1  0  0  0  0
 27 26  1  0  0  0  0
 28 26  1  0  0  0  0
 31 39  1  0  0  0  0
 31 30  1  0  0  0  0
 32 31  2  0  0  0  0
 33 32  1  0  0  0  0
 33 34  1  0  0  0  0
 34 35  2  0  0  0  0
 34 39  1  0  0  0  0
 35 36  1  0  0  0  0
 36 37  2  0  0  0  0
 38 37  1  0  0  0  0
 39 38  2  0  0  0  0
 40 33  1  0  0  0  0
M  END
>  <minimizedAffinity>
-9.98398018

$$$$

 OpenBabel11232420413D

 40 45  0  0  1  0  0  0  0  0999 V2000
  -17.6670   24.3160   11.1250 C   0  0  0  0  0  0  0  0  0  0  0  0
  -16.8630   24.3040    9.9980 C   0  0  0  0  0  3  0  0  0  0  0  0
  -16.7280   25.3680    9.1800 N   0  0  0  0  0  0  0  0  0  0  0  0
  -17.4200   26.4900    9.5050 C   0  0  0  0  0  3  0  0  0  0  0  0
  -18.2280   26.6200   10.6330 C   0  0  0  0  0  0  0  0  0  0  0  0
  -18.2990   25.5040   11.4780 C   0  0  0  0  0  3  0  0  0  0  0  0
  -19.0700   27.7980   10.8910 C   0  0  0  0  0  0  0  0  0  0  0  0
  -19.4200   28.6890    9.8430 C   0  0  0  0  0  3  0  0  0  0  0  0
  -20.1000   29.8870   10.0900 C   0  0  0  0  0  3  0  0  0  0  0  0
  -20.4240   30.1720   11.3980 C   0  0  0  0  0  0  0  0  0  0  0  0
  -20.1190   29.3120   12.4480 C   0  0  0  0  0  0  0  0  0  0  0  0
  -19.4560   28.1180   12.2070 C   0  0  0  0  0  3  0  0  0  0  0  0
  -20.6330   29.8950   13.7450 C   0  0  2  0  0  3  0  0  0  0  0  0
  -21.2280   31.2410   13.2600 C   0  0  0  0  0  0  0  0  0  0  0  0
  -21.7630   32.1080   13.9310 O   0  0  0  0  0  0  0  0  0  0  0  0
  -21.0670   31.2980   11.8770 N   0  0  0  0  0  0  0  0  0  0  0  0
  -21.3890   32.0820   11.3270 H   0  0  0  0  0  0  0  0  0  0  0  0
  -19.6250   30.1330   14.8190 C   0  0  0  0  0  0  0  0  0  0  0  0
  -18.2440   30.2200   14.8020 C   0  0  0  0  0  3  0  0  0  0  0  0
  -17.8370   30.5450   16.1170 C   0  0  0  0  0  3  0  0  0  0  0  0
  -18.9890   30.6470   16.8580 C   0  0  0  0  0  3  0  0  0  0  0  0
  -20.0770   30.3970   16.0860 O   0  0  0  0  0  0  0  0  0  0  0  0
  -17.8990   23.2210   11.9070 O   0  0  0  0  0  0  0  0  0  0  0  0
  -19.2570   23.1620   12.3940 C   0  0  0  0  0  2  0  0  0  0  0  0
  -19.9640   21.9030   11.8370 C   0  0  1  0  0  3  0  0  0  0  0  0
  -21.3520   21.8560   12.4320 N   0  0  0  0  0  4  0  0  0  0  0  0
  -21.8000   22.7800   12.3360 H   0  0  0  0  0  0  0  0  0  0  0  0
  -21.3180   21.6540   13.4390 H   0  0  0  0  0  0  0  0  0  0  0  0
  -21.9510   21.1470   11.9890 H   0  0  0  0  0  0  0  0  0  0  0  0
  -20.0660   21.8840   10.2990 C   0  0  0  0  0  2  0  0  0  0  0  0
  -19.1450   20.8980    9.6500 C   0  0  0  0  0  0  0  0  0  0  0  0
  -18.1660   21.1530    8.7090 C   0  0  0  0  0  3  0  0  0  0  0  0
  -17.5790   19.9630    8.3600 N   0  0  0  0  0  0  0  0  0  0  0  0
  -18.1670   18.9270    9.0450 C   0  0  0  0  0  0  0  0  0  0  0  0
  -17.9040   17.5530    8.9920 C   0  0  0  0  0  3  0  0  0  0  0  0
  -18.6840   16.7110    9.7880 C   0  0  0  0  0  3  0  0  0  0  0  0
  -19.6890   17.2260   10.6010 C   0  0  0  0  0  3  0  0  0  0  0  0
  -19.9390   18.6020   10.6430 C   0  0  0  0  0  3  0  0  0  0  0  0
  -19.1600   19.4760    9.8550 C   0  0  0  0  0  0  0  0  0  0  0  0
  -16.8380   19.8480    7.6790 H   0  0  0  0  0  0  0  0  0  0  0  0
  1  6  1  0  0  0  0
  1 23  1  0  0  0  0
  2  1  2  0  0  0  0
  3  4  2  0  0  0  0
  3  2  1  0  0  0  0
  4  5  1  0  0  0  0
  5  7  1  0  0  0  0
  5  6  2  0  0  0  0
  7 12  1  0  0  0  0
  8  9  1  0  0  0  0
  8  7  2  0  0  0  0
  9 10  2  0  0  0  0
 10 16  1  0  0  0  0
 10 11  1  0  0  0  0
 11 13  1  0  0  0  0
 12 11  2  0  0  0  0
 13 18  1  1  0  0  0
 14 13  1  0  0  0  0
 14 15  2  0  0  0  0
 16 14  1  0  0  0  0
 17 16  1  0  0  0  0
 18 22  1  0  0  0  0
 19 18  2  0  0  0  0
 19 20  1  0  0  0  0
 20 21  2  0  0  0  0
 22 21  1  0  0  0  0
 23 24  1  0  0  0  0
 25 30  1  6  0  0  0
 25 24  1  0  0  0  0
 25 26  1  0  0  0  0
 26 28  1  0  0  0  0
 27 26  1  0  0  0  0
 29 26  1  0  0  0  0
 31 39  1  0  0  0  0
 31 30  1  0  0  0  0
 32 31  2  0  0  0  0
 33 32  1  0  0  0  0
 33 34  1  0  0  0  0
 34 39  1  0  0  0  0
 35 34  2  0  0  0  0
 35 36  1  0  0  0  0
 36 37  2  0  0  0  0
 37 38  1  0  0  0  0
 39 38  2  0  0  0  0
 40 33  1  0  0  0  0
M  END
>  <minimizedAffinity>
-9.90198708

$$$$

 OpenBabel11232420413D

 40 45  0  0  1  0  0  0  0  0999 V2000
  -19.5230   24.5400   11.9080 C   0  0  0  0  0  0  0  0  0  0  0  0
  -20.8450   24.7670   11.5640 C   0  0  0  0  0  3  0  0  0  0  0  0
  -21.3280   25.9930   11.2710 N   0  0  0  0  0  0  0  0  0  0  0  0
  -20.4530   27.0300   11.3190 C   0  0  0  0  0  3  0  0  0  0  0  0
  -19.0970   26.9060   11.6200 C   0  0  0  0  0  0  0  0  0  0  0  0
  -18.6330   25.6080   11.8690 C   0  0  0  0  0  3  0  0  0  0  0  0
  -18.2020   28.0600   11.7950 C   0  0  0  0  0  0  0  0  0  0  0  0
  -16.8610   28.0200   11.3330 C   0  0  0  0  0  3  0  0  0  0  0  0
  -15.9540   29.0480   11.6120 C   0  0  0  0  0  3  0  0  0  0  0  0
  -16.4140   30.1120   12.3550 C   0  0  0  0  0  0  0  0  0  0  0  0
  -17.7270   30.1990   12.8040 C   0  0  0  0  0  0  0  0  0  0  0  0
  -18.6340   29.1870   12.5200 C   0  0  0  0  0  3  0  0  0  0  0  0
  -17.9220   31.4950   13.5580 C   0  0  2  0  0  3  0  0  0  0  0  0
  -16.4940   32.0950   13.5040 C   0  0  0  0  0  0  0  0  0  0  0  0
  -16.1060   33.1470   13.9860 O   0  0  0  0  0  0  0  0  0  0  0  0
  -15.6970   31.2200   12.7690 N   0  0  0  0  0  0  0  0  0  0  0  0
  -14.7210   31.4030   12.5860 H   0  0  0  0  0  0  0  0  0  0  0  0
  -18.3810   31.3840   14.9740 C   0  0  0  0  0  0  0  0  0  0  0  0
  -18.2070   30.4090   15.9400 C   0  0  0  0  0  3  0  0  0  0  0  0
  -18.8040   30.8950   17.1260 C   0  0  0  0  0  3  0  0  0  0  0  0
  -19.2990   32.1400   16.8210 C   0  0  0  0  0  3  0  0  0  0  0  0
  -19.0530   32.4460   15.5230 O   0  0  0  0  0  0  0  0  0  0  0  0
  -19.0380   23.3280   12.3080 O   0  0  0  0  0  0  0  0  0  0  0  0
  -19.9480   22.2430   12.0210 C   0  0  0  0  0  2  0  0  0  0  0  0
  -19.2640   21.2150   11.0880 C   0  0  1  0  0  3  0  0  0  0  0  0
  -19.8860   19.8650   11.3600 N   0  0  0  0  0  4  0  0  0  0  0  0
  -20.9140   19.9520   11.3630 H   0  0  0  0  0  0  0  0  0  0  0  0
  -19.6230   19.5160   12.2910 H   0  0  0  0  0  0  0  0  0  0  0  0
  -19.6130   19.1540   10.6700 H   0  0  0  0  0  0  0  0  0  0  0  0
  -19.4100   21.5510    9.5900 C   0  0  0  0  0  2  0  0  0  0  0  0
  -18.1200   21.9380    8.9350 C   0  0  0  0  0  0  0  0  0  0  0  0
  -17.2990   23.0010    9.2570 C   0  0  0  0  0  3  0  0  0  0  0  0
  -16.2380   23.0080    8.3870 N   0  0  0  0  0  0  0  0  0  0  0  0
  -16.3570   21.9770    7.4870 C   0  0  0  0  0  0  0  0  0  0  0  0
  -15.5250   21.6160    6.4220 C   0  0  0  0  0  3  0  0  0  0  0  0
  -15.9070   20.5220    5.6410 C   0  0  0  0  0  3  0  0  0  0  0  0
  -17.0770   19.8220    5.9160 C   0  0  0  0  0  3  0  0  0  0  0  0
  -17.8980   20.1950    6.9860 C   0  0  0  0  0  3  0  0  0  0  0  0
  -17.5310   21.2920    7.7960 C   0  0  0  0  0  0  0  0  0  0  0  0
  -15.4850   23.6850    8.3800 H   0  0  0  0  0  0  0  0  0  0  0  0
  1 23  1  0  0  0  0
  2  1  2  0  0  0  0
  3  4  2  0  0  0  0
  3  2  1  0  0  0  0
  4  5  1  0  0  0  0
  5  7  1  0  0  0  0
  5  6  2  0  0  0  0
  6  1  1  0  0  0  0
  7 12  1  0  0  0  0
  8  9  1  0  0  0  0
  8  7  2  0  0  0  0
  9 10  2  0  0  0  0
 10 16  1  0  0  0  0
 10 11  1  0  0  0  0
 11 13  1  0  0  0  0
 12 11  2  0  0  0  0
 13 18  1  1  0  0  0
 14 13  1  0  0  0  0
 14 15  2  0  0  0  0
 16 14  1  0  0  0  0
 17 16  1  0  0  0  0
 18 22  1  0  0  0  0
 18 19  2  0  0  0  0
 19 20  1  0  0  0  0
 21 20  2  0  0  0  0
 22 21  1  0  0  0  0
 24 23  1  0  0  0  0
 25 30  1  6  0  0  0
 25 26  1  0  0  0  0
 25 24  1  0  0  0  0
 26 27  1  0  0  0  0
 26 28  1  0  0  0  0
 29 26  1  0  0  0  0
 31 32  2  0  0  0  0
 31 30  1  0  0  0  0
 33 32  1  0  0  0  0
 34 39  1  0  0  0  0
 34 33  1  0  0  0  0
 35 34  2  0  0  0  0
 36 37  2  0  0  0  0
 36 35  1  0  0  0  0
 37 38  1  0  0  0  0
 38 39  2  0  0  0  0
 39 31  1  0  0  0  0
 40 33  1  0  0  0  0
M  END
>  <minimizedAffinity>
-9.80649376

$$$$

 OpenBabel11232420413D

 40 45  0  0  1  0  0  0  0  0999 V2000
  -17.6870   24.6070    9.5630 C   0  0  0  0  0  0  0  0  0  0  0  0
  -16.3410   24.7310    9.8630 C   0  0  0  0  0  3  0  0  0  0  0  0
  -15.8260   25.8050   10.4970 N   0  0  0  0  0  0  0  0  0  0  0  0
  -16.6910   26.7900   10.8500 C   0  0  0  0  0  3  0  0  0  0  0  0
  -18.0670   26.7480   10.6270 C   0  0  0  0  0  0  0  0  0  0  0  0
  -18.5610   25.5920   10.0090 C   0  0  0  0  0  3  0  0  0  0  0  0
  -18.9620   27.8830   10.8980 C   0  0  0  0  0  0  0  0  0  0  0  0
  -19.3590   28.7650    9.8590 C   0  0  0  0  0  3  0  0  0  0  0  0
  -20.0930   29.9270   10.1190 C   0  0  0  0  0  3  0  0  0  0  0  0
  -20.4240   30.1860   11.4310 C   0  0  0  0  0  0  0  0  0  0  0  0
  -20.0750   29.3330   12.4720 C   0  0  0  0  0  0  0  0  0  0  0  0
  -19.3560   28.1740   12.2190 C   0  0  0  0  0  3  0  0  0  0  0  0
  -20.6100   29.8800   13.7760 C   0  0  2  0  0  3  0  0  0  0  0  0
  -21.2690   31.2010   13.3050 C   0  0  0  0  0  0  0  0  0  0  0  0
  -21.8420   32.0360   13.9860 O   0  0  0  0  0  0  0  0  0  0  0  0
  -21.1180   31.2760   11.9220 N   0  0  0  0  0  0  0  0  0  0  0  0
  -21.4800   32.0490   11.3810 H   0  0  0  0  0  0  0  0  0  0  0  0
  -19.6080   30.1570   14.8490 C   0  0  0  0  0  0  0  0  0  0  0  0
  -19.7350   30.4020   16.2040 C   0  0  0  0  0  3  0  0  0  0  0  0
  -18.4240   30.5120   16.7250 C   0  0  0  0  0  3  0  0  0  0  0  0
  -17.5750   30.3200   15.6630 C   0  0  0  0  0  3  0  0  0  0  0  0
  -18.2780   30.1080   14.5220 O   0  0  0  0  0  0  0  0  0  0  0  0
  -18.2110   23.5800    8.8320 O   0  0  0  0  0  0  0  0  0  0  0  0
  -17.4080   22.3800    8.9010 C   0  0  0  0  0  2  0  0  0  0  0  0
  -18.2500   21.2140    9.4720 C   0  0  1  0  0  3  0  0  0  0  0  0
  -17.6290   19.9240    8.9910 N   0  0  0  0  0  4  0  0  0  0  0  0
  -16.6110   19.9490    9.1530 H   0  0  0  0  0  0  0  0  0  0  0  0
  -17.7580   19.8040    7.9780 H   0  0  0  0  0  0  0  0  0  0  0  0
  -18.0200   19.0940    9.4570 H   0  0  0  0  0  0  0  0  0  0  0  0
  -18.3220   21.2030   11.0120 C   0  0  0  0  0  2  0  0  0  0  0  0
  -19.6920   21.4780   11.5490 C   0  0  0  0  0  0  0  0  0  0  0  0
  -20.3750   22.6790   11.5410 C   0  0  0  0  0  3  0  0  0  0  0  0
  -21.5850   22.4940   12.1620 N   0  0  0  0  0  0  0  0  0  0  0  0
  -21.7020   21.1950   12.5920 C   0  0  0  0  0  0  0  0  0  0  0  0
  -22.7480   20.5700   13.2820 C   0  0  0  0  0  3  0  0  0  0  0  0
  -22.5880   19.2250   13.6230 C   0  0  0  0  0  3  0  0  0  0  0  0
  -21.4270   18.5360   13.2890 C   0  0  0  0  0  3  0  0  0  0  0  0
  -20.3900   19.1750   12.5970 C   0  0  0  0  0  3  0  0  0  0  0  0
  -20.5290   20.5320   12.2340 C   0  0  0  0  0  0  0  0  0  0  0  0
  -22.2850   23.2090   12.3110 H   0  0  0  0  0  0  0  0  0  0  0  0
  1  2  2  0  0  0  0
  1  6  1  0  0  0  0
  2  3  1  0  0  0  0
  3  4  2  0  0  0  0
  5  4  1  0  0  0  0
  5  7  1  0  0  0  0
  6  5  2  0  0  0  0
  7 12  1  0  0  0  0
  8  9  1  0  0  0  0
  8  7  2  0  0  0  0
  9 10  2  0  0  0  0
 10 16  1  0  0  0  0
 10 11  1  0  0  0  0
 11 13  1  0  0  0  0
 12 11  2  0  0  0  0
 13 18  1  1  0  0  0
 14 13  1  0  0  0  0
 14 15  2  0  0  0  0
 16 14  1  0  0  0  0
 17 16  1  0  0  0  0
 18 19  2  0  0  0  0
 19 20  1  0  0  0  0
 21 20  2  0  0  0  0
 22 18  1  0  0  0  0
 22 21  1  0  0  0  0
 23 24  1  0  0  0  0
 23  1  1  0  0  0  0
 25 24  1  1  0  0  0
 25 30  1  0  0  0  0
 26 27  1  0  0  0  0
 26 29  1  0  0  0  0
 26 25  1  0  0  0  0
 28 26  1  0  0  0  0
 30 31  1  0  0  0  0
 31 39  1  0  0  0  0
 32 31  2  0  0  0  0
 32 33  1  0  0  0  0
 33 40  1  0  0  0  0
 33 34  1  0  0  0  0
 34 35  1  0  0  0  0
 35 36  2  0  0  0  0
 37 36  1  0  0  0  0
 38 37  2  0  0  0  0
 39 34  2  0  0  0  0
 39 38  1  0  0  0  0
M  END
>  <minimizedAffinity>
-9.80435562

$$$$

 OpenBabel11232420413D

 40 45  0  0  1  0  0  0  0  0999 V2000
  -17.1680   22.2710    8.4560 C   0  0  0  0  0  0  0  0  0  0  0  0
  -16.2810   21.9110    7.4570 C   0  0  0  0  0  3  0  0  0  0  0  0
  -16.1380   20.6410    7.0240 N   0  0  0  0  0  0  0  0  0  0  0  0
  -16.9170   19.6960    7.6100 C   0  0  0  0  0  3  0  0  0  0  0  0
  -17.8650   19.9570    8.5990 C   0  0  0  0  0  0  0  0  0  0  0  0
  -18.0110   21.2970    8.9810 C   0  0  0  0  0  3  0  0  0  0  0  0
  -18.6000   18.9000    9.3100 C   0  0  0  0  0  0  0  0  0  0  0  0
  -18.9650   17.6960    8.6540 C   0  0  0  0  0  3  0  0  0  0  0  0
  -19.7830   16.7410    9.2680 C   0  0  0  0  0  3  0  0  0  0  0  0
  -20.2220   17.0110   10.5440 C   0  0  0  0  0  0  0  0  0  0  0  0
  -19.8660   18.1680   11.2290 C   0  0  0  0  0  0  0  0  0  0  0  0
  -19.0460   19.1130   10.6290 C   0  0  0  0  0  3  0  0  0  0  0  0
  -20.4810   18.1500   12.6100 C   0  0  2  0  0  3  0  0  0  0  0  0
  -21.2810   16.8230   12.5700 C   0  0  0  0  0  0  0  0  0  0  0  0
  -21.9780   16.3430   13.4490 O   0  0  0  0  0  0  0  0  0  0  0  0
  -21.0510   16.2310   11.3300 N   0  0  0  0  0  0  0  0  0  0  0  0
  -21.4600   15.3440   11.0710 H   0  0  0  0  0  0  0  0  0  0  0  0
  -21.3840   19.2870   12.9560 C   0  0  0  0  0  0  0  0  0  0  0  0
  -21.7590   20.4260   12.2660 C   0  0  0  0  0  3  0  0  0  0  0  0
  -22.7100   21.0970   13.0700 C   0  0  0  0  0  3  0  0  0  0  0  0
  -22.8670   20.3290   14.1970 C   0  0  0  0  0  3  0  0  0  0  0  0
  -22.0690   19.2330   14.1420 O   0  0  0  0  0  0  0  0  0  0  0  0
  -17.2540   23.5290    8.9800 O   0  0  0  0  0  0  0  0  0  0  0  0
  -18.0240   23.5730   10.2020 C   0  0  0  0  0  2  0  0  0  0  0  0
  -19.0130   24.7620   10.1610 C   0  0  1  0  0  3  0  0  0  0  0  0
  -20.3850   24.2070    9.8600 N   0  0  0  0  0  4  0  0  0  0  0  0
  -20.5750   23.4030   10.4770 H   0  0  0  0  0  0  0  0  0  0  0  0
  -20.4380   23.8520    8.8970 H   0  0  0  0  0  0  0  0  0  0  0  0
  -21.1320   24.9030    9.9800 H   0  0  0  0  0  0  0  0  0  0  0  0
  -19.0640   25.5650   11.4770 C   0  0  0  0  0  2  0  0  0  0  0  0
  -18.3400   26.8740   11.4080 C   0  0  0  0  0  0  0  0  0  0  0  0
  -17.0580   27.1040   10.9460 C   0  0  0  0  0  3  0  0  0  0  0  0
  -16.7790   28.4400   11.0890 N   0  0  0  0  0  0  0  0  0  0  0  0
  -17.8510   29.0900   11.6530 C   0  0  0  0  0  0  0  0  0  0  0  0
  -18.0040   30.4380   11.9930 C   0  0  0  0  0  3  0  0  0  0  0  0
  -19.2080   30.8260   12.5870 C   0  0  0  0  0  3  0  0  0  0  0  0
  -20.2150   29.8980   12.8300 C   0  0  0  0  0  3  0  0  0  0  0  0
  -20.0470   28.5530   12.4820 C   0  0  0  0  0  3  0  0  0  0  0  0
  -18.8430   28.1360   11.8740 C   0  0  0  0  0  0  0  0  0  0  0  0
  -15.9050   28.8890   10.8450 H   0  0  0  0  0  0  0  0  0  0  0  0
  1 23  1  0  0  0  0
  1  6  1  0  0  0  0
  2  1  2  0  0  0  0
  3  2  1  0  0  0  0
  3  4  2  0  0  0  0
  4  5  1  0  0  0  0
  5  6  2  0  0  0  0
  5  7  1  0  0  0  0
  7 12  1  0  0  0  0
  8  9  1  0  0  0  0
  8  7  2  0  0  0  0
  9 10  2  0  0  0  0
 10 11  1  0  0  0  0
 10 16  1  0  0  0  0
 11 13  1  0  0  0  0
 12 11  2  0  0  0  0
 13 18  1  6  0  0  0
 14 13  1  0  0  0  0
 14 15  2  0  0  0  0
 16 14  1  0  0  0  0
 17 16  1  0  0  0  0
 18 22  1  0  0  0  0
 19 18  2  0  0  0  0
 19 20  1  0  0  0  0
 20 21  2  0  0  0  0
 22 21  1  0  0  0  0
 23 24  1  0  0  0  0
 25 24  1  1  0  0  0
 25 30  1  0  0  0  0
 26 29  1  0  0  0  0
 26 25  1  0  0  0  0
 26 27  1  0  0  0  0
 28 26  1  0  0  0  0
 31 30  1  0  0  0  0
 31 39  1  0  0  0  0
 32 33  1  0  0  0  0
 32 31  2  0  0  0  0
 33 34  1  0  0  0  0
 34 39  2  0  0  0  0
 34 35  1  0  0  0  0
 35 36  2  0  0  0  0
 36 37  1  0  0  0  0
 38 37  2  0  0  0  0
 39 38  1  0  0  0  0
 40 33  1  0  0  0  0
M  END
>  <minimizedAffinity>
-9.61244011

$$$$
