
 OpenBabel11232420413D

 40 45  0  0  1  0  0  0  0  0999 V2000
  -21.4550   19.4860   12.7160 C   0  0  0  0  0  0  0  0  0  0  0  0
  -22.5760   20.2170   13.0730 C   0  0  0  0  0  3  0  0  0  0  0  0
  -22.6910   21.5420   12.8470 N   0  0  0  0  0  0  0  0  0  0  0  0
  -21.6470   22.1590   12.2350 C   0  0  0  0  0  3  0  0  0  0  0  0
  -20.4900   21.5110   11.8050 C   0  0  0  0  0  0  0  0  0  0  0  0
  -20.4370   20.1270   12.0180 C   0  0  0  0  0  3  0  0  0  0  0  0
  -19.3210   22.2230   11.2660 C   0  0  0  0  0  0  0  0  0  0  0  0
  -18.0260   21.6480   11.3240 C   0  0  0  0  0  3  0  0  0  0  0  0
  -16.8840   22.3630   10.9460 C   0  0  0  0  0  3  0  0  0  0  0  0
  -17.0640   23.6560   10.5080 C   0  0  0  0  0  0  0  0  0  0  0  0
  -18.3200   24.2450   10.4140 C   0  0  0  0  0  0  0  0  0  0  0  0
  -19.4570   23.5370   10.7760 C   0  0  0  0  0  3  0  0  0  0  0  0
  -18.1820   25.6500    9.8730 C   0  0  2  0  0  3  0  0  0  0  0  0
  -16.6440   25.7710    9.7280 C   0  0  0  0  0  0  0  0  0  0  0  0
  -16.0020   26.7320    9.3370 O   0  0  0  0  0  0  0  0  0  0  0  0
  -16.0880   24.5510   10.1110 N   0  0  0  0  0  0  0  0  0  0  0  0
  -15.0930   24.3810   10.0910 H   0  0  0  0  0  0  0  0  0  0  0  0
  -18.7080   26.7540   10.7300 C   0  0  0  0  0  0  0  0  0  0  0  0
  -19.9580   27.3370   10.8390 C   0  0  0  0  0  3  0  0  0  0  0  0
  -19.8770   28.2850   11.8850 C   0  0  0  0  0  3  0  0  0  0  0  0
  -18.5890   28.2220   12.3590 C   0  0  0  0  0  3  0  0  0  0  0  0
  -17.8710   27.3020   11.6660 O   0  0  0  0  0  0  0  0  0  0  0  0
  -21.2750   18.1690   13.0280 O   0  0  0  0  0  0  0  0  0  0  0  0
  -20.0430   17.6340   12.4950 C   0  0  0  0  0  2  0  0  0  0  0  0
  -20.3490   16.6780   11.3160 C   0  0  1  0  0  3  0  0  0  0  0  0
  -21.6300   15.9460   11.6420 N   0  0  0  0  0  4  0  0  0  0  0  0
  -22.3440   16.6210   11.9540 H   0  0  0  0  0  0  0  0  0  0  0  0
  -21.4940   15.2890   12.4200 H   0  0  0  0  0  0  0  0  0  0  0  0
  -22.0000   15.4150   10.8430 H   0  0  0  0  0  0  0  0  0  0  0  0
  -20.5040   17.4010    9.9620 C   0  0  0  0  0  2  0  0  0  0  0  0
  -19.1980   17.7680    9.3280 C   0  0  0  0  0  0  0  0  0  0  0  0
  -18.0420   17.0140    9.2840 C   0  0  0  0  0  3  0  0  0  0  0  0
  -17.0760   17.7400    8.6330 N   0  0  0  0  0  0  0  0  0  0  0  0
  -17.5730   18.9660    8.2640 C   0  0  0  0  0  0  0  0  0  0  0  0
  -16.9450   20.0260    7.6010 C   0  0  0  0  0  3  0  0  0  0  0  0
  -17.6920   21.1840    7.3730 C   0  0  0  0  0  3  0  0  0  0  0  0
  -19.0140   21.2760    7.7960 C   0  0  0  0  0  3  0  0  0  0  0  0
  -19.6290   20.2060    8.4570 C   0  0  0  0  0  3  0  0  0  0  0  0
  -18.8990   19.0210    8.6920 C   0  0  0  0  0  0  0  0  0  0  0  0
  -16.1230   17.4390    8.4680 H   0  0  0  0  0  0  0  0  0  0  0  0
  1 23  1  0  0  0  0
  1  2  1  0  0  0  0
  3  2  2  0  0  0  0
  4  3  1  0  0  0  0
  5  6  1  0  0  0  0
  5  4  2  0  0  0  0
  6  1  2  0  0  0  0
  7  8  1  0  0  0  0
  7  5  1  0  0  0  0
  9  8  2  0  0  0  0
 10  9  1  0  0  0  0
 11 10  2  0  0  0  0
 11 12  1  0  0  0  0
 12  7  2  0  0  0  0
 13 11  1  0  0  0  0
 13 18  1  1  0  0  0
 14 13  1  0  0  0  0
 14 16  1  0  0  0  0
 15 14  2  0  0  0  0
 16 10  1  0  0  0  0
 17 16  1  0  0  0  0
 18 19  2  0  0  0  0
 18 22  1  0  0  0  0
 19 20  1  0  0  0  0
 20 21  2  0  0  0  0
 22 21  1  0  0  0  0
 24 23  1  0  0  0  0
 25 30  1  6  0  0  0
 25 26  1  0  0  0  0
 25 24  1  0  0  0  0
 26 27  1  0  0  0  0
 26 28  1  0  0  0  0
 29 26  1  0  0  0  0
 31 30  1  0  0  0  0
 32 31  2  0  0  0  0
 33 32  1  0  0  0  0
 34 33  1  0  0  0  0
 34 39  1  0  0  0  0
 35 34  2  0  0  0  0
 36 35  1  0  0  0  0
 36 37  2  0  0  0  0
 37 38  1  0  0  0  0
 38 39  2  0  0  0  0
 39 31  1  0  0  0  0
 40 33  1  0  0  0  0
M  END
>  <minimizedAffinity>
-10.2185698

$$$$
