
 OpenBabel11232420413D

 40 45  0  0  1  0  0  0  0  0999 V2000
  -17.5180   20.6600    8.6080 C   0  0  0  0  0  0  0  0  0  0  0  0
  -17.0610   19.4890    8.0270 C   0  0  0  0  0  3  0  0  0  0  0  0
  -17.5240   18.2690    8.3700 N   0  0  0  0  0  0  0  0  0  0  0  0
  -18.4840   18.2190    9.3290 C   0  0  0  0  0  3  0  0  0  0  0  0
  -19.0370   19.3380    9.9510 C   0  0  0  0  0  0  0  0  0  0  0  0
  -18.5590   20.5840    9.5260 C   0  0  0  0  0  3  0  0  0  0  0  0
  -19.9790   19.2510   11.0770 C   0  0  0  0  0  0  0  0  0  0  0  0
  -20.5570   20.4180   11.6380 C   0  0  0  0  0  3  0  0  0  0  0  0
  -21.3430   20.3700   12.7950 C   0  0  0  0  0  3  0  0  0  0  0  0
  -21.5410   19.1360   13.3730 C   0  0  0  0  0  0  0  0  0  0  0  0
  -21.0120   17.9660   12.8390 C   0  0  0  0  0  0  0  0  0  0  0  0
  -20.2410   18.0070   11.6860 C   0  0  0  0  0  3  0  0  0  0  0  0
  -21.4350   16.7860   13.6840 C   0  0  2  0  0  3  0  0  0  0  0  0
  -22.2410   17.4880   14.8050 C   0  0  0  0  0  0  0  0  0  0  0  0
  -22.7940   16.9730   15.7640 O   0  0  0  0  0  0  0  0  0  0  0  0
  -22.2550   18.8520   14.5230 N   0  0  0  0  0  0  0  0  0  0  0  0
  -22.7330   19.5210   15.1100 H   0  0  0  0  0  0  0  0  0  0  0  0
  -20.3410   15.9580   14.2750 C   0  0  0  0  0  0  0  0  0  0  0  0
  -19.9070   14.6690   14.0260 C   0  0  0  0  0  3  0  0  0  0  0  0
  -18.7720   14.4540   14.8420 C   0  0  0  0  0  3  0  0  0  0  0  0
  -18.5720   15.6240   15.5330 C   0  0  0  0  0  3  0  0  0  0  0  0
  -19.5170   16.5400   15.2020 O   0  0  0  0  0  0  0  0  0  0  0  0
  -16.9910   21.8930    8.3500 O   0  0  0  0  0  0  0  0  0  0  0  0
  -17.6790   22.9510    9.0530 C   0  0  0  0  0  2  0  0  0  0  0  0
  -16.9610   23.2490   10.3910 C   0  0  1  0  0  3  0  0  0  0  0  0
  -16.0870   24.4630   10.1810 N   0  0  0  0  0  4  0  0  0  0  0  0
  -16.6320   25.2050    9.7150 H   0  0  0  0  0  0  0  0  0  0  0  0
  -15.2980   24.2500    9.5580 H   0  0  0  0  0  0  0  0  0  0  0  0
  -15.7030   24.8350   11.0600 H   0  0  0  0  0  0  0  0  0  0  0  0
  -17.9280   23.5120   11.5630 C   0  0  0  0  0  2  0  0  0  0  0  0
  -19.0420   24.4520   11.2200 C   0  0  0  0  0  0  0  0  0  0  0  0
  -20.2590   24.1400   10.6450 C   0  0  0  0  0  3  0  0  0  0  0  0
  -20.9690   25.3030   10.4760 N   0  0  0  0  0  0  0  0  0  0  0  0
  -20.2320   26.3750   10.9160 C   0  0  0  0  0  0  0  0  0  0  0  0
  -20.5480   27.7390   10.9200 C   0  0  0  0  0  3  0  0  0  0  0  0
  -19.5860   28.6270   11.4090 C   0  0  0  0  0  3  0  0  0  0  0  0
  -18.3570   28.1660   11.8710 C   0  0  0  0  0  3  0  0  0  0  0  0
  -18.0570   26.7980   11.8610 C   0  0  0  0  0  3  0  0  0  0  0  0
  -19.0140   25.8790   11.3800 C   0  0  0  0  0  0  0  0  0  0  0  0
  -21.8900   25.3760   10.0630 H   0  0  0  0  0  0  0  0  0  0  0  0
  1  6  1  0  0  0  0
  2  3  1  0  0  0  0
  2  1  2  0  0  0  0
  3  4  2  0  0  0  0
  4  5  1  0  0  0  0
  5  7  1  0  0  0  0
  6  5  2  0  0  0  0
  7  8  2  0  0  0  0
  7 12  1  0  0  0  0
  8  9  1  0  0  0  0
  9 10  2  0  0  0  0
 10 16  1  0  0  0  0
 11 10  1  0  0  0  0
 11 13  1  0  0  0  0
 12 11  2  0  0  0  0
 13 18  1  1  0  0  0
 13 14  1  0  0  0  0
 14 15  2  0  0  0  0
 16 14  1  0  0  0  0
 16 17  1  0  0  0  0
 18 22  1  0  0  0  0
 19 18  2  0  0  0  0
 19 20  1  0  0  0  0
 20 21  2  0  0  0  0
 22 21  1  0  0  0  0
 23  1  1  0  0  0  0
 23 24  1  0  0  0  0
 25 24  1  6  0  0  0
 25 30  1  0  0  0  0
 26 25  1  0  0  0  0
 26 29  1  0  0  0  0
 27 26  1  0  0  0  0
 28 26  1  0  0  0  0
 31 39  1  0  0  0  0
 31 30  1  0  0  0  0
 32 31  2  0  0  0  0
 33 32  1  0  0  0  0
 33 34  1  0  0  0  0
 34 35  2  0  0  0  0
 34 39  1  0  0  0  0
 35 36  1  0  0  0  0
 36 37  2  0  0  0  0
 38 37  1  0  0  0  0
 39 38  2  0  0  0  0
 40 33  1  0  0  0  0
M  END
>  <minimizedAffinity>
-9.98398018

$$$$
