
 OpenBabel11232420413D

 40 45  0  0  1  0  0  0  0  0999 V2000
  -18.4400   23.9720   11.5820 C   0  0  0  0  0  0  0  0  0  0  0  0
  -19.7210   23.4800   11.7690 C   0  0  0  0  0  3  0  0  0  0  0  0
  -20.8030   24.2770   11.8910 N   0  0  0  0  0  0  0  0  0  0  0  0
  -20.5960   25.6170   11.8180 C   0  0  0  0  0  3  0  0  0  0  0  0
  -19.3550   26.2140   11.5980 C   0  0  0  0  0  0  0  0  0  0  0  0
  -18.2700   25.3430   11.4290 C   0  0  0  0  0  3  0  0  0  0  0  0
  -19.1380   27.6670   11.6550 C   0  0  0  0  0  0  0  0  0  0  0  0
  -17.9110   28.2390   11.2300 C   0  0  0  0  0  3  0  0  0  0  0  0
  -17.6310   29.5990   11.4060 C   0  0  0  0  0  3  0  0  0  0  0  0
  -18.6000   30.3700   12.0080 C   0  0  0  0  0  0  0  0  0  0  0  0
  -19.8230   29.8510   12.4160 C   0  0  0  0  0  0  0  0  0  0  0  0
  -20.1100   28.5060   12.2340 C   0  0  0  0  0  3  0  0  0  0  0  0
  -20.6710   30.9540   13.0080 C   0  0  2  0  0  3  0  0  0  0  0  0
  -19.7060   32.1630   12.9140 C   0  0  0  0  0  0  0  0  0  0  0  0
  -19.9060   33.3110   13.2770 O   0  0  0  0  0  0  0  0  0  0  0  0
  -18.5340   31.7190   12.3050 N   0  0  0  0  0  0  0  0  0  0  0  0
  -17.7540   32.3350   12.1220 H   0  0  0  0  0  0  0  0  0  0  0  0
  -21.1270   30.7670   14.4170 C   0  0  0  0  0  0  0  0  0  0  0  0
  -20.4580   30.4220   15.5780 C   0  0  0  0  0  3  0  0  0  0  0  0
  -21.4030   30.4810   16.6280 C   0  0  0  0  0  3  0  0  0  0  0  0
  -22.5890   30.8650   16.0530 C   0  0  0  0  0  3  0  0  0  0  0  0
  -22.4370   31.0380   14.7160 O   0  0  0  0  0  0  0  0  0  0  0  0
  -17.3220   23.1900   11.5610 O   0  0  0  0  0  0  0  0  0  0  0  0
  -17.4290   22.0900   10.6290 C   0  0  0  0  0  2  0  0  0  0  0  0
  -17.7250   22.6280    9.2090 C   0  0  1  0  0  3  0  0  0  0  0  0
  -16.4090   22.7300    8.4740 N   0  0  0  0  0  4  0  0  0  0  0  0
  -15.8800   21.8530    8.5900 H   0  0  0  0  0  0  0  0  0  0  0  0
  -15.8220   23.4770    8.8670 H   0  0  0  0  0  0  0  0  0  0  0  0
  -16.5270   22.9180    7.4700 H   0  0  0  0  0  0  0  0  0  0  0  0
  -18.6930   21.7380    8.4030 C   0  0  0  0  0  2  0  0  0  0  0  0
  -18.2980   20.2930    8.3800 C   0  0  0  0  0  0  0  0  0  0  0  0
  -17.4580   19.6650    7.4800 C   0  0  0  0  0  3  0  0  0  0  0  0
  -17.3950   18.3330    7.8050 N   0  0  0  0  0  0  0  0  0  0  0  0
  -18.1920   18.0730    8.8940 C   0  0  0  0  0  0  0  0  0  0  0  0
  -18.4430   16.8640    9.5520 C   0  0  0  0  0  3  0  0  0  0  0  0
  -19.3300   16.8850   10.6320 C   0  0  0  0  0  3  0  0  0  0  0  0
  -19.9420   18.0680   11.0310 C   0  0  0  0  0  3  0  0  0  0  0  0
  -19.6790   19.2700   10.3620 C   0  0  0  0  0  3  0  0  0  0  0  0
  -18.7800   19.2780    9.2730 C   0  0  0  0  0  0  0  0  0  0  0  0
  -16.8640   17.6290    7.3070 H   0  0  0  0  0  0  0  0  0  0  0  0
  1  2  1  0  0  0  0
  2  3  2  0  0  0  0
  4  3  1  0  0  0  0
  5  7  1  0  0  0  0
  5  4  2  0  0  0  0
  6  1  2  0  0  0  0
  6  5  1  0  0  0  0
  7 12  1  0  0  0  0
  8  9  1  0  0  0  0
  8  7  2  0  0  0  0
  9 10  2  0  0  0  0
 10 16  1  0  0  0  0
 10 11  1  0  0  0  0
 11 13  1  0  0  0  0
 12 11  2  0  0  0  0
 13 18  1  1  0  0  0
 14 13  1  0  0  0  0
 14 15  2  0  0  0  0
 16 14  1  0  0  0  0
 17 16  1  0  0  0  0
 18 22  1  0  0  0  0
 18 19  2  0  0  0  0
 19 20  1  0  0  0  0
 21 20  2  0  0  0  0
 22 21  1  0  0  0  0
 23  1  1  0  0  0  0
 24 23  1  0  0  0  0
 25 30  1  6  0  0  0
 25 24  1  0  0  0  0
 26 27  1  0  0  0  0
 26 28  1  0  0  0  0
 26 25  1  0  0  0  0
 29 26  1  0  0  0  0
 31 30  1  0  0  0  0
 31 39  1  0  0  0  0
 32 33  1  0  0  0  0
 32 31  2  0  0  0  0
 33 34  1  0  0  0  0
 34 39  2  0  0  0  0
 34 35  1  0  0  0  0
 35 36  2  0  0  0  0
 36 37  1  0  0  0  0
 38 37  2  0  0  0  0
 39 38  1  0  0  0  0
 40 33  1  0  0  0  0
M  END
>  <minimizedAffinity>
-10.0800428

$$$$
