
 OpenBabel11232420413D

 40 45  0  0  1  0  0  0  0  0999 V2000
  -17.1680   22.2710    8.4560 C   0  0  0  0  0  0  0  0  0  0  0  0
  -16.2810   21.9110    7.4570 C   0  0  0  0  0  3  0  0  0  0  0  0
  -16.1380   20.6410    7.0240 N   0  0  0  0  0  0  0  0  0  0  0  0
  -16.9170   19.6960    7.6100 C   0  0  0  0  0  3  0  0  0  0  0  0
  -17.8650   19.9570    8.5990 C   0  0  0  0  0  0  0  0  0  0  0  0
  -18.0110   21.2970    8.9810 C   0  0  0  0  0  3  0  0  0  0  0  0
  -18.6000   18.9000    9.3100 C   0  0  0  0  0  0  0  0  0  0  0  0
  -18.9650   17.6960    8.6540 C   0  0  0  0  0  3  0  0  0  0  0  0
  -19.7830   16.7410    9.2680 C   0  0  0  0  0  3  0  0  0  0  0  0
  -20.2220   17.0110   10.5440 C   0  0  0  0  0  0  0  0  0  0  0  0
  -19.8660   18.1680   11.2290 C   0  0  0  0  0  0  0  0  0  0  0  0
  -19.0460   19.1130   10.6290 C   0  0  0  0  0  3  0  0  0  0  0  0
  -20.4810   18.1500   12.6100 C   0  0  2  0  0  3  0  0  0  0  0  0
  -21.2810   16.8230   12.5700 C   0  0  0  0  0  0  0  0  0  0  0  0
  -21.9780   16.3430   13.4490 O   0  0  0  0  0  0  0  0  0  0  0  0
  -21.0510   16.2310   11.3300 N   0  0  0  0  0  0  0  0  0  0  0  0
  -21.4600   15.3440   11.0710 H   0  0  0  0  0  0  0  0  0  0  0  0
  -21.3840   19.2870   12.9560 C   0  0  0  0  0  0  0  0  0  0  0  0
  -21.7590   20.4260   12.2660 C   0  0  0  0  0  3  0  0  0  0  0  0
  -22.7100   21.0970   13.0700 C   0  0  0  0  0  3  0  0  0  0  0  0
  -22.8670   20.3290   14.1970 C   0  0  0  0  0  3  0  0  0  0  0  0
  -22.0690   19.2330   14.1420 O   0  0  0  0  0  0  0  0  0  0  0  0
  -17.2540   23.5290    8.9800 O   0  0  0  0  0  0  0  0  0  0  0  0
  -18.0240   23.5730   10.2020 C   0  0  0  0  0  2  0  0  0  0  0  0
  -19.0130   24.7620   10.1610 C   0  0  1  0  0  3  0  0  0  0  0  0
  -20.3850   24.2070    9.8600 N   0  0  0  0  0  4  0  0  0  0  0  0
  -20.5750   23.4030   10.4770 H   0  0  0  0  0  0  0  0  0  0  0  0
  -20.4380   23.8520    8.8970 H   0  0  0  0  0  0  0  0  0  0  0  0
  -21.1320   24.9030    9.9800 H   0  0  0  0  0  0  0  0  0  0  0  0
  -19.0640   25.5650   11.4770 C   0  0  0  0  0  2  0  0  0  0  0  0
  -18.3400   26.8740   11.4080 C   0  0  0  0  0  0  0  0  0  0  0  0
  -17.0580   27.1040   10.9460 C   0  0  0  0  0  3  0  0  0  0  0  0
  -16.7790   28.4400   11.0890 N   0  0  0  0  0  0  0  0  0  0  0  0
  -17.8510   29.0900   11.6530 C   0  0  0  0  0  0  0  0  0  0  0  0
  -18.0040   30.4380   11.9930 C   0  0  0  0  0  3  0  0  0  0  0  0
  -19.2080   30.8260   12.5870 C   0  0  0  0  0  3  0  0  0  0  0  0
  -20.2150   29.8980   12.8300 C   0  0  0  0  0  3  0  0  0  0  0  0
  -20.0470   28.5530   12.4820 C   0  0  0  0  0  3  0  0  0  0  0  0
  -18.8430   28.1360   11.8740 C   0  0  0  0  0  0  0  0  0  0  0  0
  -15.9050   28.8890   10.8450 H   0  0  0  0  0  0  0  0  0  0  0  0
  1 23  1  0  0  0  0
  1  6  1  0  0  0  0
  2  1  2  0  0  0  0
  3  2  1  0  0  0  0
  3  4  2  0  0  0  0
  4  5  1  0  0  0  0
  5  6  2  0  0  0  0
  5  7  1  0  0  0  0
  7 12  1  0  0  0  0
  8  9  1  0  0  0  0
  8  7  2  0  0  0  0
  9 10  2  0  0  0  0
 10 11  1  0  0  0  0
 10 16  1  0  0  0  0
 11 13  1  0  0  0  0
 12 11  2  0  0  0  0
 13 18  1  6  0  0  0
 14 13  1  0  0  0  0
 14 15  2  0  0  0  0
 16 14  1  0  0  0  0
 17 16  1  0  0  0  0
 18 22  1  0  0  0  0
 19 18  2  0  0  0  0
 19 20  1  0  0  0  0
 20 21  2  0  0  0  0
 22 21  1  0  0  0  0
 23 24  1  0  0  0  0
 25 24  1  1  0  0  0
 25 30  1  0  0  0  0
 26 29  1  0  0  0  0
 26 25  1  0  0  0  0
 26 27  1  0  0  0  0
 28 26  1  0  0  0  0
 31 30  1  0  0  0  0
 31 39  1  0  0  0  0
 32 33  1  0  0  0  0
 32 31  2  0  0  0  0
 33 34  1  0  0  0  0
 34 39  2  0  0  0  0
 34 35  1  0  0  0  0
 35 36  2  0  0  0  0
 36 37  1  0  0  0  0
 38 37  2  0  0  0  0
 39 38  1  0  0  0  0
 40 33  1  0  0  0  0
M  END
>  <minimizedAffinity>
-9.61244011

$$$$
