
 OpenBabel11232420413D

 40 45  0  0  1  0  0  0  0  0999 V2000
  -17.2680   24.8520    9.6630 C   0  0  0  0  0  0  0  0  0  0  0  0
  -15.9290   25.0900    9.9260 C   0  0  0  0  0  3  0  0  0  0  0  0
  -15.4870   26.2170   10.5240 N   0  0  0  0  0  0  0  0  0  0  0  0
  -16.4210   27.1370   10.8770 C   0  0  0  0  0  3  0  0  0  0  0  0
  -17.7940   26.9800   10.6910 C   0  0  0  0  0  0  0  0  0  0  0  0
  -18.2080   25.7740   10.1100 C   0  0  0  0  0  3  0  0  0  0  0  0
  -18.7710   28.0460   10.9610 C   0  0  0  0  0  0  0  0  0  0  0  0
  -19.2110   28.9120    9.9270 C   0  0  0  0  0  3  0  0  0  0  0  0
  -20.0300   30.0160   10.1890 C   0  0  0  0  0  3  0  0  0  0  0  0
  -20.4000   30.2330   11.4970 C   0  0  0  0  0  0  0  0  0  0  0  0
  -20.0080   29.3920   12.5340 C   0  0  0  0  0  0  0  0  0  0  0  0
  -19.2060   28.2890   12.2780 C   0  0  0  0  0  3  0  0  0  0  0  0
  -20.6010   29.8820   13.8360 C   0  0  2  0  0  3  0  0  0  0  0  0
  -21.3440   31.1600   13.3700 C   0  0  0  0  0  0  0  0  0  0  0  0
  -21.9850   31.9440   14.0520 O   0  0  0  0  0  0  0  0  0  0  0  0
  -21.1760   31.2650   11.9910 N   0  0  0  0  0  0  0  0  0  0  0  0
  -21.5820   32.0180   11.4530 H   0  0  0  0  0  0  0  0  0  0  0  0
  -19.6390   30.2140   14.9280 C   0  0  0  0  0  0  0  0  0  0  0  0
  -19.8090   30.4600   16.2790 C   0  0  0  0  0  3  0  0  0  0  0  0
  -18.5180   30.6370   16.8280 C   0  0  0  0  0  3  0  0  0  0  0  0
  -17.6350   30.4800   15.7870 C   0  0  0  0  0  3  0  0  0  0  0  0
  -18.3010   30.2280   14.6320 O   0  0  0  0  0  0  0  0  0  0  0  0
  -17.7250   23.7690    8.9680 O   0  0  0  0  0  0  0  0  0  0  0  0
  -18.1340   22.6850    9.8320 C   0  0  0  0  0  2  0  0  0  0  0  0
  -19.4730   22.0900    9.3350 C   0  0  1  0  0  3  0  0  0  0  0  0
  -20.4860   23.2100    9.3000 N   0  0  0  0  0  4  0  0  0  0  0  0
  -20.0800   24.0290    8.8220 H   0  0  0  0  0  0  0  0  0  0  0  0
  -20.7290   23.5210   10.2490 H   0  0  0  0  0  0  0  0  0  0  0  0
  -21.3580   22.9450    8.8230 H   0  0  0  0  0  0  0  0  0  0  0  0
  -19.3790   21.4430    7.9380 C   0  0  0  0  0  2  0  0  0  0  0  0
  -18.3560   20.3530    7.8520 C   0  0  0  0  0  0  0  0  0  0  0  0
  -18.2970   19.1920    8.5990 C   0  0  0  0  0  3  0  0  0  0  0  0
  -17.1820   18.4880    8.2190 N   0  0  0  0  0  0  0  0  0  0  0  0
  -16.4980   19.1750    7.2460 C   0  0  0  0  0  0  0  0  0  0  0  0
  -15.3090   18.8470    6.5850 C   0  0  0  0  0  3  0  0  0  0  0  0
  -14.8160   19.7560    5.6440 C   0  0  0  0  0  3  0  0  0  0  0  0
  -15.4880   20.9450    5.3800 C   0  0  0  0  0  3  0  0  0  0  0  0
  -16.6770   21.2580    6.0490 C   0  0  0  0  0  3  0  0  0  0  0  0
  -17.2010   20.3530    6.9980 C   0  0  0  0  0  0  0  0  0  0  0  0
  -16.8810   17.6050    8.6100 H   0  0  0  0  0  0  0  0  0  0  0  0
  1  2  2  0  0  0  0
  1  6  1  0  0  0  0
  2  3  1  0  0  0  0
  3  4  2  0  0  0  0
  5  4  1  0  0  0  0
  5  7  1  0  0  0  0
  6  5  2  0  0  0  0
  7 12  1  0  0  0  0
  8  9  1  0  0  0  0
  8  7  2  0  0  0  0
  9 10  2  0  0  0  0
 10 16  1  0  0  0  0
 10 11  1  0  0  0  0
 11 13  1  0  0  0  0
 12 11  2  0  0  0  0
 13 18  1  1  0  0  0
 14 13  1  0  0  0  0
 14 15  2  0  0  0  0
 16 14  1  0  0  0  0
 17 16  1  0  0  0  0
 18 19  2  0  0  0  0
 19 20  1  0  0  0  0
 21 20  2  0  0  0  0
 22 18  1  0  0  0  0
 22 21  1  0  0  0  0
 23  1  1  0  0  0  0
 23 24  1  0  0  0  0
 25 30  1  6  0  0  0
 25 24  1  0  0  0  0
 26 25  1  0  0  0  0
 26 28  1  0  0  0  0
 27 26  1  0  0  0  0
 29 26  1  0  0  0  0
 31 30  1  0  0  0  0
 31 32  2  0  0  0  0
 33 32  1  0  0  0  0
 33 40  1  0  0  0  0
 34 33  1  0  0  0  0
 35 34  2  0  0  0  0
 36 35  1  0  0  0  0
 37 36  2  0  0  0  0
 37 38  1  0  0  0  0
 38 39  2  0  0  0  0
 39 34  1  0  0  0  0
 39 31  1  0  0  0  0
M  END
>  <minimizedAffinity>
-10.1076393

$$$$
