
 OpenBabel11232420063D

 41 46  0  0  1  0  0  0  0  0999 V2000
    4.1190    9.9630   -3.8990 C   0  0  0  0  0  0  0  0  0  0  0  0
    5.2330   10.2270   -4.7060 C   0  0  0  0  0  3  0  0  0  0  0  0
    5.4060    9.5340   -5.9080 C   0  0  0  0  0  3  0  0  0  0  0  0
    4.4810    8.5600   -6.2800 C   0  0  0  0  0  0  0  0  0  0  0  0
    3.3740    8.2870   -5.4670 C   0  0  0  0  0  0  0  0  0  0  0  0
    3.1960    8.9810   -4.2700 C   0  0  0  0  0  3  0  0  0  0  0  0
    2.4360    7.2950   -5.9340 C   0  0  0  0  0  0  0  0  0  0  0  0
    1.2500    6.9750   -5.4750 N   0  0  0  0  0  0  0  0  0  0  0  0
    0.7760    5.9800   -6.3140 C   0  0  0  0  0  0  0  0  0  0  0  0
    1.7130    5.6850   -7.3000 C   0  0  0  0  0  0  0  0  0  0  0  0
    2.7510    6.5480   -7.0310 N   0  0  0  0  0  0  0  0  0  0  0  0
    4.0420    6.6610   -7.6840 C   0  0  0  0  0  2  0  0  0  0  0  0
    4.6780    7.9430   -7.4900 O   0  0  0  0  0  0  0  0  0  0  0  0
    1.7220    4.7630   -8.4270 C   0  0  0  0  0  0  0  0  0  0  0  0
    2.9360    4.3180   -8.9650 C   0  0  0  0  0  3  0  0  0  0  0  0
    2.9420    3.4450  -10.0550 C   0  0  0  0  0  3  0  0  0  0  0  0
    1.7380    3.0160  -10.6110 C   0  0  0  0  0  3  0  0  0  0  0  0
    0.5260    3.4550  -10.0790 C   0  0  0  0  0  3  0  0  0  0  0  0
    0.5170    4.3260   -8.9890 C   0  0  0  0  0  3  0  0  0  0  0  0
   -0.5460    5.4030   -6.0950 C   0  0  0  0  0  0  0  0  0  0  0  0
   -0.7660    4.0520   -5.8230 C   0  0  0  0  0  3  0  0  0  0  0  0
   -2.0640    3.5670   -5.5970 C   0  0  0  0  0  3  0  0  0  0  0  0
   -3.1990    4.4060   -5.6170 C   0  0  0  0  0  0  0  0  0  0  0  0
   -2.9510    5.7650   -5.8880 C   0  0  0  0  0  3  0  0  0  0  0  0
   -1.6590    6.2510   -6.1210 C   0  0  0  0  0  3  0  0  0  0  0  0
   -4.6450    3.8670   -5.3100 C   0  0  1  0  0  0  0  0  0  0  0  0
   -5.1800    3.8660   -3.8440 C   0  0  0  0  0  2  0  0  0  0  0  0
   -6.6030    4.0620   -4.4490 C   0  0  1  0  0  0  0  0  0  0  0  0
   -7.5390    4.9250   -3.6240 C   0  0  0  0  0  1  0  0  0  0  0  0
   -5.8860    4.7530   -5.6470 C   0  0  0  0  0  2  0  0  0  0  0  0
   -4.7590    2.5130   -5.9140 N   0  0  0  0  0  4  0  0  0  0  0  0
   -4.6380    2.5300   -6.9330 H   0  0  0  0  0  0  0  0  0  0  0  0
   -4.0620    1.8640   -5.5310 H   0  0  0  0  0  0  0  0  0  0  0  0
   -5.6970    2.1140   -5.7130 H   0  0  0  0  0  0  0  0  0  0  0  0
   -7.2340    2.8070   -4.8230 O   0  0  0  0  0  0  0  0  0  0  0  0
   -8.2000    2.9680   -4.7800 H   0  0  0  0  0  0  0  0  0  0  0  0
    5.8000    9.4230   -1.4490 C   0  0  0  0  0  1  0  0  0  0  0  0
    4.6600   10.3080   -1.5150 N   0  0  0  0  0  0  0  0  0  0  0  0
    3.9190   10.6630   -2.6130 C   0  0  0  0  0  0  0  0  0  0  0  0
    3.0970   11.5710   -2.5430 O   0  0  0  0  0  0  0  0  0  0  0  0
    4.4050   10.8210   -0.6780 H   0  0  0  0  0  0  0  0  0  0  0  0
  1 39  1  0  0  0  0
  2  1  2  0  0  0  0
  3  2  1  0  0  0  0
  4  3  2  0  0  0  0
  4  5  1  0  0  0  0
  5  6  2  0  0  0  0
  6  1  1  0  0  0  0
  7  8  2  0  0  0  0
  7  5  1  0  0  0  0
  9 20  1  0  0  0  0
  9  8  1  0  0  0  0
 10 11  1  0  0  0  0
 10  9  2  0  0  0  0
 11  7  1  0  0  0  0
 12 13  1  0  0  0  0
 12 11  1  0  0  0  0
 13  4  1  0  0  0  0
 14 10  1  0  0  0  0
 15 14  1  0  0  0  0
 16 15  2  0  0  0  0
 17 18  2  0  0  0  0
 17 16  1  0  0  0  0
 18 19  1  0  0  0  0
 19 14  2  0  0  0  0
 20 21  1  0  0  0  0
 21 22  2  0  0  0  0
 23 22  1  0  0  0  0
 23 26  1  0  0  0  0
 24 23  2  0  0  0  0
 25 20  2  0  0  0  0
 25 24  1  0  0  0  0
 26 31  1  6  0  0  0
 26 27  1  0  0  0  0
 28 27  1  0  0  0  0
 28 29  1  1  0  0  0
 30 26  1  0  0  0  0
 30 28  1  0  0  0  0
 31 34  1  0  0  0  0
 31 33  1  0  0  0  0
 32 31  1  0  0  0  0
 35 36  1  0  0  0  0
 35 28  1  0  0  0  0
 38 37  1  0  0  0  0
 38 41  1  0  0  0  0
 39 40  2  0  0  0  0
 39 38  1  0  0  0  0
M  END
>  <minimizedAffinity>
-10.2336512

$$$$
