
 OpenBabel11232420063D

 41 46  0  0  1  0  0  0  0  0999 V2000
   -5.5260    3.9120   -5.0640 C   0  0  0  0  0  0  0  0  0  0  0  0
   -5.8940    2.6780   -5.6150 C   0  0  0  0  0  3  0  0  0  0  0  0
   -5.0070    1.9950   -6.4510 C   0  0  0  0  0  3  0  0  0  0  0  0
   -3.7700    2.5620   -6.7570 C   0  0  0  0  0  0  0  0  0  0  0  0
   -3.4080    3.8010   -6.2160 C   0  0  0  0  0  0  0  0  0  0  0  0
   -4.2880    4.4840   -5.3750 C   0  0  0  0  0  3  0  0  0  0  0  0
   -2.0980    4.3100   -6.5410 C   0  0  0  0  0  0  0  0  0  0  0  0
   -1.4430    5.3330   -6.0450 N   0  0  0  0  0  0  0  0  0  0  0  0
   -0.2220    5.3520   -6.6970 C   0  0  0  0  0  0  0  0  0  0  0  0
   -0.1450    4.3140   -7.6210 C   0  0  0  0  0  0  0  0  0  0  0  0
   -1.3530    3.6690   -7.4870 N   0  0  0  0  0  0  0  0  0  0  0  0
   -1.8810    2.5450   -8.2390 C   0  0  0  0  0  2  0  0  0  0  0  0
   -2.9240    1.8260   -7.5470 O   0  0  0  0  0  0  0  0  0  0  0  0
    0.8950    3.8650   -8.5360 C   0  0  0  0  0  0  0  0  0  0  0  0
    2.1280    3.4220   -8.0420 C   0  0  0  0  0  3  0  0  0  0  0  0
    3.1280    3.0060   -8.9220 C   0  0  0  0  0  3  0  0  0  0  0  0
    2.9020    3.0320  -10.2970 C   0  0  0  0  0  3  0  0  0  0  0  0
    1.6760    3.4710  -10.7960 C   0  0  0  0  0  3  0  0  0  0  0  0
    0.6740    3.8870   -9.9180 C   0  0  0  0  0  3  0  0  0  0  0  0
    0.7720    6.3670   -6.3650 C   0  0  0  0  0  0  0  0  0  0  0  0
    0.5210    7.4510   -5.5230 C   0  0  0  0  0  3  0  0  0  0  0  0
    1.5320    8.3780   -5.2250 C   0  0  0  0  0  3  0  0  0  0  0  0
    2.8410    8.2620   -5.7410 C   0  0  0  0  0  0  0  0  0  0  0  0
    3.0710    7.1590   -6.5840 C   0  0  0  0  0  3  0  0  0  0  0  0
    2.0640    6.2360   -6.8880 C   0  0  0  0  0  3  0  0  0  0  0  0
    3.9840    9.2740   -5.3610 C   0  0  1  0  0  0  0  0  0  0  0  0
    4.0590    9.8580   -3.9150 C   0  0  0  0  0  2  0  0  0  0  0  0
    5.6030    9.9320   -4.1120 C   0  0  1  0  0  0  0  0  0  0  0  0
    6.4240    9.6650   -2.8640 C   0  0  0  0  0  1  0  0  0  0  0  0
    5.4310    8.7440   -5.1050 C   0  0  0  0  0  2  0  0  0  0  0  0
    3.9720   10.3670   -6.3700 N   0  0  0  0  0  4  0  0  0  0  0  0
    4.1580   10.0230   -7.3180 H   0  0  0  0  0  0  0  0  0  0  0  0
    3.0710   10.8580   -6.3900 H   0  0  0  0  0  0  0  0  0  0  0  0
    4.7030   11.0690   -6.1390 H   0  0  0  0  0  0  0  0  0  0  0  0
    6.0280   11.1550   -4.7720 O   0  0  0  0  0  0  0  0  0  0  0  0
    6.9520   11.3110   -4.4810 H   0  0  0  0  0  0  0  0  0  0  0  0
   -8.3390    3.0010   -4.4510 C   0  0  0  0  0  1  0  0  0  0  0  0
   -7.7400    4.2450   -4.0250 N   0  0  0  0  0  0  0  0  0  0  0  0
   -6.4480    4.6710   -4.1930 C   0  0  0  0  0  0  0  0  0  0  0  0
   -6.0410    5.6710   -3.6110 O   0  0  0  0  0  0  0  0  0  0  0  0
   -8.2940    4.8670   -3.4460 H   0  0  0  0  0  0  0  0  0  0  0  0
  1 39  1  0  0  0  0
  2  1  2  0  0  0  0
  3  2  1  0  0  0  0
  4  3  2  0  0  0  0
  4  5  1  0  0  0  0
  5  6  2  0  0  0  0
  6  1  1  0  0  0  0
  7  5  1  0  0  0  0
  7  8  2  0  0  0  0
  9 20  1  0  0  0  0
  9  8  1  0  0  0  0
 10 11  1  0  0  0  0
 10  9  2  0  0  0  0
 11  7  1  0  0  0  0
 12 13  1  0  0  0  0
 12 11  1  0  0  0  0
 13  4  1  0  0  0  0
 14 15  1  0  0  0  0
 14 10  1  0  0  0  0
 16 15  2  0  0  0  0
 17 16  1  0  0  0  0
 18 17  2  0  0  0  0
 18 19  1  0  0  0  0
 19 14  2  0  0  0  0
 20 21  1  0  0  0  0
 21 22  2  0  0  0  0
 23 26  1  0  0  0  0
 23 22  1  0  0  0  0
 24 23  2  0  0  0  0
 25 24  1  0  0  0  0
 25 20  2  0  0  0  0
 26 31  1  6  0  0  0
 26 30  1  0  0  0  0
 26 27  1  0  0  0  0
 28 27  1  0  0  0  0
 28 29  1  1  0  0  0
 30 28  1  0  0  0  0
 31 34  1  0  0  0  0
 32 31  1  0  0  0  0
 33 31  1  0  0  0  0
 35 36  1  0  0  0  0
 35 28  1  0  0  0  0
 37 38  1  0  0  0  0
 38 41  1  0  0  0  0
 39 38  1  0  0  0  0
 39 40  2  0  0  0  0
M  END
>  <minimizedAffinity>
-10.7116528

$$$$
