
 OpenBabel11232420063D

 41 46  0  0  1  0  0  0  0  0999 V2000
    5.8050    5.8590   -8.2050 C   0  0  0  0  0  0  0  0  0  0  0  0
    6.6400    6.7270   -7.4900 C   0  0  0  0  0  3  0  0  0  0  0  0
    6.0990    7.5750   -6.5200 C   0  0  0  0  0  3  0  0  0  0  0  0
    4.7240    7.5740   -6.2920 C   0  0  0  0  0  0  0  0  0  0  0  0
    3.8880    6.7150   -7.0160 C   0  0  0  0  0  0  0  0  0  0  0  0
    4.4250    5.8620   -7.9800 C   0  0  0  0  0  3  0  0  0  0  0  0
    2.4810    6.7370   -6.6990 C   0  0  0  0  0  0  0  0  0  0  0  0
    1.5170    5.9340   -7.0840 N   0  0  0  0  0  0  0  0  0  0  0  0
    0.3690    6.3970   -6.4630 C   0  0  0  0  0  0  0  0  0  0  0  0
    0.6500    7.5200   -5.6900 C   0  0  0  0  0  0  0  0  0  0  0  0
    2.0040    7.7000   -5.8590 N   0  0  0  0  0  0  0  0  0  0  0  0
    2.8590    8.7570   -5.3490 C   0  0  0  0  0  2  0  0  0  0  0  0
    4.2560    8.3960   -5.2980 O   0  0  0  0  0  0  0  0  0  0  0  0
   -0.1600    8.3690   -4.8290 C   0  0  0  0  0  0  0  0  0  0  0  0
    0.0710    8.4010   -3.4480 C   0  0  0  0  0  3  0  0  0  0  0  0
   -0.7170    9.2050   -2.6230 C   0  0  0  0  0  3  0  0  0  0  0  0
   -1.7390    9.9790   -3.1730 C   0  0  0  0  0  3  0  0  0  0  0  0
   -1.9730    9.9520   -4.5470 C   0  0  0  0  0  3  0  0  0  0  0  0
   -1.1860    9.1500   -5.3750 C   0  0  0  0  0  3  0  0  0  0  0  0
   -0.9020    5.7090   -6.6630 C   0  0  0  0  0  0  0  0  0  0  0  0
   -1.7750    5.9850   -7.7150 C   0  0  0  0  0  3  0  0  0  0  0  0
   -2.9720    5.2670   -7.8640 C   0  0  0  0  0  3  0  0  0  0  0  0
   -3.3470    4.2320   -6.9800 C   0  0  0  0  0  0  0  0  0  0  0  0
   -2.4470    3.9670   -5.9300 C   0  0  0  0  0  3  0  0  0  0  0  0
   -1.2570    4.6860   -5.7750 C   0  0  0  0  0  3  0  0  0  0  0  0
   -4.6630    3.3940   -7.1820 C   0  0  1  0  0  0  0  0  0  0  0  0
   -4.8090    2.4600   -8.4240 C   0  0  0  0  0  2  0  0  0  0  0  0
   -5.7070    1.5500   -7.5340 C   0  0  1  0  0  0  0  0  0  0  0  0
   -5.5860    0.0620   -7.8060 C   0  0  0  0  0  1  0  0  0  0  0  0
   -4.8990    2.1090   -6.3250 C   0  0  0  0  0  2  0  0  0  0  0  0
   -5.8140    4.3320   -7.0890 N   0  0  0  0  0  4  0  0  0  0  0  0
   -5.8690    4.7900   -6.1730 H   0  0  0  0  0  0  0  0  0  0  0  0
   -5.7630    5.0690   -7.8020 H   0  0  0  0  0  0  0  0  0  0  0  0
   -6.7030    3.8160   -7.2390 H   0  0  0  0  0  0  0  0  0  0  0  0
   -7.0980    1.9720   -7.5190 O   0  0  0  0  0  0  0  0  0  0  0  0
   -7.6220    1.1670   -7.3200 H   0  0  0  0  0  0  0  0  0  0  0  0
    6.4380    2.9470   -7.7190 C   0  0  0  0  0  1  0  0  0  0  0  0
    6.6880    3.6740   -8.9420 N   0  0  0  0  0  0  0  0  0  0  0  0
    6.3410    4.9640   -9.2520 C   0  0  0  0  0  0  0  0  0  0  0  0
    6.4550    5.3810  -10.4000 O   0  0  0  0  0  0  0  0  0  0  0  0
    7.0870    3.1680   -9.7250 H   0  0  0  0  0  0  0  0  0  0  0  0
  1  6  2  0  0  0  0
  1  2  1  0  0  0  0
  2  3  2  0  0  0  0
  3  4  1  0  0  0  0
  4 13  1  0  0  0  0
  5  7  1  0  0  0  0
  5  4  2  0  0  0  0
  6  5  1  0  0  0  0
  7 11  1  0  0  0  0
  8  7  2  0  0  0  0
  8  9  1  0  0  0  0
  9 10  2  0  0  0  0
 10 14  1  0  0  0  0
 11 10  1  0  0  0  0
 11 12  1  0  0  0  0
 12 13  1  0  0  0  0
 14 15  1  0  0  0  0
 15 16  2  0  0  0  0
 17 16  1  0  0  0  0
 18 17  2  0  0  0  0
 19 14  2  0  0  0  0
 19 18  1  0  0  0  0
 20  9  1  0  0  0  0
 20 25  1  0  0  0  0
 21 20  2  0  0  0  0
 22 21  1  0  0  0  0
 22 23  2  0  0  0  0
 23 24  1  0  0  0  0
 24 25  2  0  0  0  0
 26 31  1  1  0  0  0
 26 23  1  0  0  0  0
 26 30  1  0  0  0  0
 27 28  1  0  0  0  0
 27 26  1  0  0  0  0
 28 29  1  6  0  0  0
 28 35  1  0  0  0  0
 28 30  1  0  0  0  0
 31 32  1  0  0  0  0
 33 31  1  0  0  0  0
 34 31  1  0  0  0  0
 35 36  1  0  0  0  0
 38 37  1  0  0  0  0
 39 38  1  0  0  0  0
 39  1  1  0  0  0  0
 40 39  2  0  0  0  0
 41 38  1  0  0  0  0
M  END
>  <minimizedAffinity>
-12.8162975

$$$$

 OpenBabel11232420063D

 41 46  0  0  1  0  0  0  0  0999 V2000
    5.6320    5.5400   -7.9040 C   0  0  0  0  0  0  0  0  0  0  0  0
    6.3850    6.5610   -7.3100 C   0  0  0  0  0  3  0  0  0  0  0  0
    5.7530    7.5210   -6.5140 C   0  0  0  0  0  3  0  0  0  0  0  0
    4.3710    7.4730   -6.3410 C   0  0  0  0  0  0  0  0  0  0  0  0
    3.6170    6.4600   -6.9460 C   0  0  0  0  0  0  0  0  0  0  0  0
    4.2450    5.4960   -7.7360 C   0  0  0  0  0  3  0  0  0  0  0  0
    2.1970    6.4470   -6.6910 C   0  0  0  0  0  0  0  0  0  0  0  0
    1.2980    5.5350   -6.9760 N   0  0  0  0  0  0  0  0  0  0  0  0
    0.0990    6.0210   -6.4830 C   0  0  0  0  0  0  0  0  0  0  0  0
    0.2810    7.2690   -5.8950 C   0  0  0  0  0  0  0  0  0  0  0  0
    1.6310    7.5020   -6.0400 N   0  0  0  0  0  0  0  0  0  0  0  0
    2.4020    8.6780   -5.6780 C   0  0  0  0  0  2  0  0  0  0  0  0
    3.8120    8.4150   -5.5140 O   0  0  0  0  0  0  0  0  0  0  0  0
   -0.6130    8.1960   -5.2170 C   0  0  0  0  0  0  0  0  0  0  0  0
   -1.2340    9.2290   -5.9310 C   0  0  0  0  0  3  0  0  0  0  0  0
   -2.0800   10.1250   -5.2750 C   0  0  0  0  0  3  0  0  0  0  0  0
   -2.3080    9.9950   -3.9060 C   0  0  0  0  0  3  0  0  0  0  0  0
   -1.6940    8.9680   -3.1900 C   0  0  0  0  0  3  0  0  0  0  0  0
   -0.8490    8.0690   -3.8430 C   0  0  0  0  0  3  0  0  0  0  0  0
   -1.1230    5.2340   -6.6160 C   0  0  0  0  0  0  0  0  0  0  0  0
   -1.4000    4.1000   -5.8540 C   0  0  0  0  0  3  0  0  0  0  0  0
   -2.6090    3.4030   -6.0140 C   0  0  0  0  0  3  0  0  0  0  0  0
   -3.6000    3.8130   -6.9310 C   0  0  0  0  0  0  0  0  0  0  0  0
   -3.3000    4.9630   -7.6860 C   0  0  0  0  0  3  0  0  0  0  0  0
   -2.0940    5.6550   -7.5320 C   0  0  0  0  0  3  0  0  0  0  0  0
   -4.9750    3.0600   -7.0700 C   0  0  1  0  0  0  0  0  0  0  0  0
   -5.0330    1.5080   -6.9080 C   0  0  0  0  0  2  0  0  0  0  0  0
   -6.4780    1.7000   -6.3580 C   0  0  1  0  0  0  0  0  0  0  0  0
   -6.8850    0.7270   -5.2670 C   0  0  0  0  0  1  0  0  0  0  0  0
   -6.0050    3.1110   -5.8960 C   0  0  0  0  0  2  0  0  0  0  0  0
   -5.5910    3.4790   -8.3570 N   0  0  0  0  0  4  0  0  0  0  0  0
   -5.7790    4.4860   -8.3890 H   0  0  0  0  0  0  0  0  0  0  0  0
   -4.9920    3.2500   -9.1590 H   0  0  0  0  0  0  0  0  0  0  0  0
   -6.4940    2.9840   -8.4940 H   0  0  0  0  0  0  0  0  0  0  0  0
   -7.4780    1.7630   -7.4100 O   0  0  0  0  0  0  0  0  0  0  0  0
   -8.3180    1.4620   -7.0020 H   0  0  0  0  0  0  0  0  0  0  0  0
    6.3380    6.0430  -10.7960 C   0  0  0  0  0  1  0  0  0  0  0  0
    6.4810    4.7870  -10.0960 N   0  0  0  0  0  0  0  0  0  0  0  0
    6.2650    4.5220   -8.7690 C   0  0  0  0  0  0  0  0  0  0  0  0
    6.6100    3.4490   -8.2830 O   0  0  0  0  0  0  0  0  0  0  0  0
    6.8760    4.0010  -10.6010 H   0  0  0  0  0  0  0  0  0  0  0  0
  1  6  2  0  0  0  0
  1  2  1  0  0  0  0
  2  3  2  0  0  0  0
  3  4  1  0  0  0  0
  4 13  1  0  0  0  0
  5  7  1  0  0  0  0
  5  4  2  0  0  0  0
  6  5  1  0  0  0  0
  7 11  1  0  0  0  0
  8  7  2  0  0  0  0
  8  9  1  0  0  0  0
  9 10  2  0  0  0  0
 10 14  1  0  0  0  0
 11 10  1  0  0  0  0
 11 12  1  0  0  0  0
 12 13  1  0  0  0  0
 14 19  1  0  0  0  0
 15 16  1  0  0  0  0
 15 14  2  0  0  0  0
 16 17  2  0  0  0  0
 17 18  1  0  0  0  0
 19 18  2  0  0  0  0
 20  9  1  0  0  0  0
 20 21  1  0  0  0  0
 22 21  2  0  0  0  0
 23 22  1  0  0  0  0
 24 25  1  0  0  0  0
 24 23  2  0  0  0  0
 25 20  2  0  0  0  0
 26 31  1  6  0  0  0
 26 23  1  0  0  0  0
 26 27  1  0  0  0  0
 26 30  1  0  0  0  0
 27 28  1  0  0  0  0
 28 30  1  0  0  0  0
 28 29  1  1  0  0  0
 32 31  1  0  0  0  0
 33 31  1  0  0  0  0
 34 31  1  0  0  0  0
 35 36  1  0  0  0  0
 35 28  1  0  0  0  0
 37 38  1  0  0  0  0
 38 39  1  0  0  0  0
 39 40  2  0  0  0  0
 39  1  1  0  0  0  0
 41 38  1  0  0  0  0
M  END
>  <minimizedAffinity>
-12.2150898

$$$$

 OpenBabel11232420063D

 41 46  0  0  1  0  0  0  0  0999 V2000
   -5.5260    3.9120   -5.0640 C   0  0  0  0  0  0  0  0  0  0  0  0
   -5.8940    2.6780   -5.6150 C   0  0  0  0  0  3  0  0  0  0  0  0
   -5.0070    1.9950   -6.4510 C   0  0  0  0  0  3  0  0  0  0  0  0
   -3.7700    2.5620   -6.7570 C   0  0  0  0  0  0  0  0  0  0  0  0
   -3.4080    3.8010   -6.2160 C   0  0  0  0  0  0  0  0  0  0  0  0
   -4.2880    4.4840   -5.3750 C   0  0  0  0  0  3  0  0  0  0  0  0
   -2.0980    4.3100   -6.5410 C   0  0  0  0  0  0  0  0  0  0  0  0
   -1.4430    5.3330   -6.0450 N   0  0  0  0  0  0  0  0  0  0  0  0
   -0.2220    5.3520   -6.6970 C   0  0  0  0  0  0  0  0  0  0  0  0
   -0.1450    4.3140   -7.6210 C   0  0  0  0  0  0  0  0  0  0  0  0
   -1.3530    3.6690   -7.4870 N   0  0  0  0  0  0  0  0  0  0  0  0
   -1.8810    2.5450   -8.2390 C   0  0  0  0  0  2  0  0  0  0  0  0
   -2.9240    1.8260   -7.5470 O   0  0  0  0  0  0  0  0  0  0  0  0
    0.8950    3.8650   -8.5360 C   0  0  0  0  0  0  0  0  0  0  0  0
    2.1280    3.4220   -8.0420 C   0  0  0  0  0  3  0  0  0  0  0  0
    3.1280    3.0060   -8.9220 C   0  0  0  0  0  3  0  0  0  0  0  0
    2.9020    3.0320  -10.2970 C   0  0  0  0  0  3  0  0  0  0  0  0
    1.6760    3.4710  -10.7960 C   0  0  0  0  0  3  0  0  0  0  0  0
    0.6740    3.8870   -9.9180 C   0  0  0  0  0  3  0  0  0  0  0  0
    0.7720    6.3670   -6.3650 C   0  0  0  0  0  0  0  0  0  0  0  0
    0.5210    7.4510   -5.5230 C   0  0  0  0  0  3  0  0  0  0  0  0
    1.5320    8.3780   -5.2250 C   0  0  0  0  0  3  0  0  0  0  0  0
    2.8410    8.2620   -5.7410 C   0  0  0  0  0  0  0  0  0  0  0  0
    3.0710    7.1590   -6.5840 C   0  0  0  0  0  3  0  0  0  0  0  0
    2.0640    6.2360   -6.8880 C   0  0  0  0  0  3  0  0  0  0  0  0
    3.9840    9.2740   -5.3610 C   0  0  1  0  0  0  0  0  0  0  0  0
    4.0590    9.8580   -3.9150 C   0  0  0  0  0  2  0  0  0  0  0  0
    5.6030    9.9320   -4.1120 C   0  0  1  0  0  0  0  0  0  0  0  0
    6.4240    9.6650   -2.8640 C   0  0  0  0  0  1  0  0  0  0  0  0
    5.4310    8.7440   -5.1050 C   0  0  0  0  0  2  0  0  0  0  0  0
    3.9720   10.3670   -6.3700 N   0  0  0  0  0  4  0  0  0  0  0  0
    4.1580   10.0230   -7.3180 H   0  0  0  0  0  0  0  0  0  0  0  0
    3.0710   10.8580   -6.3900 H   0  0  0  0  0  0  0  0  0  0  0  0
    4.7030   11.0690   -6.1390 H   0  0  0  0  0  0  0  0  0  0  0  0
    6.0280   11.1550   -4.7720 O   0  0  0  0  0  0  0  0  0  0  0  0
    6.9520   11.3110   -4.4810 H   0  0  0  0  0  0  0  0  0  0  0  0
   -8.3390    3.0010   -4.4510 C   0  0  0  0  0  1  0  0  0  0  0  0
   -7.7400    4.2450   -4.0250 N   0  0  0  0  0  0  0  0  0  0  0  0
   -6.4480    4.6710   -4.1930 C   0  0  0  0  0  0  0  0  0  0  0  0
   -6.0410    5.6710   -3.6110 O   0  0  0  0  0  0  0  0  0  0  0  0
   -8.2940    4.8670   -3.4460 H   0  0  0  0  0  0  0  0  0  0  0  0
  1 39  1  0  0  0  0
  2  1  2  0  0  0  0
  3  2  1  0  0  0  0
  4  3  2  0  0  0  0
  4  5  1  0  0  0  0
  5  6  2  0  0  0  0
  6  1  1  0  0  0  0
  7  5  1  0  0  0  0
  7  8  2  0  0  0  0
  9 20  1  0  0  0  0
  9  8  1  0  0  0  0
 10 11  1  0  0  0  0
 10  9  2  0  0  0  0
 11  7  1  0  0  0  0
 12 13  1  0  0  0  0
 12 11  1  0  0  0  0
 13  4  1  0  0  0  0
 14 15  1  0  0  0  0
 14 10  1  0  0  0  0
 16 15  2  0  0  0  0
 17 16  1  0  0  0  0
 18 17  2  0  0  0  0
 18 19  1  0  0  0  0
 19 14  2  0  0  0  0
 20 21  1  0  0  0  0
 21 22  2  0  0  0  0
 23 26  1  0  0  0  0
 23 22  1  0  0  0  0
 24 23  2  0  0  0  0
 25 24  1  0  0  0  0
 25 20  2  0  0  0  0
 26 31  1  6  0  0  0
 26 30  1  0  0  0  0
 26 27  1  0  0  0  0
 28 27  1  0  0  0  0
 28 29  1  1  0  0  0
 30 28  1  0  0  0  0
 31 34  1  0  0  0  0
 32 31  1  0  0  0  0
 33 31  1  0  0  0  0
 35 36  1  0  0  0  0
 35 28  1  0  0  0  0
 37 38  1  0  0  0  0
 38 41  1  0  0  0  0
 39 38  1  0  0  0  0
 39 40  2  0  0  0  0
M  END
>  <minimizedAffinity>
-10.7116528

$$$$

 OpenBabel11232420063D

 41 46  0  0  1  0  0  0  0  0999 V2000
    4.1190    9.9630   -3.8990 C   0  0  0  0  0  0  0  0  0  0  0  0
    5.2330   10.2270   -4.7060 C   0  0  0  0  0  3  0  0  0  0  0  0
    5.4060    9.5340   -5.9080 C   0  0  0  0  0  3  0  0  0  0  0  0
    4.4810    8.5600   -6.2800 C   0  0  0  0  0  0  0  0  0  0  0  0
    3.3740    8.2870   -5.4670 C   0  0  0  0  0  0  0  0  0  0  0  0
    3.1960    8.9810   -4.2700 C   0  0  0  0  0  3  0  0  0  0  0  0
    2.4360    7.2950   -5.9340 C   0  0  0  0  0  0  0  0  0  0  0  0
    1.2500    6.9750   -5.4750 N   0  0  0  0  0  0  0  0  0  0  0  0
    0.7760    5.9800   -6.3140 C   0  0  0  0  0  0  0  0  0  0  0  0
    1.7130    5.6850   -7.3000 C   0  0  0  0  0  0  0  0  0  0  0  0
    2.7510    6.5480   -7.0310 N   0  0  0  0  0  0  0  0  0  0  0  0
    4.0420    6.6610   -7.6840 C   0  0  0  0  0  2  0  0  0  0  0  0
    4.6780    7.9430   -7.4900 O   0  0  0  0  0  0  0  0  0  0  0  0
    1.7220    4.7630   -8.4270 C   0  0  0  0  0  0  0  0  0  0  0  0
    2.9360    4.3180   -8.9650 C   0  0  0  0  0  3  0  0  0  0  0  0
    2.9420    3.4450  -10.0550 C   0  0  0  0  0  3  0  0  0  0  0  0
    1.7380    3.0160  -10.6110 C   0  0  0  0  0  3  0  0  0  0  0  0
    0.5260    3.4550  -10.0790 C   0  0  0  0  0  3  0  0  0  0  0  0
    0.5170    4.3260   -8.9890 C   0  0  0  0  0  3  0  0  0  0  0  0
   -0.5460    5.4030   -6.0950 C   0  0  0  0  0  0  0  0  0  0  0  0
   -0.7660    4.0520   -5.8230 C   0  0  0  0  0  3  0  0  0  0  0  0
   -2.0640    3.5670   -5.5970 C   0  0  0  0  0  3  0  0  0  0  0  0
   -3.1990    4.4060   -5.6170 C   0  0  0  0  0  0  0  0  0  0  0  0
   -2.9510    5.7650   -5.8880 C   0  0  0  0  0  3  0  0  0  0  0  0
   -1.6590    6.2510   -6.1210 C   0  0  0  0  0  3  0  0  0  0  0  0
   -4.6450    3.8670   -5.3100 C   0  0  1  0  0  0  0  0  0  0  0  0
   -5.1800    3.8660   -3.8440 C   0  0  0  0  0  2  0  0  0  0  0  0
   -6.6030    4.0620   -4.4490 C   0  0  1  0  0  0  0  0  0  0  0  0
   -7.5390    4.9250   -3.6240 C   0  0  0  0  0  1  0  0  0  0  0  0
   -5.8860    4.7530   -5.6470 C   0  0  0  0  0  2  0  0  0  0  0  0
   -4.7590    2.5130   -5.9140 N   0  0  0  0  0  4  0  0  0  0  0  0
   -4.6380    2.5300   -6.9330 H   0  0  0  0  0  0  0  0  0  0  0  0
   -4.0620    1.8640   -5.5310 H   0  0  0  0  0  0  0  0  0  0  0  0
   -5.6970    2.1140   -5.7130 H   0  0  0  0  0  0  0  0  0  0  0  0
   -7.2340    2.8070   -4.8230 O   0  0  0  0  0  0  0  0  0  0  0  0
   -8.2000    2.9680   -4.7800 H   0  0  0  0  0  0  0  0  0  0  0  0
    5.8000    9.4230   -1.4490 C   0  0  0  0  0  1  0  0  0  0  0  0
    4.6600   10.3080   -1.5150 N   0  0  0  0  0  0  0  0  0  0  0  0
    3.9190   10.6630   -2.6130 C   0  0  0  0  0  0  0  0  0  0  0  0
    3.0970   11.5710   -2.5430 O   0  0  0  0  0  0  0  0  0  0  0  0
    4.4050   10.8210   -0.6780 H   0  0  0  0  0  0  0  0  0  0  0  0
  1 39  1  0  0  0  0
  2  1  2  0  0  0  0
  3  2  1  0  0  0  0
  4  3  2  0  0  0  0
  4  5  1  0  0  0  0
  5  6  2  0  0  0  0
  6  1  1  0  0  0  0
  7  8  2  0  0  0  0
  7  5  1  0  0  0  0
  9 20  1  0  0  0  0
  9  8  1  0  0  0  0
 10 11  1  0  0  0  0
 10  9  2  0  0  0  0
 11  7  1  0  0  0  0
 12 13  1  0  0  0  0
 12 11  1  0  0  0  0
 13  4  1  0  0  0  0
 14 10  1  0  0  0  0
 15 14  1  0  0  0  0
 16 15  2  0  0  0  0
 17 18  2  0  0  0  0
 17 16  1  0  0  0  0
 18 19  1  0  0  0  0
 19 14  2  0  0  0  0
 20 21  1  0  0  0  0
 21 22  2  0  0  0  0
 23 22  1  0  0  0  0
 23 26  1  0  0  0  0
 24 23  2  0  0  0  0
 25 20  2  0  0  0  0
 25 24  1  0  0  0  0
 26 31  1  6  0  0  0
 26 27  1  0  0  0  0
 28 27  1  0  0  0  0
 28 29  1  1  0  0  0
 30 26  1  0  0  0  0
 30 28  1  0  0  0  0
 31 34  1  0  0  0  0
 31 33  1  0  0  0  0
 32 31  1  0  0  0  0
 35 36  1  0  0  0  0
 35 28  1  0  0  0  0
 38 37  1  0  0  0  0
 38 41  1  0  0  0  0
 39 40  2  0  0  0  0
 39 38  1  0  0  0  0
M  END
>  <minimizedAffinity>
-10.2336512

$$$$
