
 OpenBabel11232420063D

 41 46  0  0  1  0  0  0  0  0999 V2000
    5.8050    5.8590   -8.2050 C   0  0  0  0  0  0  0  0  0  0  0  0
    6.6400    6.7270   -7.4900 C   0  0  0  0  0  3  0  0  0  0  0  0
    6.0990    7.5750   -6.5200 C   0  0  0  0  0  3  0  0  0  0  0  0
    4.7240    7.5740   -6.2920 C   0  0  0  0  0  0  0  0  0  0  0  0
    3.8880    6.7150   -7.0160 C   0  0  0  0  0  0  0  0  0  0  0  0
    4.4250    5.8620   -7.9800 C   0  0  0  0  0  3  0  0  0  0  0  0
    2.4810    6.7370   -6.6990 C   0  0  0  0  0  0  0  0  0  0  0  0
    1.5170    5.9340   -7.0840 N   0  0  0  0  0  0  0  0  0  0  0  0
    0.3690    6.3970   -6.4630 C   0  0  0  0  0  0  0  0  0  0  0  0
    0.6500    7.5200   -5.6900 C   0  0  0  0  0  0  0  0  0  0  0  0
    2.0040    7.7000   -5.8590 N   0  0  0  0  0  0  0  0  0  0  0  0
    2.8590    8.7570   -5.3490 C   0  0  0  0  0  2  0  0  0  0  0  0
    4.2560    8.3960   -5.2980 O   0  0  0  0  0  0  0  0  0  0  0  0
   -0.1600    8.3690   -4.8290 C   0  0  0  0  0  0  0  0  0  0  0  0
    0.0710    8.4010   -3.4480 C   0  0  0  0  0  3  0  0  0  0  0  0
   -0.7170    9.2050   -2.6230 C   0  0  0  0  0  3  0  0  0  0  0  0
   -1.7390    9.9790   -3.1730 C   0  0  0  0  0  3  0  0  0  0  0  0
   -1.9730    9.9520   -4.5470 C   0  0  0  0  0  3  0  0  0  0  0  0
   -1.1860    9.1500   -5.3750 C   0  0  0  0  0  3  0  0  0  0  0  0
   -0.9020    5.7090   -6.6630 C   0  0  0  0  0  0  0  0  0  0  0  0
   -1.7750    5.9850   -7.7150 C   0  0  0  0  0  3  0  0  0  0  0  0
   -2.9720    5.2670   -7.8640 C   0  0  0  0  0  3  0  0  0  0  0  0
   -3.3470    4.2320   -6.9800 C   0  0  0  0  0  0  0  0  0  0  0  0
   -2.4470    3.9670   -5.9300 C   0  0  0  0  0  3  0  0  0  0  0  0
   -1.2570    4.6860   -5.7750 C   0  0  0  0  0  3  0  0  0  0  0  0
   -4.6630    3.3940   -7.1820 C   0  0  1  0  0  0  0  0  0  0  0  0
   -4.8090    2.4600   -8.4240 C   0  0  0  0  0  2  0  0  0  0  0  0
   -5.7070    1.5500   -7.5340 C   0  0  1  0  0  0  0  0  0  0  0  0
   -5.5860    0.0620   -7.8060 C   0  0  0  0  0  1  0  0  0  0  0  0
   -4.8990    2.1090   -6.3250 C   0  0  0  0  0  2  0  0  0  0  0  0
   -5.8140    4.3320   -7.0890 N   0  0  0  0  0  4  0  0  0  0  0  0
   -5.8690    4.7900   -6.1730 H   0  0  0  0  0  0  0  0  0  0  0  0
   -5.7630    5.0690   -7.8020 H   0  0  0  0  0  0  0  0  0  0  0  0
   -6.7030    3.8160   -7.2390 H   0  0  0  0  0  0  0  0  0  0  0  0
   -7.0980    1.9720   -7.5190 O   0  0  0  0  0  0  0  0  0  0  0  0
   -7.6220    1.1670   -7.3200 H   0  0  0  0  0  0  0  0  0  0  0  0
    6.4380    2.9470   -7.7190 C   0  0  0  0  0  1  0  0  0  0  0  0
    6.6880    3.6740   -8.9420 N   0  0  0  0  0  0  0  0  0  0  0  0
    6.3410    4.9640   -9.2520 C   0  0  0  0  0  0  0  0  0  0  0  0
    6.4550    5.3810  -10.4000 O   0  0  0  0  0  0  0  0  0  0  0  0
    7.0870    3.1680   -9.7250 H   0  0  0  0  0  0  0  0  0  0  0  0
  1  6  2  0  0  0  0
  1  2  1  0  0  0  0
  2  3  2  0  0  0  0
  3  4  1  0  0  0  0
  4 13  1  0  0  0  0
  5  7  1  0  0  0  0
  5  4  2  0  0  0  0
  6  5  1  0  0  0  0
  7 11  1  0  0  0  0
  8  7  2  0  0  0  0
  8  9  1  0  0  0  0
  9 10  2  0  0  0  0
 10 14  1  0  0  0  0
 11 10  1  0  0  0  0
 11 12  1  0  0  0  0
 12 13  1  0  0  0  0
 14 15  1  0  0  0  0
 15 16  2  0  0  0  0
 17 16  1  0  0  0  0
 18 17  2  0  0  0  0
 19 14  2  0  0  0  0
 19 18  1  0  0  0  0
 20  9  1  0  0  0  0
 20 25  1  0  0  0  0
 21 20  2  0  0  0  0
 22 21  1  0  0  0  0
 22 23  2  0  0  0  0
 23 24  1  0  0  0  0
 24 25  2  0  0  0  0
 26 31  1  1  0  0  0
 26 23  1  0  0  0  0
 26 30  1  0  0  0  0
 27 28  1  0  0  0  0
 27 26  1  0  0  0  0
 28 29  1  6  0  0  0
 28 35  1  0  0  0  0
 28 30  1  0  0  0  0
 31 32  1  0  0  0  0
 33 31  1  0  0  0  0
 34 31  1  0  0  0  0
 35 36  1  0  0  0  0
 38 37  1  0  0  0  0
 39 38  1  0  0  0  0
 39  1  1  0  0  0  0
 40 39  2  0  0  0  0
 41 38  1  0  0  0  0
M  END
>  <minimizedAffinity>
-12.8162975

$$$$
