
 OpenBabel11232420043D

 41 46  0  0  1  0  0  0  0  0999 V2000
    0.3450    6.1610   -6.4720 C   0  0  0  0  0  0  0  0  0  0  0  0
    1.4410    5.5740   -7.0640 N   0  0  0  0  0  0  0  0  0  0  0  0
    2.4370    6.4040   -6.8470 C   0  0  0  0  0  0  0  0  0  0  0  0
    2.0270    7.4800   -6.1110 N   0  0  0  0  0  0  0  0  0  0  0  0
    0.6840    7.3530   -5.8440 C   0  0  0  0  0  0  0  0  0  0  0  0
    2.9780    8.4480   -5.5990 C   0  0  0  0  0  2  0  0  0  0  0  0
    4.1540    8.5820   -6.4270 O   0  0  0  0  0  0  0  0  0  0  0  0
    4.6280    7.4380   -7.0160 C   0  0  0  0  0  0  0  0  0  0  0  0
    5.9530    7.4470   -7.4470 C   0  0  0  0  0  3  0  0  0  0  0  0
    6.4830    6.3250   -8.0940 C   0  0  0  0  0  3  0  0  0  0  0  0
    5.6840    5.1930   -8.3150 C   0  0  0  0  0  0  0  0  0  0  0  0
    4.3440    5.2030   -7.9050 C   0  0  0  0  0  3  0  0  0  0  0  0
    3.8190    6.3230   -7.2580 C   0  0  0  0  0  0  0  0  0  0  0  0
   -3.6030    4.4300   -6.5570 C   0  0  0  0  0  0  0  0  0  0  0  0
   -3.2110    5.4750   -7.4250 C   0  0  0  0  0  3  0  0  0  0  0  0
   -1.9260    6.0280   -7.3990 C   0  0  0  0  0  3  0  0  0  0  0  0
   -0.9620    5.5350   -6.5200 C   0  0  0  0  0  0  0  0  0  0  0  0
   -1.3050    4.4840   -5.6710 C   0  0  0  0  0  3  0  0  0  0  0  0
   -2.6000    3.9480   -5.6900 C   0  0  0  0  0  3  0  0  0  0  0  0
   -7.4860    3.7530   -3.9930 C   0  0  0  0  0  1  0  0  0  0  0  0
   -6.1570    4.0550   -4.6650 C   0  0  1  0  0  0  0  0  0  0  0  0
   -5.5040    2.8710   -5.4300 C   0  0  0  0  0  2  0  0  0  0  0  0
   -5.1020    3.8870   -6.5420 C   0  0  1  0  0  0  0  0  0  0  0  0
   -6.2840    4.7680   -6.0380 C   0  0  0  0  0  2  0  0  0  0  0  0
   -5.3800    3.3700   -7.9050 N   0  0  0  0  0  4  0  0  0  0  0  0
   -5.2340    4.1120   -8.6050 H   0  0  0  0  0  0  0  0  0  0  0  0
   -4.7320    2.6140   -8.1590 H   0  0  0  0  0  0  0  0  0  0  0  0
   -6.3350    3.0150   -8.0230 H   0  0  0  0  0  0  0  0  0  0  0  0
   -5.2870    4.7360   -3.7440 O   0  0  0  0  0  0  0  0  0  0  0  0
   -5.2800    4.2140   -2.9190 H   0  0  0  0  0  0  0  0  0  0  0  0
   -0.0800    8.2670   -5.0060 C   0  0  0  0  0  0  0  0  0  0  0  0
    0.1400    8.3220   -3.6250 C   0  0  0  0  0  3  0  0  0  0  0  0
   -0.6020    9.1980   -2.8300 C   0  0  0  0  0  3  0  0  0  0  0  0
   -1.5630   10.0250   -3.4100 C   0  0  0  0  0  3  0  0  0  0  0  0
   -1.7810    9.9810   -4.7860 C   0  0  0  0  0  3  0  0  0  0  0  0
   -1.0410    9.1070   -5.5830 C   0  0  0  0  0  3  0  0  0  0  0  0
    6.1920    3.9760   -9.0050 C   0  0  0  0  0  0  0  0  0  0  0  0
    6.9810    3.1170   -8.2940 N   0  0  0  0  0  0  0  0  0  0  0  0
    5.8950    3.7300  -10.1680 O   0  0  0  0  0  0  0  0  0  0  0  0
    7.3130    2.2910   -8.7780 H   0  0  0  0  0  0  0  0  0  0  0  0
    7.1980    3.2080   -7.3140 H   0  0  0  0  0  0  0  0  0  0  0  0
  1  5  2  0  0  0  0
  2  3  2  0  0  0  0
  2  1  1  0  0  0  0
  3  4  1  0  0  0  0
  4  5  1  0  0  0  0
  4  6  1  0  0  0  0
  5 31  1  0  0  0  0
  7  6  1  0  0  0  0
  8  7  1  0  0  0  0
  9  8  2  0  0  0  0
 10  9  1  0  0  0  0
 11 10  2  0  0  0  0
 11 12  1  0  0  0  0
 12 13  2  0  0  0  0
 13  8  1  0  0  0  0
 13  3  1  0  0  0  0
 14 23  1  0  0  0  0
 14 19  1  0  0  0  0
 15 16  1  0  0  0  0
 15 14  2  0  0  0  0
 16 17  2  0  0  0  0
 17  1  1  0  0  0  0
 17 18  1  0  0  0  0
 19 18  2  0  0  0  0
 21 20  1  1  0  0  0
 21 29  1  0  0  0  0
 22 21  1  0  0  0  0
 23 25  1  6  0  0  0
 23 24  1  0  0  0  0
 23 22  1  0  0  0  0
 24 21  1  0  0  0  0
 26 25  1  0  0  0  0
 27 25  1  0  0  0  0
 28 25  1  0  0  0  0
 29 30  1  0  0  0  0
 31 32  1  0  0  0  0
 32 33  2  0  0  0  0
 34 33  1  0  0  0  0
 35 34  2  0  0  0  0
 36 31  2  0  0  0  0
 36 35  1  0  0  0  0
 37 11  1  0  0  0  0
 37 38  1  0  0  0  0
 38 41  1  0  0  0  0
 39 37  2  0  0  0  0
 40 38  1  0  0  0  0
M  END
>  <minimizedAffinity>
-12.4449577

$$$$
