
 OpenBabel11232420043D

 41 46  0  0  1  0  0  0  0  0999 V2000
    0.2790    6.2490   -6.5020 C   0  0  0  0  0  0  0  0  0  0  0  0
    1.4270    5.7020   -7.0320 N   0  0  0  0  0  0  0  0  0  0  0  0
    2.3750    6.5760   -6.7750 C   0  0  0  0  0  0  0  0  0  0  0  0
    1.8850    7.6410   -6.0740 N   0  0  0  0  0  0  0  0  0  0  0  0
    0.5360    7.4610   -5.8730 C   0  0  0  0  0  0  0  0  0  0  0  0
    2.7680    8.6540   -5.5270 C   0  0  0  0  0  2  0  0  0  0  0  0
    3.9780    8.8290   -6.2980 O   0  0  0  0  0  0  0  0  0  0  0  0
    4.5280    7.6990   -6.8490 C   0  0  0  0  0  0  0  0  0  0  0  0
    5.8700    7.7590   -7.2140 C   0  0  0  0  0  3  0  0  0  0  0  0
    6.4790    6.6540   -7.8190 C   0  0  0  0  0  3  0  0  0  0  0  0
    5.7390    5.4880   -8.0650 C   0  0  0  0  0  0  0  0  0  0  0  0
    4.3810    5.4450   -7.7230 C   0  0  0  0  0  3  0  0  0  0  0  0
    3.7790    6.5490   -7.1160 C   0  0  0  0  0  0  0  0  0  0  0  0
   -3.5860    4.3600   -6.7880 C   0  0  0  0  0  0  0  0  0  0  0  0
   -3.1030    5.2580   -7.7690 C   0  0  0  0  0  3  0  0  0  0  0  0
   -1.8440    5.8610   -7.6750 C   0  0  0  0  0  3  0  0  0  0  0  0
   -0.9960    5.5680   -6.6070 C   0  0  0  0  0  0  0  0  0  0  0  0
   -1.4290    4.6640   -5.6390 C   0  0  0  0  0  3  0  0  0  0  0  0
   -2.6990    4.0760   -5.7300 C   0  0  0  0  0  3  0  0  0  0  0  0
   -6.2170    0.5430   -7.5790 C   0  0  0  0  0  1  0  0  0  0  0  0
   -5.2150    1.6610   -7.3450 C   0  0  1  0  0  0  0  0  0  0  0  0
   -5.4600    2.9660   -8.1520 C   0  0  0  0  0  2  0  0  0  0  0  0
   -5.0630    3.7630   -6.8720 C   0  0  1  0  0  0  0  0  0  0  0  0
   -5.4790    2.4970   -6.0640 C   0  0  0  0  0  2  0  0  0  0  0  0
   -5.9910    4.8870   -6.5960 N   0  0  0  0  0  4  0  0  0  0  0  0
   -5.7840    5.3040   -5.6770 H   0  0  0  0  0  0  0  0  0  0  0  0
   -5.8760    5.6460   -7.2810 H   0  0  0  0  0  0  0  0  0  0  0  0
   -6.9790    4.6130   -6.5980 H   0  0  0  0  0  0  0  0  0  0  0  0
   -3.8750    1.1420   -7.4250 O   0  0  0  0  0  0  0  0  0  0  0  0
   -3.8160    0.6340   -8.2560 H   0  0  0  0  0  0  0  0  0  0  0  0
   -0.3060    8.3500   -5.0850 C   0  0  0  0  0  0  0  0  0  0  0  0
   -0.2290    8.3540   -3.6880 C   0  0  0  0  0  3  0  0  0  0  0  0
   -1.0450    9.2070   -2.9410 C   0  0  0  0  0  3  0  0  0  0  0  0
   -1.9380   10.0620   -3.5870 C   0  0  0  0  0  3  0  0  0  0  0  0
   -2.0130   10.0680   -4.9790 C   0  0  0  0  0  3  0  0  0  0  0  0
   -1.1990    9.2180   -5.7260 C   0  0  0  0  0  3  0  0  0  0  0  0
    6.3310    4.2860   -8.7150 C   0  0  0  0  0  0  0  0  0  0  0  0
    6.7780    3.2760   -7.9100 N   0  0  0  0  0  0  0  0  0  0  0  0
    6.3960    4.1860   -9.9340 O   0  0  0  0  0  0  0  0  0  0  0  0
    7.1710    2.4640   -8.3700 H   0  0  0  0  0  0  0  0  0  0  0  0
    6.6810    3.2510   -6.9070 H   0  0  0  0  0  0  0  0  0  0  0  0
  1  5  2  0  0  0  0
  2  3  2  0  0  0  0
  2  1  1  0  0  0  0
  3  4  1  0  0  0  0
  4  5  1  0  0  0  0
  4  6  1  0  0  0  0
  5 31  1  0  0  0  0
  7  6  1  0  0  0  0
  8  7  1  0  0  0  0
  9  8  2  0  0  0  0
 10  9  1  0  0  0  0
 11 10  2  0  0  0  0
 11 12  1  0  0  0  0
 12 13  2  0  0  0  0
 13  8  1  0  0  0  0
 13  3  1  0  0  0  0
 14 19  1  0  0  0  0
 15 16  1  0  0  0  0
 15 14  2  0  0  0  0
 16 17  2  0  0  0  0
 17  1  1  0  0  0  0
 17 18  1  0  0  0  0
 19 18  2  0  0  0  0
 21 20  1  6  0  0  0
 21 24  1  0  0  0  0
 22 21  1  0  0  0  0
 22 23  1  0  0  0  0
 23 14  1  0  0  0  0
 23 25  1  1  0  0  0
 23 24  1  0  0  0  0
 25 26  1  0  0  0  0
 27 25  1  0  0  0  0
 28 25  1  0  0  0  0
 29 21  1  0  0  0  0
 30 29  1  0  0  0  0
 31 32  1  0  0  0  0
 32 33  2  0  0  0  0
 34 33  1  0  0  0  0
 35 34  2  0  0  0  0
 36 31  2  0  0  0  0
 36 35  1  0  0  0  0
 37 11  1  0  0  0  0
 37 38  1  0  0  0  0
 38 41  1  0  0  0  0
 39 37  2  0  0  0  0
 40 38  1  0  0  0  0
M  END
>  <minimizedAffinity>
-13.2511148

$$$$
