
 OpenBabel10152419433D

 40 43  0  0  1  0  0  0  0  0999 V2000
    3.2860  -11.5210  -25.7800 C   0  0  2  0  0  3  0  0  0  0  0  0
   -0.1170  -12.1670  -24.1250 C   0  0  0  0  0  0  0  0  0  0  0  0
   -0.9550  -12.2480  -25.2350 C   0  0  0  0  0  3  0  0  0  0  0  0
   -0.4770  -11.8900  -26.4930 C   0  0  0  0  0  3  0  0  0  0  0  0
    0.8690  -11.5570  -26.6600 C   0  0  0  0  0  3  0  0  0  0  0  0
    1.7660  -11.6130  -25.5820 C   0  0  0  0  0  0  0  0  0  0  0  0
    1.2350  -11.8360  -24.2920 C   0  0  0  0  0  3  0  0  0  0  0  0
   -0.7530  -11.8230  -21.7270 C   0  0  0  0  0  0  0  0  0  0  0  0
   -0.6420  -12.3670  -20.6300 O   0  0  0  0  0  0  0  0  0  0  0  0
   -0.6400  -12.5590  -22.8840 N   0  0  0  0  0  0  0  0  0  0  0  0
   -0.8790  -13.5370  -22.7700 H   0  0  0  0  0  0  0  0  0  0  0  0
   -1.7940   -7.6700  -21.9830 C   0  0  0  0  0  0  0  0  0  0  0  0
   -1.6240   -8.4330  -23.1400 C   0  0  0  0  0  3  0  0  0  0  0  0
   -1.3470   -9.8010  -23.0520 C   0  0  0  0  0  3  0  0  0  0  0  0
   -1.2300  -10.4130  -21.8000 C   0  0  0  0  0  0  0  0  0  0  0  0
   -1.3620   -9.6350  -20.6400 C   0  0  0  0  0  3  0  0  0  0  0  0
   -1.6470   -8.2680  -20.7320 C   0  0  0  0  0  3  0  0  0  0  0  0
   -0.9880   -5.6610  -22.8830 C   0  0  0  0  0  1  0  0  0  0  0  0
   -2.0280   -6.3370  -22.1750 O   0  0  0  0  0  0  0  0  0  0  0  0
    3.6940  -10.3220  -26.5010 N   0  0  0  0  0  0  0  0  0  0  0  0
    3.9440  -10.4470  -27.4760 H   0  0  0  0  0  0  0  0  0  0  0  0
    3.2380   -9.1020  -26.0190 C   0  0  0  0  0  0  0  0  0  0  0  0
    2.7840   -9.0860  -24.7520 N   0  0  0  0  0  0  0  0  0  0  0  0
    1.9180   -8.1270  -24.4430 C   0  0  0  0  0  3  0  0  0  0  0  0
    1.3910   -7.2630  -25.3090 N   0  0  0  0  0  0  0  0  0  0  0  0
    1.9050   -7.2500  -26.5540 C   0  0  0  0  0  0  0  0  0  0  0  0
    1.3420   -6.4950  -27.5810 C   0  0  0  0  0  0  0  0  0  0  0  0
    1.9460   -6.3150  -28.8350 C   0  0  0  0  0  3  0  0  0  0  0  0
    3.1240   -6.9840  -29.1200 C   0  0  0  0  0  3  0  0  0  0  0  0
    3.5960   -7.9110  -28.1960 C   0  0  0  0  0  3  0  0  0  0  0  0
    2.9680   -8.0710  -26.9280 C   0  0  0  0  0  0  0  0  0  0  0  0
   -0.1160   -6.2570  -27.5160 C   0  0  0  0  0  0  0  0  0  0  0  0
   -0.8160   -7.3980  -27.1850 N   0  0  0  0  0  0  0  0  0  0  0  0
   -0.6430   -5.1970  -27.7560 O   0  0  0  0  0  0  0  0  0  0  0  0
   -1.8200   -7.3490  -27.1010 H   0  0  0  0  0  0  0  0  0  0  0  0
   -0.3530   -8.2700  -26.9610 H   0  0  0  0  0  0  0  0  0  0  0  0
    3.8910  -12.7700  -26.4660 C   0  0  0  0  0  2  0  0  0  0  0  0
    4.3550  -12.6370  -27.9160 C   0  0  0  0  0  2  0  0  0  0  0  0
    3.3010  -12.2140  -28.7760 O   0  0  0  0  0  0  0  0  0  0  0  0
    3.7040  -12.0700  -29.6530 H   0  0  0  0  0  0  0  0  0  0  0  0
  1 37  1  6  0  0  0
  1  6  1  0  0  0  0
  2 10  1  0  0  0  0
  3  2  2  0  0  0  0
  4  3  1  0  0  0  0
  5  4  2  0  0  0  0
  5  6  1  0  0  0  0
  6  7  2  0  0  0  0
  7  2  1  0  0  0  0
  8  9  2  0  0  0  0
 10 11  1  0  0  0  0
 10  8  1  0  0  0  0
 12 17  1  0  0  0  0
 13 14  1  0  0  0  0
 13 12  2  0  0  0  0
 14 15  2  0  0  0  0
 15  8  1  0  0  0  0
 15 16  1  0  0  0  0
 17 16  2  0  0  0  0
 18 19  1  0  0  0  0
 19 12  1  0  0  0  0
 20 22  1  0  0  0  0
 20  1  1  0  0  0  0
 21 20  1  0  0  0  0
 22 23  1  0  0  0  0
 23 24  2  0  0  0  0
 25 24  1  0  0  0  0
 26 25  2  0  0  0  0
 27 32  1  0  0  0  0
 27 26  1  0  0  0  0
 28 27  2  0  0  0  0
 29 28  1  0  0  0  0
 29 30  2  0  0  0  0
 30 31  1  0  0  0  0
 31 26  1  0  0  0  0
 31 22  2  0  0  0  0
 32 33  1  0  0  0  0
 33 35  1  0  0  0  0
 33 36  1  0  0  0  0
 34 32  2  0  0  0  0
 38 37  1  0  0  0  0
 39 38  1  0  0  0  0
 40 39  1  0  0  0  0
M  END
>  <minimizedAffinity>
-6.70392036

$$$$
