
 OpenBabel10152419433D

 40 43  0  0  1  0  0  0  0  0999 V2000
   -1.9580   -9.3500  -23.3960 C   0  0  2  0  0  3  0  0  0  0  0  0
    1.0640  -11.1550  -24.9270 C   0  0  0  0  0  0  0  0  0  0  0  0
    0.5950  -11.4460  -26.2060 C   0  0  0  0  0  3  0  0  0  0  0  0
   -0.7500  -11.2560  -26.5120 C   0  0  0  0  0  3  0  0  0  0  0  0
   -1.6040  -10.6710  -25.5750 C   0  0  0  0  0  3  0  0  0  0  0  0
   -1.1200  -10.2330  -24.3320 C   0  0  0  0  0  0  0  0  0  0  0  0
    0.2090  -10.5650  -23.9870 C   0  0  0  0  0  3  0  0  0  0  0  0
    3.4820  -11.3010  -25.5640 C   0  0  0  0  0  0  0  0  0  0  0  0
    4.4620  -12.0270  -25.4050 O   0  0  0  0  0  0  0  0  0  0  0  0
    2.4310  -11.3440  -24.6770 N   0  0  0  0  0  0  0  0  0  0  0  0
    2.6940  -11.6530  -23.7480 H   0  0  0  0  0  0  0  0  0  0  0  0
    3.9630   -8.1590  -28.4420 C   0  0  0  0  0  0  0  0  0  0  0  0
    4.2630   -9.4810  -28.7770 C   0  0  0  0  0  3  0  0  0  0  0  0
    4.0440  -10.5110  -27.8570 C   0  0  0  0  0  3  0  0  0  0  0  0
    3.5310  -10.2210  -26.5890 C   0  0  0  0  0  0  0  0  0  0  0  0
    3.2680   -8.8860  -26.2430 C   0  0  0  0  0  3  0  0  0  0  0  0
    3.4800   -7.8590  -27.1690 C   0  0  0  0  0  3  0  0  0  0  0  0
    4.2570   -7.7370  -30.7300 C   0  0  0  0  0  1  0  0  0  0  0  0
    4.2430   -7.2210  -29.3980 O   0  0  0  0  0  0  0  0  0  0  0  0
   -2.3190   -8.0700  -23.9910 N   0  0  0  0  0  0  0  0  0  0  0  0
   -3.3100   -7.8680  -24.0550 H   0  0  0  0  0  0  0  0  0  0  0  0
   -1.3720   -7.0550  -23.9420 C   0  0  0  0  0  0  0  0  0  0  0  0
   -1.3290   -6.3240  -22.8140 N   0  0  0  0  0  0  0  0  0  0  0  0
   -0.8270   -5.0980  -22.9180 C   0  0  0  0  0  3  0  0  0  0  0  0
   -0.4710   -4.5110  -24.0600 N   0  0  0  0  0  0  0  0  0  0  0  0
   -0.4570   -5.2770  -25.1660 C   0  0  0  0  0  0  0  0  0  0  0  0
   -0.2430   -4.7440  -26.4360 C   0  0  0  0  0  0  0  0  0  0  0  0
   -0.0440   -5.5250  -27.5850 C   0  0  0  0  0  3  0  0  0  0  0  0
   -0.1490   -6.9020  -27.4920 C   0  0  0  0  0  3  0  0  0  0  0  0
   -0.5730   -7.4520  -26.2860 C   0  0  0  0  0  3  0  0  0  0  0  0
   -0.7620   -6.6380  -25.1330 C   0  0  0  0  0  0  0  0  0  0  0  0
   -0.6830   -3.3500  -26.6590 C   0  0  0  0  0  0  0  0  0  0  0  0
    0.2120   -2.6370  -27.4270 N   0  0  0  0  0  0  0  0  0  0  0  0
   -1.6930   -2.8740  -26.1950 O   0  0  0  0  0  0  0  0  0  0  0  0
    0.0060   -1.6760  -27.6520 H   0  0  0  0  0  0  0  0  0  0  0  0
    1.0390   -3.0630  -27.8280 H   0  0  0  0  0  0  0  0  0  0  0  0
   -1.2920   -9.1130  -22.0190 C   0  0  0  0  0  2  0  0  0  0  0  0
   -2.2010   -8.8770  -20.8140 C   0  0  0  0  0  2  0  0  0  0  0  0
   -3.4220   -8.2410  -21.1830 O   0  0  0  0  0  0  0  0  0  0  0  0
   -3.9710   -8.2120  -20.3780 H   0  0  0  0  0  0  0  0  0  0  0  0
  1 37  1  1  0  0  0
  2 10  1  0  0  0  0
  2  7  1  0  0  0  0
  3  2  2  0  0  0  0
  4  3  1  0  0  0  0
  4  5  2  0  0  0  0
  5  6  1  0  0  0  0
  6  7  2  0  0  0  0
  6  1  1  0  0  0  0
  8  9  2  0  0  0  0
  8 10  1  0  0  0  0
 10 11  1  0  0  0  0
 12 17  1  0  0  0  0
 13 12  2  0  0  0  0
 13 14  1  0  0  0  0
 14 15  2  0  0  0  0
 15 16  1  0  0  0  0
 15  8  1  0  0  0  0
 17 16  2  0  0  0  0
 18 19  1  0  0  0  0
 19 12  1  0  0  0  0
 20 22  1  0  0  0  0
 20  1  1  0  0  0  0
 21 20  1  0  0  0  0
 22 23  1  0  0  0  0
 24 23  2  0  0  0  0
 25 24  1  0  0  0  0
 26 31  1  0  0  0  0
 26 25  2  0  0  0  0
 27 26  1  0  0  0  0
 28 29  1  0  0  0  0
 28 27  2  0  0  0  0
 29 30  2  0  0  0  0
 30 31  1  0  0  0  0
 31 22  2  0  0  0  0
 32 27  1  0  0  0  0
 32 34  2  0  0  0  0
 33 32  1  0  0  0  0
 35 33  1  0  0  0  0
 36 33  1  0  0  0  0
 37 38  1  0  0  0  0
 39 38  1  0  0  0  0
 39 40  1  0  0  0  0
M  END
>  <minimizedAffinity>
-9.23357868

$$$$
