
 OpenBabel10152419433D

 40 43  0  0  1  0  0  0  0  0999 V2000
    0.4460   -8.1030  -24.0300 C   0  0  2  0  0  3  0  0  0  0  0  0
    3.0040   -8.4840  -26.8670 C   0  0  0  0  0  0  0  0  0  0  0  0
    3.2420   -9.8570  -26.8440 C   0  0  0  0  0  3  0  0  0  0  0  0
    2.7520  -10.6280  -25.7940 C   0  0  0  0  0  3  0  0  0  0  0  0
    1.9290  -10.0490  -24.8260 C   0  0  0  0  0  3  0  0  0  0  0  0
    1.5540   -8.6990  -24.9120 C   0  0  0  0  0  0  0  0  0  0  0  0
    2.1760   -7.9020  -25.8980 C   0  0  0  0  0  3  0  0  0  0  0  0
    2.8070   -7.0200  -28.8900 C   0  0  0  0  0  0  0  0  0  0  0  0
    3.2070   -6.9490  -30.0510 O   0  0  0  0  0  0  0  0  0  0  0  0
    3.5020   -7.7550  -27.9580 N   0  0  0  0  0  0  0  0  0  0  0  0
    4.4890   -7.8510  -28.1660 H   0  0  0  0  0  0  0  0  0  0  0  0
   -0.2320   -4.4530  -27.2870 C   0  0  0  0  0  0  0  0  0  0  0  0
    0.9620   -3.9210  -27.7790 C   0  0  0  0  0  3  0  0  0  0  0  0
    1.9230   -4.7540  -28.3580 C   0  0  0  0  0  3  0  0  0  0  0  0
    1.6970   -6.1320  -28.4420 C   0  0  0  0  0  0  0  0  0  0  0  0
    0.5140   -6.6680  -27.9120 C   0  0  0  0  0  3  0  0  0  0  0  0
   -0.4490   -5.8290  -27.3400 C   0  0  0  0  0  3  0  0  0  0  0  0
   -0.6000   -2.2200  -26.6760 C   0  0  0  0  0  1  0  0  0  0  0  0
   -1.0920   -3.5610  -26.7100 O   0  0  0  0  0  0  0  0  0  0  0  0
   -0.8940   -8.4390  -24.4940 N   0  0  0  0  0  0  0  0  0  0  0  0
   -1.0040   -8.5640  -25.4950 H   0  0  0  0  0  0  0  0  0  0  0  0
   -1.7470   -9.0540  -23.5870 C   0  0  0  0  0  0  0  0  0  0  0  0
   -2.5240   -8.2440  -22.8460 N   0  0  0  0  0  0  0  0  0  0  0  0
   -2.9490   -8.7270  -21.6830 C   0  0  0  0  0  3  0  0  0  0  0  0
   -2.5770   -9.8930  -21.1570 N   0  0  0  0  0  0  0  0  0  0  0  0
   -1.8550  -10.7170  -21.9390 C   0  0  0  0  0  0  0  0  0  0  0  0
   -1.2890  -11.8950  -21.4530 C   0  0  0  0  0  0  0  0  0  0  0  0
   -0.6860  -12.8640  -22.2710 C   0  0  0  0  0  3  0  0  0  0  0  0
   -0.5570  -12.6170  -23.6270 C   0  0  0  0  0  3  0  0  0  0  0  0
   -0.9170  -11.3620  -24.1070 C   0  0  0  0  0  3  0  0  0  0  0  0
   -1.5330  -10.3990  -23.2580 C   0  0  0  0  0  0  0  0  0  0  0  0
   -0.9110  -11.9150  -20.0240 C   0  0  0  0  0  0  0  0  0  0  0  0
   -0.3440  -10.7260  -19.6170 N   0  0  0  0  0  0  0  0  0  0  0  0
   -1.0480  -12.8720  -19.2990 O   0  0  0  0  0  0  0  0  0  0  0  0
   -0.0580  -10.6250  -18.6560 H   0  0  0  0  0  0  0  0  0  0  0  0
   -0.2630   -9.9280  -20.2350 H   0  0  0  0  0  0  0  0  0  0  0  0
    0.5650   -6.5700  -23.8520 C   0  0  0  0  0  2  0  0  0  0  0  0
   -0.6420   -5.8180  -23.2910 C   0  0  0  0  0  2  0  0  0  0  0  0
   -0.8600   -4.5820  -23.9650 O   0  0  0  0  0  0  0  0  0  0  0  0
   -1.6910   -4.2180  -23.6080 H   0  0  0  0  0  0  0  0  0  0  0  0
  1 37  1  6  0  0  0
  2  3  2  0  0  0  0
  2  7  1  0  0  0  0
  3  4  1  0  0  0  0
  4  5  2  0  0  0  0
  6  5  1  0  0  0  0
  6  1  1  0  0  0  0
  7  6  2  0  0  0  0
  8 15  1  0  0  0  0
  8 10  1  0  0  0  0
  9  8  2  0  0  0  0
 10  2  1  0  0  0  0
 11 10  1  0  0  0  0
 12 19  1  0  0  0  0
 13 12  2  0  0  0  0
 14 13  1  0  0  0  0
 15 14  2  0  0  0  0
 15 16  1  0  0  0  0
 16 17  2  0  0  0  0
 17 12  1  0  0  0  0
 19 18  1  0  0  0  0
 20  1  1  0  0  0  0
 20 22  1  0  0  0  0
 21 20  1  0  0  0  0
 22 31  2  0  0  0  0
 22 23  1  0  0  0  0
 23 24  2  0  0  0  0
 24 25  1  0  0  0  0
 26 27  1  0  0  0  0
 26 25  2  0  0  0  0
 27 32  1  0  0  0  0
 28 27  2  0  0  0  0
 29 28  1  0  0  0  0
 30 29  2  0  0  0  0
 30 31  1  0  0  0  0
 31 26  1  0  0  0  0
 32 33  1  0  0  0  0
 32 34  2  0  0  0  0
 33 35  1  0  0  0  0
 36 33  1  0  0  0  0
 37 38  1  0  0  0  0
 39 40  1  0  0  0  0
 39 38  1  0  0  0  0
M  END
>  <minimizedAffinity>
-7.25194931

$$$$
