
 OpenBabel10152419433D

 40 43  0  0  1  0  0  0  0  0999 V2000
   -1.0550   -8.8750  -23.3430 C   0  0  2  0  0  3  0  0  0  0  0  0
    1.4530  -11.5850  -24.3910 C   0  0  0  0  0  0  0  0  0  0  0  0
    0.6500  -12.4260  -25.1590 C   0  0  0  0  0  3  0  0  0  0  0  0
   -0.7310  -12.2460  -25.1700 C   0  0  0  0  0  3  0  0  0  0  0  0
   -1.2990  -11.1580  -24.5030 C   0  0  0  0  0  3  0  0  0  0  0  0
   -0.4950  -10.2130  -23.8470 C   0  0  0  0  0  0  0  0  0  0  0  0
    0.8850  -10.4920  -23.7250 C   0  0  0  0  0  3  0  0  0  0  0  0
    3.6940  -11.6930  -25.5050 C   0  0  0  0  0  0  0  0  0  0  0  0
    4.6740  -12.4310  -25.5940 O   0  0  0  0  0  0  0  0  0  0  0  0
    2.8400  -11.7960  -24.4310 N   0  0  0  0  0  0  0  0  0  0  0  0
    3.2750  -12.1720  -23.5970 H   0  0  0  0  0  0  0  0  0  0  0  0
    3.6290   -8.2920  -28.1160 C   0  0  0  0  0  0  0  0  0  0  0  0
    4.1780   -9.5030  -28.5400 C   0  0  0  0  0  3  0  0  0  0  0  0
    4.1400  -10.6270  -27.7100 C   0  0  0  0  0  3  0  0  0  0  0  0
    3.5580  -10.5420  -26.4410 C   0  0  0  0  0  0  0  0  0  0  0  0
    3.0430   -9.3130  -26.0030 C   0  0  0  0  0  3  0  0  0  0  0  0
    3.0760   -8.1920  -26.8400 C   0  0  0  0  0  3  0  0  0  0  0  0
    3.9090   -7.6380  -30.3500 C   0  0  0  0  0  1  0  0  0  0  0  0
    3.7460   -7.2440  -28.9870 O   0  0  0  0  0  0  0  0  0  0  0  0
   -0.3750   -7.7210  -23.9160 N   0  0  0  0  0  0  0  0  0  0  0  0
    0.5480   -7.5150  -23.5490 H   0  0  0  0  0  0  0  0  0  0  0  0
   -0.7520   -7.3290  -25.1930 C   0  0  0  0  0  0  0  0  0  0  0  0
   -0.7760   -8.2870  -26.1370 N   0  0  0  0  0  0  0  0  0  0  0  0
   -0.6380   -7.8860  -27.3960 C   0  0  0  0  0  3  0  0  0  0  0  0
   -0.3720   -6.6370  -27.7770 N   0  0  0  0  0  0  0  0  0  0  0  0
   -0.4190   -5.6830  -26.8290 C   0  0  0  0  0  0  0  0  0  0  0  0
   -0.0210   -4.3710  -27.0770 C   0  0  0  0  0  0  0  0  0  0  0  0
   -0.2210   -3.3130  -26.1760 C   0  0  0  0  0  3  0  0  0  0  0  0
   -0.7620   -3.5800  -24.9310 C   0  0  0  0  0  3  0  0  0  0  0  0
   -0.9700   -4.9090  -24.5730 C   0  0  0  0  0  3  0  0  0  0  0  0
   -0.7650   -5.9630  -25.5080 C   0  0  0  0  0  0  0  0  0  0  0  0
    1.0300   -4.1720  -28.0990 C   0  0  0  0  0  0  0  0  0  0  0  0
    2.0520   -5.0900  -27.9820 N   0  0  0  0  0  0  0  0  0  0  0  0
    1.0170   -3.2870  -28.9230 O   0  0  0  0  0  0  0  0  0  0  0  0
    2.8180   -5.0540  -28.6370 H   0  0  0  0  0  0  0  0  0  0  0  0
    2.0290   -5.8390  -27.3020 H   0  0  0  0  0  0  0  0  0  0  0  0
   -1.0640   -8.7590  -21.7990 C   0  0  0  0  0  2  0  0  0  0  0  0
   -2.3570   -9.1080  -21.0620 C   0  0  0  0  0  2  0  0  0  0  0  0
   -2.5670  -10.5150  -20.9920 O   0  0  0  0  0  0  0  0  0  0  0  0
   -3.3560  -10.6480  -20.4340 H   0  0  0  0  0  0  0  0  0  0  0  0
  1 37  1  1  0  0  0
  2  7  1  0  0  0  0
  3  2  2  0  0  0  0
  4  3  1  0  0  0  0
  4  5  2  0  0  0  0
  5  6  1  0  0  0  0
  6  7  2  0  0  0  0
  6  1  1  0  0  0  0
  8 10  1  0  0  0  0
  9  8  2  0  0  0  0
 10  2  1  0  0  0  0
 10 11  1  0  0  0  0
 12 17  1  0  0  0  0
 13 12  2  0  0  0  0
 13 14  1  0  0  0  0
 14 15  2  0  0  0  0
 15 16  1  0  0  0  0
 15  8  1  0  0  0  0
 17 16  2  0  0  0  0
 18 19  1  0  0  0  0
 19 12  1  0  0  0  0
 20 21  1  0  0  0  0
 20  1  1  0  0  0  0
 22 20  1  0  0  0  0
 23 22  2  0  0  0  0
 24 23  1  0  0  0  0
 25 24  2  0  0  0  0
 25 26  1  0  0  0  0
 26 31  1  0  0  0  0
 27 26  2  0  0  0  0
 27 28  1  0  0  0  0
 28 29  2  0  0  0  0
 29 30  1  0  0  0  0
 31 22  1  0  0  0  0
 31 30  2  0  0  0  0
 32 33  1  0  0  0  0
 32 27  1  0  0  0  0
 33 36  1  0  0  0  0
 34 32  2  0  0  0  0
 35 33  1  0  0  0  0
 37 38  1  0  0  0  0
 38 39  1  0  0  0  0
 39 40  1  0  0  0  0
M  END
>  <minimizedAffinity>
-7.50439548

$$$$
