
 OpenBabel10152419433D

 40 43  0  0  1  0  0  0  0  0999 V2000
    0.0350  -11.5030  -25.2220 C   0  0  2  0  0  3  0  0  0  0  0  0
   -1.5840  -11.0040  -21.7780 C   0  0  0  0  0  0  0  0  0  0  0  0
   -0.8880  -11.9320  -21.0060 C   0  0  0  0  0  3  0  0  0  0  0  0
   -0.0530  -12.8600  -21.6230 C   0  0  0  0  0  3  0  0  0  0  0  0
    0.1720  -12.7910  -22.9990 C   0  0  0  0  0  3  0  0  0  0  0  0
   -0.4020  -11.7710  -23.7740 C   0  0  0  0  0  0  0  0  0  0  0  0
   -1.3560  -10.9310  -23.1580 C   0  0  0  0  0  3  0  0  0  0  0  0
   -2.3140   -8.7030  -21.1080 C   0  0  0  0  0  0  0  0  0  0  0  0
   -2.6190   -8.0600  -20.1050 O   0  0  0  0  0  0  0  0  0  0  0  0
   -2.3950  -10.0770  -21.1060 N   0  0  0  0  0  0  0  0  0  0  0  0
   -3.0710  -10.4450  -20.4460 H   0  0  0  0  0  0  0  0  0  0  0  0
   -1.5220   -6.9470  -24.9390 C   0  0  0  0  0  0  0  0  0  0  0  0
   -2.7430   -7.5720  -24.6830 C   0  0  0  0  0  3  0  0  0  0  0  0
   -3.0230   -8.0880  -23.4140 C   0  0  0  0  0  3  0  0  0  0  0  0
   -2.0730   -7.9870  -22.3920 C   0  0  0  0  0  0  0  0  0  0  0  0
   -0.8310   -7.3920  -22.6640 C   0  0  0  0  0  3  0  0  0  0  0  0
   -0.5590   -6.8710  -23.9340 C   0  0  0  0  0  3  0  0  0  0  0  0
    0.0400   -6.4410  -26.6130 C   0  0  0  0  0  1  0  0  0  0  0  0
   -1.3320   -6.5060  -26.2200 O   0  0  0  0  0  0  0  0  0  0  0  0
    1.4550  -11.7450  -25.4420 N   0  0  0  0  0  0  0  0  0  0  0  0
    1.6920  -12.5750  -25.9740 H   0  0  0  0  0  0  0  0  0  0  0  0
    2.3030  -10.6460  -25.3940 C   0  0  0  0  0  0  0  0  0  0  0  0
    1.9480   -9.6460  -24.5660 N   0  0  0  0  0  0  0  0  0  0  0  0
    2.4220   -8.4390  -24.8550 C   0  0  0  0  0  3  0  0  0  0  0  0
    3.1200   -8.1310  -25.9480 N   0  0  0  0  0  0  0  0  0  0  0  0
    3.5220   -9.1520  -26.7270 C   0  0  0  0  0  0  0  0  0  0  0  0
    4.1310   -8.9470  -27.9640 C   0  0  0  0  0  0  0  0  0  0  0  0
    4.7220   -9.9710  -28.7200 C   0  0  0  0  0  3  0  0  0  0  0  0
    4.6310  -11.2780  -28.2750 C   0  0  0  0  0  3  0  0  0  0  0  0
    3.8450  -11.5410  -27.1560 C   0  0  0  0  0  3  0  0  0  0  0  0
    3.2620  -10.4830  -26.4030 C   0  0  0  0  0  0  0  0  0  0  0  0
    3.7510   -7.7230  -28.7020 C   0  0  0  0  0  0  0  0  0  0  0  0
    4.2670   -6.5830  -28.1220 N   0  0  0  0  0  0  0  0  0  0  0  0
    3.0410   -7.7120  -29.6800 O   0  0  0  0  0  0  0  0  0  0  0  0
    4.0800   -5.6900  -28.5500 H   0  0  0  0  0  0  0  0  0  0  0  0
    4.8820   -6.6180  -27.3180 H   0  0  0  0  0  0  0  0  0  0  0  0
   -0.3350  -10.0850  -25.7200 C   0  0  0  0  0  2  0  0  0  0  0  0
   -1.4360   -9.9600  -26.7730 C   0  0  0  0  0  2  0  0  0  0  0  0
   -2.5960  -10.7080  -26.4220 O   0  0  0  0  0  0  0  0  0  0  0  0
   -3.2710  -10.5010  -27.0940 H   0  0  0  0  0  0  0  0  0  0  0  0
  1 37  1  1  0  0  0
  1  6  1  0  0  0  0
  2 10  1  0  0  0  0
  2  3  1  0  0  0  0
  4  3  2  0  0  0  0
  5  4  1  0  0  0  0
  6  7  1  0  0  0  0
  6  5  2  0  0  0  0
  7  2  2  0  0  0  0
  8 10  1  0  0  0  0
  8  9  2  0  0  0  0
 10 11  1  0  0  0  0
 12 13  2  0  0  0  0
 12 17  1  0  0  0  0
 13 14  1  0  0  0  0
 14 15  2  0  0  0  0
 15  8  1  0  0  0  0
 16 15  1  0  0  0  0
 17 16  2  0  0  0  0
 18 19  1  0  0  0  0
 19 12  1  0  0  0  0
 20 22  1  0  0  0  0
 20  1  1  0  0  0  0
 21 20  1  0  0  0  0
 22 23  1  0  0  0  0
 24 23  2  0  0  0  0
 25 24  1  0  0  0  0
 26 31  1  0  0  0  0
 26 25  2  0  0  0  0
 27 26  1  0  0  0  0
 28 29  1  0  0  0  0
 28 27  2  0  0  0  0
 29 30  2  0  0  0  0
 30 31  1  0  0  0  0
 31 22  2  0  0  0  0
 32 33  1  0  0  0  0
 32 27  1  0  0  0  0
 33 36  1  0  0  0  0
 34 32  2  0  0  0  0
 35 33  1  0  0  0  0
 38 39  1  0  0  0  0
 38 37  1  0  0  0  0
 40 39  1  0  0  0  0
M  END
>  <minimizedAffinity>
-7.32998228

$$$$
