
 OpenBabel10152419433D

 40 43  0  0  1  0  0  0  0  0999 V2000
   -1.8180   -8.1530  -23.7300 C   0  0  2  0  0  3  0  0  0  0  0  0
    0.7390  -10.9590  -24.2960 C   0  0  0  0  0  0  0  0  0  0  0  0
    0.3450  -11.4470  -25.5400 C   0  0  0  0  0  3  0  0  0  0  0  0
   -0.8570  -11.0260  -26.1020 C   0  0  0  0  0  3  0  0  0  0  0  0
   -1.6120  -10.0330  -25.4730 C   0  0  0  0  0  3  0  0  0  0  0  0
   -1.1600   -9.4210  -24.2940 C   0  0  0  0  0  0  0  0  0  0  0  0
   -0.0160   -9.9610  -23.6660 C   0  0  0  0  0  3  0  0  0  0  0  0
    2.9290  -12.1710  -24.3970 C   0  0  0  0  0  0  0  0  0  0  0  0
    3.6070  -12.9590  -23.7410 O   0  0  0  0  0  0  0  0  0  0  0  0
    1.9690  -11.3990  -23.7840 N   0  0  0  0  0  0  0  0  0  0  0  0
    2.1510  -11.2250  -22.8020 H   0  0  0  0  0  0  0  0  0  0  0  0
    3.6930  -11.1860  -28.5010 C   0  0  0  0  0  0  0  0  0  0  0  0
    4.0070  -10.2840  -27.4830 C   0  0  0  0  0  3  0  0  0  0  0  0
    3.8160  -10.6330  -26.1430 C   0  0  0  0  0  3  0  0  0  0  0  0
    3.2980  -11.8900  -25.8130 C   0  0  0  0  0  0  0  0  0  0  0  0
    2.9470  -12.7790  -26.8400 C   0  0  0  0  0  3  0  0  0  0  0  0
    3.1470  -12.4290  -28.1800 C   0  0  0  0  0  3  0  0  0  0  0  0
    4.2330   -9.3560  -29.8620 C   0  0  0  0  0  1  0  0  0  0  0  0
    3.8850  -10.7380  -29.7790 O   0  0  0  0  0  0  0  0  0  0  0  0
   -0.8880   -7.3100  -22.9900 N   0  0  0  0  0  0  0  0  0  0  0  0
   -0.3670   -7.7610  -22.2460 H   0  0  0  0  0  0  0  0  0  0  0  0
   -0.4040   -6.1780  -23.6320 C   0  0  0  0  0  0  0  0  0  0  0  0
   -1.0420   -5.0210  -23.3790 N   0  0  0  0  0  0  0  0  0  0  0  0
   -0.9470   -4.0730  -24.3060 C   0  0  0  0  0  3  0  0  0  0  0  0
   -0.3690   -4.2230  -25.4970 N   0  0  0  0  0  0  0  0  0  0  0  0
    0.3200   -5.3610  -25.7070 C   0  0  0  0  0  0  0  0  0  0  0  0
    0.8440   -5.6920  -26.9550 C   0  0  0  0  0  0  0  0  0  0  0  0
    1.7140   -6.7710  -27.1730 C   0  0  0  0  0  3  0  0  0  0  0  0
    2.0140   -7.6200  -26.1210 C   0  0  0  0  0  3  0  0  0  0  0  0
    1.3390   -7.4420  -24.9170 C   0  0  0  0  0  3  0  0  0  0  0  0
    0.4660   -6.3350  -24.7200 C   0  0  0  0  0  0  0  0  0  0  0  0
    0.1200   -5.1840  -28.1400 C   0  0  0  0  0  0  0  0  0  0  0  0
   -1.2250   -5.4870  -28.1000 N   0  0  0  0  0  0  0  0  0  0  0  0
    0.6460   -4.6000  -29.0590 O   0  0  0  0  0  0  0  0  0  0  0  0
   -1.8180   -5.1770  -28.8540 H   0  0  0  0  0  0  0  0  0  0  0  0
   -1.6490   -5.9530  -27.3080 H   0  0  0  0  0  0  0  0  0  0  0  0
   -3.0610   -8.4470  -22.8550 C   0  0  0  0  0  2  0  0  0  0  0  0
   -4.3700   -7.7420  -23.2100 C   0  0  0  0  0  2  0  0  0  0  0  0
   -5.2890   -7.7460  -22.1210 O   0  0  0  0  0  0  0  0  0  0  0  0
   -6.0490   -7.2030  -22.4020 H   0  0  0  0  0  0  0  0  0  0  0  0
  1 20  1  0  0  0  0
  1 37  1  1  0  0  0
  2 10  1  0  0  0  0
  2  7  1  0  0  0  0
  3  2  2  0  0  0  0
  4  3  1  0  0  0  0
  4  5  2  0  0  0  0
  5  6  1  0  0  0  0
  6  1  1  0  0  0  0
  6  7  2  0  0  0  0
  8 10  1  0  0  0  0
  8  9  2  0  0  0  0
 10 11  1  0  0  0  0
 12 17  2  0  0  0  0
 12 13  1  0  0  0  0
 13 14  2  0  0  0  0
 14 15  1  0  0  0  0
 15  8  1  0  0  0  0
 16 15  2  0  0  0  0
 17 16  1  0  0  0  0
 18 19  1  0  0  0  0
 19 12  1  0  0  0  0
 20 21  1  0  0  0  0
 22 23  1  0  0  0  0
 22 20  1  0  0  0  0
 24 23  2  0  0  0  0
 25 24  1  0  0  0  0
 26 25  2  0  0  0  0
 26 31  1  0  0  0  0
 27 26  1  0  0  0  0
 28 27  2  0  0  0  0
 28 29  1  0  0  0  0
 29 30  2  0  0  0  0
 30 31  1  0  0  0  0
 31 22  2  0  0  0  0
 32 33  1  0  0  0  0
 32 27  1  0  0  0  0
 33 36  1  0  0  0  0
 34 32  2  0  0  0  0
 35 33  1  0  0  0  0
 38 37  1  0  0  0  0
 38 39  1  0  0  0  0
 40 39  1  0  0  0  0
M  END
>  <minimizedAffinity>
-7.22383213

$$$$
