
 OpenBabel10152419433D

 40 43  0  0  1  0  0  0  0  0999 V2000
    1.7490  -11.2700  -24.4520 C   0  0  2  0  0  3  0  0  0  0  0  0
   -1.3520   -9.7690  -22.7590 C   0  0  0  0  0  0  0  0  0  0  0  0
   -1.6680  -10.7590  -21.8300 C   0  0  0  0  0  3  0  0  0  0  0  0
   -1.0250  -11.9920  -21.8840 C   0  0  0  0  0  3  0  0  0  0  0  0
    0.0140  -12.1990  -22.7950 C   0  0  0  0  0  3  0  0  0  0  0  0
    0.4490  -11.1660  -23.6400 C   0  0  0  0  0  0  0  0  0  0  0  0
   -0.3090   -9.9750  -23.6710 C   0  0  0  0  0  3  0  0  0  0  0  0
   -1.5860   -7.2920  -23.0470 C   0  0  0  0  0  0  0  0  0  0  0  0
   -1.9060   -6.2900  -22.4100 O   0  0  0  0  0  0  0  0  0  0  0  0
   -2.0150   -8.5370  -22.6480 N   0  0  0  0  0  0  0  0  0  0  0  0
   -2.8780   -8.5220  -22.1180 H   0  0  0  0  0  0  0  0  0  0  0  0
    0.1050   -6.5770  -26.9230 C   0  0  0  0  0  0  0  0  0  0  0  0
    0.5230   -5.8350  -25.8170 C   0  0  0  0  0  3  0  0  0  0  0  0
    0.0160   -6.1130  -24.5440 C   0  0  0  0  0  3  0  0  0  0  0  0
   -0.9220   -7.1360  -24.3710 C   0  0  0  0  0  0  0  0  0  0  0  0
   -1.3690   -7.8540  -25.4910 C   0  0  0  0  0  3  0  0  0  0  0  0
   -0.8540   -7.5770  -26.7620 C   0  0  0  0  0  3  0  0  0  0  0  0
    1.2860   -4.9360  -28.1080 C   0  0  0  0  0  1  0  0  0  0  0  0
    0.6340   -6.2060  -28.1280 O   0  0  0  0  0  0  0  0  0  0  0  0
    1.6500  -10.6500  -25.7670 N   0  0  0  0  0  0  0  0  0  0  0  0
    0.7120  -10.4970  -26.1210 H   0  0  0  0  0  0  0  0  0  0  0  0
    2.7210   -9.8740  -26.1880 C   0  0  0  0  0  0  0  0  0  0  0  0
    2.8540   -8.6660  -25.6110 N   0  0  0  0  0  0  0  0  0  0  0  0
    3.5140   -7.7440  -26.3060 C   0  0  0  0  0  3  0  0  0  0  0  0
    3.9490   -7.8940  -27.5560 N   0  0  0  0  0  0  0  0  0  0  0  0
    3.8680   -9.1270  -28.0910 C   0  0  0  0  0  0  0  0  0  0  0  0
    4.1560   -9.3750  -29.4320 C   0  0  0  0  0  0  0  0  0  0  0  0
    4.2560  -10.6620  -29.9820 C   0  0  0  0  0  3  0  0  0  0  0  0
    3.9710  -11.7590  -29.1880 C   0  0  0  0  0  3  0  0  0  0  0  0
    3.4720  -11.5360  -27.9080 C   0  0  0  0  0  3  0  0  0  0  0  0
    3.3870  -10.2200  -27.3710 C   0  0  0  0  0  0  0  0  0  0  0  0
    3.9040   -8.2730  -30.3850 C   0  0  0  0  0  0  0  0  0  0  0  0
    4.6610   -7.1550  -30.1020 N   0  0  0  0  0  0  0  0  0  0  0  0
    3.1040   -8.3260  -31.2900 O   0  0  0  0  0  0  0  0  0  0  0  0
    4.5780   -6.3450  -30.6970 H   0  0  0  0  0  0  0  0  0  0  0  0
    5.3450   -7.1410  -29.3560 H   0  0  0  0  0  0  0  0  0  0  0  0
    2.2630  -12.7220  -24.5990 C   0  0  0  0  0  2  0  0  0  0  0  0
    3.7720  -12.9580  -24.5360 C   0  0  0  0  0  2  0  0  0  0  0  0
    4.3150  -12.5940  -23.2700 O   0  0  0  0  0  0  0  0  0  0  0  0
    5.2540  -12.8580  -23.2870 H   0  0  0  0  0  0  0  0  0  0  0  0
  1 37  1  6  0  0  0
  1  6  1  0  0  0  0
  2 10  1  0  0  0  0
  2  3  1  0  0  0  0
  4  3  2  0  0  0  0
  5  4  1  0  0  0  0
  6  5  2  0  0  0  0
  7  6  1  0  0  0  0
  7  2  2  0  0  0  0
  8 10  1  0  0  0  0
  8  9  2  0  0  0  0
 10 11  1  0  0  0  0
 12 17  2  0  0  0  0
 12 13  1  0  0  0  0
 13 14  2  0  0  0  0
 14 15  1  0  0  0  0
 15  8  1  0  0  0  0
 16 15  2  0  0  0  0
 17 16  1  0  0  0  0
 19 18  1  0  0  0  0
 19 12  1  0  0  0  0
 20  1  1  0  0  0  0
 21 20  1  0  0  0  0
 22 20  1  0  0  0  0
 22 23  1  0  0  0  0
 24 23  2  0  0  0  0
 25 24  1  0  0  0  0
 26 25  2  0  0  0  0
 26 31  1  0  0  0  0
 27 26  1  0  0  0  0
 28 27  2  0  0  0  0
 28 29  1  0  0  0  0
 29 30  2  0  0  0  0
 30 31  1  0  0  0  0
 31 22  2  0  0  0  0
 32 33  1  0  0  0  0
 32 27  1  0  0  0  0
 33 36  1  0  0  0  0
 34 32  2  0  0  0  0
 35 33  1  0  0  0  0
 37 38  1  0  0  0  0
 38 39  1  0  0  0  0
 40 39  1  0  0  0  0
M  END
>  <minimizedAffinity>
-8.62867451

$$$$
