
 OpenBabel11232420033D

 41 46  0  0  1  0  0  0  0  0999 V2000
   -9.2590   -9.8220    9.2290 C   0  0  0  0  0  0  0  0  0  0  0  0
   -8.6100   -8.7050    9.7220 N   0  0  0  0  0  0  0  0  0  0  0  0
   -7.5790   -9.1600   10.3960 C   0  0  0  0  0  0  0  0  0  0  0  0
   -7.5480  -10.5230   10.3740 N   0  0  0  0  0  0  0  0  0  0  0  0
   -8.5950  -10.9840    9.6070 C   0  0  0  0  0  0  0  0  0  0  0  0
   -6.4720  -11.2750   10.9920 C   0  0  0  0  0  2  0  0  0  0  0  0
   -5.8010  -10.5570   12.0520 O   0  0  0  0  0  0  0  0  0  0  0  0
   -5.6820   -9.1990   11.9080 C   0  0  0  0  0  0  0  0  0  0  0  0
   -4.6920   -8.5640   12.6550 C   0  0  0  0  0  3  0  0  0  0  0  0
   -4.5410   -7.1750   12.5740 C   0  0  0  0  0  3  0  0  0  0  0  0
   -5.3870   -6.4190   11.7500 C   0  0  0  0  0  0  0  0  0  0  0  0
   -6.4030   -7.0610   11.0300 C   0  0  0  0  0  3  0  0  0  0  0  0
   -6.5470   -8.4470   11.1080 C   0  0  0  0  0  0  0  0  0  0  0  0
  -12.7060   -9.4230    6.6400 C   0  0  0  0  0  0  0  0  0  0  0  0
  -11.5520   -8.6180    6.5130 C   0  0  0  0  0  3  0  0  0  0  0  0
  -10.4530   -8.7500    7.3710 C   0  0  0  0  0  3  0  0  0  0  0  0
  -10.4600   -9.6760    8.4180 C   0  0  0  0  0  0  0  0  0  0  0  0
  -11.6030  -10.4530    8.5920 C   0  0  0  0  0  3  0  0  0  0  0  0
  -12.6980  -10.3260    7.7230 C   0  0  0  0  0  3  0  0  0  0  0  0
  -16.3770   -6.9340    5.0550 C   0  0  0  0  0  1  0  0  0  0  0  0
  -15.1740   -7.5950    5.7090 C   0  0  1  0  0  0  0  0  0  0  0  0
  -15.3710   -9.1000    6.0280 C   0  0  0  0  0  2  0  0  0  0  0  0
  -13.8960   -9.3310    5.5820 C   0  0  1  0  0  0  0  0  0  0  0  0
  -14.0350   -8.0250    4.7440 C   0  0  0  0  0  2  0  0  0  0  0  0
  -13.7970  -10.5400    4.7250 N   0  0  0  0  0  4  0  0  0  0  0  0
  -12.9010  -10.5710    4.2220 H   0  0  0  0  0  0  0  0  0  0  0  0
  -13.8250  -11.3910    5.3040 H   0  0  0  0  0  0  0  0  0  0  0  0
  -14.5480  -10.6110    4.0290 H   0  0  0  0  0  0  0  0  0  0  0  0
  -14.7470   -6.8180    6.8430 O   0  0  0  0  0  0  0  0  0  0  0  0
  -14.6500   -5.8960    6.5370 H   0  0  0  0  0  0  0  0  0  0  0  0
   -8.8330  -12.3980    9.3590 C   0  0  0  0  0  0  0  0  0  0  0  0
   -8.1140  -13.0710    8.3650 C   0  0  0  0  0  3  0  0  0  0  0  0
   -8.3660  -14.4200    8.1120 C   0  0  0  0  0  3  0  0  0  0  0  0
   -9.3320  -15.1030    8.8520 C   0  0  0  0  0  3  0  0  0  0  0  0
  -10.0480  -14.4370    9.8460 C   0  0  0  0  0  3  0  0  0  0  0  0
   -9.8020  -13.0870   10.0970 C   0  0  0  0  0  3  0  0  0  0  0  0
   -5.2700   -4.9410   11.6220 C   0  0  0  0  0  0  0  0  0  0  0  0
   -5.6200   -4.3720   10.4300 N   0  0  0  0  0  0  0  0  0  0  0  0
   -4.9050   -4.2450   12.5620 O   0  0  0  0  0  0  0  0  0  0  0  0
   -5.5430   -3.3650   10.3620 H   0  0  0  0  0  0  0  0  0  0  0  0
   -6.0120   -4.8700    9.6470 H   0  0  0  0  0  0  0  0  0  0  0  0
  1  5  2  0  0  0  0
  1  2  1  0  0  0  0
  2  3  2  0  0  0  0
  3 13  1  0  0  0  0
  4  3  1  0  0  0  0
  4  6  1  0  0  0  0
  5  4  1  0  0  0  0
  6  7  1  0  0  0  0
  8  7  1  0  0  0  0
  8  9  1  0  0  0  0
 10  9  2  0  0  0  0
 11 10  1  0  0  0  0
 12 13  1  0  0  0  0
 12 11  2  0  0  0  0
 13  8  2  0  0  0  0
 14 19  1  0  0  0  0
 15 14  2  0  0  0  0
 15 16  1  0  0  0  0
 16 17  2  0  0  0  0
 17 18  1  0  0  0  0
 17  1  1  0  0  0  0
 19 18  2  0  0  0  0
 21 20  1  6  0  0  0
 21 22  1  0  0  0  0
 21 29  1  0  0  0  0
 23 25  1  6  0  0  0
 23 22  1  0  0  0  0
 23 14  1  0  0  0  0
 24 23  1  0  0  0  0
 24 21  1  0  0  0  0
 25 27  1  0  0  0  0
 26 25  1  0  0  0  0
 28 25  1  0  0  0  0
 30 29  1  0  0  0  0
 31  5  1  0  0  0  0
 31 36  1  0  0  0  0
 32 31  2  0  0  0  0
 33 32  1  0  0  0  0
 33 34  2  0  0  0  0
 34 35  1  0  0  0  0
 35 36  2  0  0  0  0
 37 11  1  0  0  0  0
 37 39  2  0  0  0  0
 38 37  1  0  0  0  0
 40 38  1  0  0  0  0
 41 38  1  0  0  0  0
M  END
>  <minimizedAffinity>
-5.04693508

$$$$
