
 OpenBabel11232420033D

 41 46  0  0  1  0  0  0  0  0999 V2000
   -8.6180   -9.4950    9.7850 C   0  0  0  0  0  0  0  0  0  0  0  0
   -9.7750   -8.9610    9.2470 N   0  0  0  0  0  0  0  0  0  0  0  0
  -10.4850   -9.9890    8.8400 C   0  0  0  0  0  0  0  0  0  0  0  0
   -9.8260  -11.1580    9.0770 N   0  0  0  0  0  0  0  0  0  0  0  0
   -8.6350  -10.8830    9.7120 C   0  0  0  0  0  0  0  0  0  0  0  0
  -10.4220  -12.4480    8.7780 C   0  0  0  0  0  2  0  0  0  0  0  0
  -11.4390  -12.3900    7.7540 O   0  0  0  0  0  0  0  0  0  0  0  0
  -12.2130  -11.2590    7.7060 C   0  0  0  0  0  0  0  0  0  0  0  0
  -13.4400  -11.3550    7.0530 C   0  0  0  0  0  3  0  0  0  0  0  0
  -14.2620  -10.2270    6.9440 C   0  0  0  0  0  3  0  0  0  0  0  0
  -13.8510   -8.9990    7.4820 C   0  0  0  0  0  0  0  0  0  0  0  0
  -12.5990   -8.9020    8.1050 C   0  0  0  0  0  3  0  0  0  0  0  0
  -11.7860  -10.0300    8.2170 C   0  0  0  0  0  0  0  0  0  0  0  0
   -5.6040   -6.9970   11.6340 C   0  0  0  0  0  0  0  0  0  0  0  0
   -6.9220   -7.1060   12.1300 C   0  0  0  0  0  3  0  0  0  0  0  0
   -7.8890   -7.9060   11.5090 C   0  0  0  0  0  3  0  0  0  0  0  0
   -7.5970   -8.6190   10.3430 C   0  0  0  0  0  0  0  0  0  0  0  0
   -6.3160   -8.4960    9.8070 C   0  0  0  0  0  3  0  0  0  0  0  0
   -5.3460   -7.7030   10.4400 C   0  0  0  0  0  3  0  0  0  0  0  0
   -1.5920   -7.1550   14.0950 C   0  0  0  0  0  1  0  0  0  0  0  0
   -2.8760   -7.3060   13.2960 C   0  0  1  0  0  0  0  0  0  0  0  0
   -4.0850   -6.5310   13.8820 C   0  0  0  0  0  2  0  0  0  0  0  0
   -4.4910   -6.1700   12.4220 C   0  0  1  0  0  0  0  0  0  0  0  0
   -2.9980   -6.3990   12.0410 C   0  0  0  0  0  2  0  0  0  0  0  0
   -4.8810   -4.7390   12.3310 N   0  0  0  0  0  4  0  0  0  0  0  0
   -4.9090   -4.4190   11.3550 H   0  0  0  0  0  0  0  0  0  0  0  0
   -5.8320   -4.6050   12.7000 H   0  0  0  0  0  0  0  0  0  0  0  0
   -4.2540   -4.1110   12.8470 H   0  0  0  0  0  0  0  0  0  0  0  0
   -3.1460   -8.7010   13.0640 O   0  0  0  0  0  0  0  0  0  0  0  0
   -2.3310   -9.0910   12.6940 H   0  0  0  0  0  0  0  0  0  0  0  0
   -7.7020  -11.9190   10.1290 C   0  0  0  0  0  0  0  0  0  0  0  0
   -7.7500  -12.4290   11.4310 C   0  0  0  0  0  3  0  0  0  0  0  0
   -6.8340  -13.4010   11.8360 C   0  0  0  0  0  3  0  0  0  0  0  0
   -5.8720  -13.8710   10.9410 C   0  0  0  0  0  3  0  0  0  0  0  0
   -5.8230  -13.3690    9.6420 C   0  0  0  0  0  3  0  0  0  0  0  0
   -6.7340  -12.3930    9.2370 C   0  0  0  0  0  3  0  0  0  0  0  0
  -14.6840   -7.7690    7.4000 C   0  0  0  0  0  0  0  0  0  0  0  0
  -15.4560   -7.5930    6.2860 N   0  0  0  0  0  0  0  0  0  0  0  0
  -14.7090   -6.9510    8.3120 O   0  0  0  0  0  0  0  0  0  0  0  0
  -16.0240   -6.7550    6.2500 H   0  0  0  0  0  0  0  0  0  0  0  0
  -15.5550   -8.2630    5.5410 H   0  0  0  0  0  0  0  0  0  0  0  0
  1 17  1  0  0  0  0
  2  1  1  0  0  0  0
  3  4  1  0  0  0  0
  3  2  2  0  0  0  0
  4  5  1  0  0  0  0
  5  1  2  0  0  0  0
  5 31  1  0  0  0  0
  6  4  1  0  0  0  0
  7  6  1  0  0  0  0
  8  7  1  0  0  0  0
  8 13  1  0  0  0  0
  9  8  2  0  0  0  0
 10  9  1  0  0  0  0
 10 11  2  0  0  0  0
 11 12  1  0  0  0  0
 12 13  2  0  0  0  0
 13  3  1  0  0  0  0
 14 15  1  0  0  0  0
 14 23  1  0  0  0  0
 16 15  2  0  0  0  0
 17 16  1  0  0  0  0
 18 17  2  0  0  0  0
 18 19  1  0  0  0  0
 19 14  2  0  0  0  0
 21 22  1  0  0  0  0
 21 20  1  1  0  0  0
 23 25  1  6  0  0  0
 23 22  1  0  0  0  0
 24 23  1  0  0  0  0
 24 21  1  0  0  0  0
 25 27  1  0  0  0  0
 25 28  1  0  0  0  0
 26 25  1  0  0  0  0
 29 21  1  0  0  0  0
 30 29  1  0  0  0  0
 31 32  1  0  0  0  0
 32 33  2  0  0  0  0
 34 33  1  0  0  0  0
 35 34  2  0  0  0  0
 36 35  1  0  0  0  0
 36 31  2  0  0  0  0
 37 11  1  0  0  0  0
 37 39  2  0  0  0  0
 38 37  1  0  0  0  0
 40 38  1  0  0  0  0
 41 38  1  0  0  0  0
M  END
>  <minimizedAffinity>
-5.21223307

$$$$
