
 OpenBabel11232420033D

 41 46  0  0  1  0  0  0  0  0999 V2000
   -6.7040  -10.2710   10.2030 C   0  0  0  0  0  0  0  0  0  0  0  0
   -5.5710   -9.7390   10.7920 N   0  0  0  0  0  0  0  0  0  0  0  0
   -5.8570   -8.4820   11.0430 C   0  0  0  0  0  0  0  0  0  0  0  0
   -7.1180   -8.1780   10.6240 N   0  0  0  0  0  0  0  0  0  0  0  0
   -7.7060   -9.3110   10.1060 C   0  0  0  0  0  0  0  0  0  0  0  0
   -7.7020   -6.8670   10.8410 C   0  0  0  0  0  2  0  0  0  0  0  0
   -6.7220   -5.8170   10.9940 O   0  0  0  0  0  0  0  0  0  0  0  0
   -5.5480   -6.1450   11.6190 C   0  0  0  0  0  0  0  0  0  0  0  0
   -4.8010   -5.1020   12.1620 C   0  0  0  0  0  3  0  0  0  0  0  0
   -3.5780   -5.3700   12.7870 C   0  0  0  0  0  3  0  0  0  0  0  0
   -3.0960   -6.6860   12.8610 C   0  0  0  0  0  0  0  0  0  0  0  0
   -3.8350   -7.7250   12.2800 C   0  0  0  0  0  3  0  0  0  0  0  0
   -5.0570   -7.4540   11.6640 C   0  0  0  0  0  0  0  0  0  0  0  0
   -7.0060  -14.4110    8.9730 C   0  0  0  0  0  0  0  0  0  0  0  0
   -7.7070  -13.8850   10.0800 C   0  0  0  0  0  3  0  0  0  0  0  0
   -7.5840  -12.5460   10.4740 C   0  0  0  0  0  3  0  0  0  0  0  0
   -6.7320  -11.6690    9.7970 C   0  0  0  0  0  0  0  0  0  0  0  0
   -5.9960  -12.1730    8.7270 C   0  0  0  0  0  3  0  0  0  0  0  0
   -6.1320  -13.5120    8.3280 C   0  0  0  0  0  3  0  0  0  0  0  0
   -8.3610  -17.2110    5.4370 C   0  0  0  0  0  1  0  0  0  0  0  0
   -7.9700  -16.1530    6.4560 C   0  0  1  0  0  0  0  0  0  0  0  0
   -8.6080  -16.3520    7.8560 C   0  0  0  0  0  2  0  0  0  0  0  0
   -7.2500  -15.9070    8.4770 C   0  0  1  0  0  0  0  0  0  0  0  0
   -6.5890  -16.3540    7.1380 C   0  0  0  0  0  2  0  0  0  0  0  0
   -6.8820  -16.7950    9.6090 N   0  0  0  0  0  4  0  0  0  0  0  0
   -5.8930  -16.6830    9.8680 H   0  0  0  0  0  0  0  0  0  0  0  0
   -7.4230  -16.5460   10.4480 H   0  0  0  0  0  0  0  0  0  0  0  0
   -7.0430  -17.7900    9.4170 H   0  0  0  0  0  0  0  0  0  0  0  0
   -8.1890  -14.8410    5.9060 O   0  0  0  0  0  0  0  0  0  0  0  0
   -7.7480  -14.8190    5.0350 H   0  0  0  0  0  0  0  0  0  0  0  0
   -9.0670   -9.3340    9.5930 C   0  0  0  0  0  0  0  0  0  0  0  0
  -10.1450   -9.5430   10.4600 C   0  0  0  0  0  3  0  0  0  0  0  0
  -11.4460   -9.5930    9.9580 C   0  0  0  0  0  3  0  0  0  0  0  0
  -11.6760   -9.4290    8.5920 C   0  0  0  0  0  3  0  0  0  0  0  0
  -10.6060   -9.2150    7.7250 C   0  0  0  0  0  3  0  0  0  0  0  0
   -9.3030   -9.1710    8.2230 C   0  0  0  0  0  3  0  0  0  0  0  0
   -1.8040   -7.0310   13.5150 C   0  0  0  0  0  0  0  0  0  0  0  0
   -1.5960   -6.5910   14.7910 N   0  0  0  0  0  0  0  0  0  0  0  0
   -0.9630   -7.7160   12.9450 O   0  0  0  0  0  0  0  0  0  0  0  0
   -0.7160   -6.8420   15.2250 H   0  0  0  0  0  0  0  0  0  0  0  0
   -2.2760   -6.1020   15.3510 H   0  0  0  0  0  0  0  0  0  0  0  0
  1  2  1  0  0  0  0
  2  3  2  0  0  0  0
  3 13  1  0  0  0  0
  4  6  1  0  0  0  0
  4  3  1  0  0  0  0
  5  1  2  0  0  0  0
  5  4  1  0  0  0  0
  6  7  1  0  0  0  0
  7  8  1  0  0  0  0
  8 13  2  0  0  0  0
  8  9  1  0  0  0  0
  9 10  2  0  0  0  0
 10 11  1  0  0  0  0
 11 37  1  0  0  0  0
 12 11  2  0  0  0  0
 13 12  1  0  0  0  0
 14 15  1  0  0  0  0
 15 16  2  0  0  0  0
 17  1  1  0  0  0  0
 17 16  1  0  0  0  0
 18 17  2  0  0  0  0
 19 18  1  0  0  0  0
 19 14  2  0  0  0  0
 21 20  1  6  0  0  0
 21 24  1  0  0  0  0
 21 22  1  0  0  0  0
 22 23  1  0  0  0  0
 23 14  1  0  0  0  0
 23 25  1  1  0  0  0
 24 23  1  0  0  0  0
 25 26  1  0  0  0  0
 25 27  1  0  0  0  0
 28 25  1  0  0  0  0
 29 21  1  0  0  0  0
 30 29  1  0  0  0  0
 31  5  1  0  0  0  0
 31 32  1  0  0  0  0
 33 32  2  0  0  0  0
 34 33  1  0  0  0  0
 35 36  1  0  0  0  0
 35 34  2  0  0  0  0
 36 31  2  0  0  0  0
 37 38  1  0  0  0  0
 38 40  1  0  0  0  0
 38 41  1  0  0  0  0
 39 37  2  0  0  0  0
M  END
>  <minimizedAffinity>
-5.69865847

$$$$
