
 OpenBabel11232420033D

 41 46  0  0  1  0  0  0  0  0999 V2000
   -6.7040  -10.2710   10.2030 C   0  0  0  0  0  0  0  0  0  0  0  0
   -5.5710   -9.7390   10.7920 N   0  0  0  0  0  0  0  0  0  0  0  0
   -5.8570   -8.4820   11.0430 C   0  0  0  0  0  0  0  0  0  0  0  0
   -7.1180   -8.1780   10.6240 N   0  0  0  0  0  0  0  0  0  0  0  0
   -7.7060   -9.3110   10.1060 C   0  0  0  0  0  0  0  0  0  0  0  0
   -7.7020   -6.8670   10.8410 C   0  0  0  0  0  2  0  0  0  0  0  0
   -6.7220   -5.8170   10.9940 O   0  0  0  0  0  0  0  0  0  0  0  0
   -5.5480   -6.1450   11.6190 C   0  0  0  0  0  0  0  0  0  0  0  0
   -4.8010   -5.1020   12.1620 C   0  0  0  0  0  3  0  0  0  0  0  0
   -3.5780   -5.3700   12.7870 C   0  0  0  0  0  3  0  0  0  0  0  0
   -3.0960   -6.6860   12.8610 C   0  0  0  0  0  0  0  0  0  0  0  0
   -3.8350   -7.7250   12.2800 C   0  0  0  0  0  3  0  0  0  0  0  0
   -5.0570   -7.4540   11.6640 C   0  0  0  0  0  0  0  0  0  0  0  0
   -7.0060  -14.4110    8.9730 C   0  0  0  0  0  0  0  0  0  0  0  0
   -7.7070  -13.8850   10.0800 C   0  0  0  0  0  3  0  0  0  0  0  0
   -7.5840  -12.5460   10.4740 C   0  0  0  0  0  3  0  0  0  0  0  0
   -6.7320  -11.6690    9.7970 C   0  0  0  0  0  0  0  0  0  0  0  0
   -5.9960  -12.1730    8.7270 C   0  0  0  0  0  3  0  0  0  0  0  0
   -6.1320  -13.5120    8.3280 C   0  0  0  0  0  3  0  0  0  0  0  0
   -8.3610  -17.2110    5.4370 C   0  0  0  0  0  1  0  0  0  0  0  0
   -7.9700  -16.1530    6.4560 C   0  0  1  0  0  0  0  0  0  0  0  0
   -8.6080  -16.3520    7.8560 C   0  0  0  0  0  2  0  0  0  0  0  0
   -7.2500  -15.9070    8.4770 C   0  0  1  0  0  0  0  0  0  0  0  0
   -6.5890  -16.3540    7.1380 C   0  0  0  0  0  2  0  0  0  0  0  0
   -6.8820  -16.7950    9.6090 N   0  0  0  0  0  4  0  0  0  0  0  0
   -5.8930  -16.6830    9.8680 H   0  0  0  0  0  0  0  0  0  0  0  0
   -7.4230  -16.5460   10.4480 H   0  0  0  0  0  0  0  0  0  0  0  0
   -7.0430  -17.7900    9.4170 H   0  0  0  0  0  0  0  0  0  0  0  0
   -8.1890  -14.8410    5.9060 O   0  0  0  0  0  0  0  0  0  0  0  0
   -7.7480  -14.8190    5.0350 H   0  0  0  0  0  0  0  0  0  0  0  0
   -9.0670   -9.3340    9.5930 C   0  0  0  0  0  0  0  0  0  0  0  0
  -10.1450   -9.5430   10.4600 C   0  0  0  0  0  3  0  0  0  0  0  0
  -11.4460   -9.5930    9.9580 C   0  0  0  0  0  3  0  0  0  0  0  0
  -11.6760   -9.4290    8.5920 C   0  0  0  0  0  3  0  0  0  0  0  0
  -10.6060   -9.2150    7.7250 C   0  0  0  0  0  3  0  0  0  0  0  0
   -9.3030   -9.1710    8.2230 C   0  0  0  0  0  3  0  0  0  0  0  0
   -1.8040   -7.0310   13.5150 C   0  0  0  0  0  0  0  0  0  0  0  0
   -1.5960   -6.5910   14.7910 N   0  0  0  0  0  0  0  0  0  0  0  0
   -0.9630   -7.7160   12.9450 O   0  0  0  0  0  0  0  0  0  0  0  0
   -0.7160   -6.8420   15.2250 H   0  0  0  0  0  0  0  0  0  0  0  0
   -2.2760   -6.1020   15.3510 H   0  0  0  0  0  0  0  0  0  0  0  0
  1  2  1  0  0  0  0
  2  3  2  0  0  0  0
  3 13  1  0  0  0  0
  4  6  1  0  0  0  0
  4  3  1  0  0  0  0
  5  1  2  0  0  0  0
  5  4  1  0  0  0  0
  6  7  1  0  0  0  0
  7  8  1  0  0  0  0
  8 13  2  0  0  0  0
  8  9  1  0  0  0  0
  9 10  2  0  0  0  0
 10 11  1  0  0  0  0
 11 37  1  0  0  0  0
 12 11  2  0  0  0  0
 13 12  1  0  0  0  0
 14 15  1  0  0  0  0
 15 16  2  0  0  0  0
 17  1  1  0  0  0  0
 17 16  1  0  0  0  0
 18 17  2  0  0  0  0
 19 18  1  0  0  0  0
 19 14  2  0  0  0  0
 21 20  1  6  0  0  0
 21 24  1  0  0  0  0
 21 22  1  0  0  0  0
 22 23  1  0  0  0  0
 23 14  1  0  0  0  0
 23 25  1  1  0  0  0
 24 23  1  0  0  0  0
 25 26  1  0  0  0  0
 25 27  1  0  0  0  0
 28 25  1  0  0  0  0
 29 21  1  0  0  0  0
 30 29  1  0  0  0  0
 31  5  1  0  0  0  0
 31 32  1  0  0  0  0
 33 32  2  0  0  0  0
 34 33  1  0  0  0  0
 35 36  1  0  0  0  0
 35 34  2  0  0  0  0
 36 31  2  0  0  0  0
 37 38  1  0  0  0  0
 38 40  1  0  0  0  0
 38 41  1  0  0  0  0
 39 37  2  0  0  0  0
M  END
>  <minimizedAffinity>
-5.69865847

$$$$

 OpenBabel11232420033D

 41 46  0  0  1  0  0  0  0  0999 V2000
   -4.8260   -7.1640   13.1960 C   0  0  0  0  0  0  0  0  0  0  0  0
   -3.5120   -7.2090   13.6250 N   0  0  0  0  0  0  0  0  0  0  0  0
   -3.3990   -6.2570   14.5220 C   0  0  0  0  0  0  0  0  0  0  0  0
   -4.5780   -5.5910   14.6760 N   0  0  0  0  0  0  0  0  0  0  0  0
   -5.5290   -6.1660   13.8620 C   0  0  0  0  0  0  0  0  0  0  0  0
   -4.7380   -4.5320   15.6560 C   0  0  0  0  0  2  0  0  0  0  0  0
   -3.4970   -3.8890   16.0190 O   0  0  0  0  0  0  0  0  0  0  0  0
   -2.3730   -4.6730   16.0480 C   0  0  0  0  0  0  0  0  0  0  0  0
   -1.2920   -4.2100   16.7950 C   0  0  0  0  0  3  0  0  0  0  0  0
   -0.1060   -4.9510   16.8390 C   0  0  0  0  0  3  0  0  0  0  0  0
    0.0020   -6.1550   16.1270 C   0  0  0  0  0  0  0  0  0  0  0  0
   -1.0760   -6.5950   15.3480 C   0  0  0  0  0  3  0  0  0  0  0  0
   -2.2600   -5.8570   15.3120 C   0  0  0  0  0  0  0  0  0  0  0  0
   -6.4350   -9.9520   10.3000 C   0  0  0  0  0  0  0  0  0  0  0  0
   -6.4310  -10.2040   11.6900 C   0  0  0  0  0  3  0  0  0  0  0  0
   -5.8910   -9.2980   12.6110 C   0  0  0  0  0  3  0  0  0  0  0  0
   -5.3020   -8.1030   12.1890 C   0  0  0  0  0  0  0  0  0  0  0  0
   -5.2540   -7.8480   10.8190 C   0  0  0  0  0  3  0  0  0  0  0  0
   -5.8090   -8.7540    9.9000 C   0  0  0  0  0  3  0  0  0  0  0  0
   -6.5520  -14.2790    8.4440 C   0  0  0  0  0  1  0  0  0  0  0  0
   -6.3500  -12.9450    9.1430 C   0  0  1  0  0  0  0  0  0  0  0  0
   -6.3600  -11.7200    8.1900 C   0  0  0  0  0  2  0  0  0  0  0  0
   -7.1570  -10.9470    9.2830 C   0  0  1  0  0  0  0  0  0  0  0  0
   -7.6120  -12.3380    9.8150 C   0  0  0  0  0  2  0  0  0  0  0  0
   -8.2760  -10.1870    8.6680 N   0  0  0  0  0  4  0  0  0  0  0  0
   -8.9540   -9.8790    9.3760 H   0  0  0  0  0  0  0  0  0  0  0  0
   -7.9220   -9.3290    8.2230 H   0  0  0  0  0  0  0  0  0  0  0  0
   -8.7890  -10.7190    7.9560 H   0  0  0  0  0  0  0  0  0  0  0  0
   -5.1850  -13.0060    9.9860 O   0  0  0  0  0  0  0  0  0  0  0  0
   -5.2790  -13.8020   10.5440 H   0  0  0  0  0  0  0  0  0  0  0  0
   -6.9080   -5.7060   13.8060 C   0  0  0  0  0  0  0  0  0  0  0  0
   -7.2610   -4.6310   12.9830 C   0  0  0  0  0  3  0  0  0  0  0  0
   -8.5800   -4.1750   12.9560 C   0  0  0  0  0  3  0  0  0  0  0  0
   -9.5510   -4.7930   13.7450 C   0  0  0  0  0  3  0  0  0  0  0  0
   -9.2040   -5.8670   14.5630 C   0  0  0  0  0  3  0  0  0  0  0  0
   -7.8860   -6.3210   14.5970 C   0  0  0  0  0  3  0  0  0  0  0  0
    1.2370   -6.9860   16.1400 C   0  0  0  0  0  0  0  0  0  0  0  0
    1.5200   -7.7270   15.0280 N   0  0  0  0  0  0  0  0  0  0  0  0
    1.9990   -6.9840   17.1000 O   0  0  0  0  0  0  0  0  0  0  0  0
    2.3690   -8.2800   15.0490 H   0  0  0  0  0  0  0  0  0  0  0  0
    0.9900   -7.7090   14.1720 H   0  0  0  0  0  0  0  0  0  0  0  0
  1  2  1  0  0  0  0
  1  5  2  0  0  0  0
  2  3  2  0  0  0  0
  3  4  1  0  0  0  0
  3 13  1  0  0  0  0
  4  6  1  0  0  0  0
  5  4  1  0  0  0  0
  6  7  1  0  0  0  0
  7  8  1  0  0  0  0
  8  9  1  0  0  0  0
  9 10  2  0  0  0  0
 11 37  1  0  0  0  0
 11 10  1  0  0  0  0
 12 11  2  0  0  0  0
 13 12  1  0  0  0  0
 13  8  2  0  0  0  0
 14 15  1  0  0  0  0
 15 16  2  0  0  0  0
 17 16  1  0  0  0  0
 17  1  1  0  0  0  0
 18 17  2  0  0  0  0
 19 14  2  0  0  0  0
 19 18  1  0  0  0  0
 21 20  1  6  0  0  0
 21 24  1  0  0  0  0
 21 29  1  0  0  0  0
 22 21  1  0  0  0  0
 22 23  1  0  0  0  0
 23 25  1  6  0  0  0
 23 24  1  0  0  0  0
 23 14  1  0  0  0  0
 25 26  1  0  0  0  0
 27 25  1  0  0  0  0
 28 25  1  0  0  0  0
 29 30  1  0  0  0  0
 31  5  1  0  0  0  0
 31 36  1  0  0  0  0
 32 31  2  0  0  0  0
 33 32  1  0  0  0  0
 33 34  2  0  0  0  0
 34 35  1  0  0  0  0
 35 36  2  0  0  0  0
 37 39  2  0  0  0  0
 38 40  1  0  0  0  0
 38 37  1  0  0  0  0
 41 38  1  0  0  0  0
M  END
>  <minimizedAffinity>
-5.61412239

$$$$

 OpenBabel11232420033D

 41 46  0  0  1  0  0  0  0  0999 V2000
   -8.3320   -9.7590   10.7900 C   0  0  0  0  0  0  0  0  0  0  0  0
   -8.3560  -10.8080   11.6910 N   0  0  0  0  0  0  0  0  0  0  0  0
   -7.2480  -10.7040   12.3880 C   0  0  0  0  0  0  0  0  0  0  0  0
   -6.5050   -9.6430   11.9630 N   0  0  0  0  0  0  0  0  0  0  0  0
   -7.1830   -8.9920   10.9570 C   0  0  0  0  0  0  0  0  0  0  0  0
   -5.2610   -9.2700   12.6120 C   0  0  0  0  0  2  0  0  0  0  0  0
   -4.6230  -10.3630   13.3090 O   0  0  0  0  0  0  0  0  0  0  0  0
   -5.4420  -11.2910   13.8980 C   0  0  0  0  0  0  0  0  0  0  0  0
   -4.8930  -12.0730   14.9130 C   0  0  0  0  0  3  0  0  0  0  0  0
   -5.6700  -13.0570   15.5330 C   0  0  0  0  0  3  0  0  0  0  0  0
   -6.9970  -13.2670   15.1310 C   0  0  0  0  0  0  0  0  0  0  0  0
   -7.5310  -12.5010   14.0850 C   0  0  0  0  0  3  0  0  0  0  0  0
   -6.7550  -11.5160   13.4740 C   0  0  0  0  0  0  0  0  0  0  0  0
  -11.6610   -9.0260    8.1200 C   0  0  0  0  0  0  0  0  0  0  0  0
  -11.8200   -9.2430    9.5070 C   0  0  0  0  0  3  0  0  0  0  0  0
  -10.7330   -9.4950   10.3530 C   0  0  0  0  0  3  0  0  0  0  0  0
   -9.4300   -9.5710    9.8530 C   0  0  0  0  0  0  0  0  0  0  0  0
   -9.2490   -9.4030    8.4810 C   0  0  0  0  0  3  0  0  0  0  0  0
  -10.3400   -9.1370    7.6390 C   0  0  0  0  0  3  0  0  0  0  0  0
  -13.5040   -5.8670    5.1530 C   0  0  0  0  0  1  0  0  0  0  0  0
  -12.7540   -6.7580    6.1300 C   0  0  1  0  0  0  0  0  0  0  0  0
  -13.6070   -7.2470    7.3300 C   0  0  0  0  0  2  0  0  0  0  0  0
  -12.9000   -8.6290    7.1990 C   0  0  1  0  0  0  0  0  0  0  0  0
  -12.6200   -8.2490    5.7140 C   0  0  0  0  0  2  0  0  0  0  0  0
  -13.8890   -9.7300    7.3190 N   0  0  0  0  0  4  0  0  0  0  0  0
  -13.4990  -10.6230    6.9920 H   0  0  0  0  0  0  0  0  0  0  0  0
  -14.1410   -9.8770    8.3070 H   0  0  0  0  0  0  0  0  0  0  0  0
  -14.7570   -9.5600    6.7990 H   0  0  0  0  0  0  0  0  0  0  0  0
  -11.5220   -6.1250    6.5220 O   0  0  0  0  0  0  0  0  0  0  0  0
  -11.0630   -5.8620    5.7010 H   0  0  0  0  0  0  0  0  0  0  0  0
   -6.6730   -7.7980   10.3010 C   0  0  0  0  0  0  0  0  0  0  0  0
   -6.9630   -6.5310   10.8160 C   0  0  0  0  0  3  0  0  0  0  0  0
   -6.4950   -5.3870   10.1660 C   0  0  0  0  0  3  0  0  0  0  0  0
   -5.7330   -5.5060    9.0040 C   0  0  0  0  0  3  0  0  0  0  0  0
   -5.4380   -6.7670    8.4890 C   0  0  0  0  0  3  0  0  0  0  0  0
   -5.9090   -7.9110    9.1330 C   0  0  0  0  0  3  0  0  0  0  0  0
   -7.8710  -14.2960   15.7560 C   0  0  0  0  0  0  0  0  0  0  0  0
   -9.0100  -14.6560   15.0940 N   0  0  0  0  0  0  0  0  0  0  0  0
   -7.5690  -14.8340   16.8150 O   0  0  0  0  0  0  0  0  0  0  0  0
   -9.5890  -15.3650   15.5280 H   0  0  0  0  0  0  0  0  0  0  0  0
   -9.2760  -14.3240   14.1810 H   0  0  0  0  0  0  0  0  0  0  0  0
  1  5  2  0  0  0  0
  1  2  1  0  0  0  0
  2  3  2  0  0  0  0
  3 13  1  0  0  0  0
  4  3  1  0  0  0  0
  4  6  1  0  0  0  0
  5  4  1  0  0  0  0
  6  7  1  0  0  0  0
  7  8  1  0  0  0  0
  8  9  1  0  0  0  0
  9 10  2  0  0  0  0
 11 10  1  0  0  0  0
 11 37  1  0  0  0  0
 12 11  2  0  0  0  0
 13  8  2  0  0  0  0
 13 12  1  0  0  0  0
 14 15  1  0  0  0  0
 15 16  2  0  0  0  0
 17 16  1  0  0  0  0
 17  1  1  0  0  0  0
 18 17  2  0  0  0  0
 19 14  2  0  0  0  0
 19 18  1  0  0  0  0
 21 20  1  6  0  0  0
 21 29  1  0  0  0  0
 21 22  1  0  0  0  0
 23 25  1  1  0  0  0
 23 22  1  0  0  0  0
 23 14  1  0  0  0  0
 24 21  1  0  0  0  0
 24 23  1  0  0  0  0
 25 27  1  0  0  0  0
 26 25  1  0  0  0  0
 28 25  1  0  0  0  0
 30 29  1  0  0  0  0
 31 32  1  0  0  0  0
 31  5  1  0  0  0  0
 33 32  2  0  0  0  0
 34 33  1  0  0  0  0
 35 34  2  0  0  0  0
 35 36  1  0  0  0  0
 36 31  2  0  0  0  0
 37 39  2  0  0  0  0
 38 40  1  0  0  0  0
 38 37  1  0  0  0  0
 41 38  1  0  0  0  0
M  END
>  <minimizedAffinity>
-5.58346701

$$$$

 OpenBabel11232420033D

 41 46  0  0  1  0  0  0  0  0999 V2000
   -5.6750   -9.6450   11.8890 C   0  0  0  0  0  0  0  0  0  0  0  0
   -5.8660  -10.9990   12.0920 N   0  0  0  0  0  0  0  0  0  0  0  0
   -6.2970  -11.4730   10.9460 C   0  0  0  0  0  0  0  0  0  0  0  0
   -6.4080  -10.4790   10.0200 N   0  0  0  0  0  0  0  0  0  0  0  0
   -5.9870   -9.2930   10.5800 C   0  0  0  0  0  0  0  0  0  0  0  0
   -6.8040  -10.7490    8.6500 C   0  0  0  0  0  2  0  0  0  0  0  0
   -7.5770  -11.9600    8.5000 O   0  0  0  0  0  0  0  0  0  0  0  0
   -7.2680  -13.0040    9.3330 C   0  0  0  0  0  0  0  0  0  0  0  0
   -7.6670  -14.2780    8.9320 C   0  0  0  0  0  3  0  0  0  0  0  0
   -7.4070  -15.3800    9.7540 C   0  0  0  0  0  3  0  0  0  0  0  0
   -6.7540  -15.2080   10.9830 C   0  0  0  0  0  0  0  0  0  0  0  0
   -6.3880  -13.9190   11.3950 C   0  0  0  0  0  3  0  0  0  0  0  0
   -6.6430  -12.8230   10.5700 C   0  0  0  0  0  0  0  0  0  0  0  0
   -4.2730   -6.9640   14.9870 C   0  0  0  0  0  0  0  0  0  0  0  0
   -3.7380   -6.9750   13.6790 C   0  0  0  0  0  3  0  0  0  0  0  0
   -4.1920   -7.8610   12.6950 C   0  0  0  0  0  3  0  0  0  0  0  0
   -5.1880   -8.8020   12.9730 C   0  0  0  0  0  0  0  0  0  0  0  0
   -5.7040   -8.8410   14.2670 C   0  0  0  0  0  3  0  0  0  0  0  0
   -5.2540   -7.9430   15.2470 C   0  0  0  0  0  3  0  0  0  0  0  0
   -0.6890   -4.5620   16.8750 C   0  0  0  0  0  1  0  0  0  0  0  0
   -1.7050   -5.4330   16.1550 C   0  0  1  0  0  0  0  0  0  0  0  0
   -2.6980   -6.1640   17.0980 C   0  0  0  0  0  2  0  0  0  0  0  0
   -3.8180   -5.8710   16.0550 C   0  0  1  0  0  0  0  0  0  0  0  0
   -2.9330   -4.6870   15.5640 C   0  0  0  0  0  2  0  0  0  0  0  0
   -5.0520   -5.4050   16.7370 N   0  0  0  0  0  4  0  0  0  0  0  0
   -5.7080   -4.9740   16.0740 H   0  0  0  0  0  0  0  0  0  0  0  0
   -5.5540   -6.2020   17.1520 H   0  0  0  0  0  0  0  0  0  0  0  0
   -4.8740   -4.7250   17.4850 H   0  0  0  0  0  0  0  0  0  0  0  0
   -1.0320   -6.3140   15.2380 O   0  0  0  0  0  0  0  0  0  0  0  0
   -0.4400   -5.7600   14.6930 H   0  0  0  0  0  0  0  0  0  0  0  0
   -5.9550   -8.0370    9.8470 C   0  0  0  0  0  0  0  0  0  0  0  0
   -4.9990   -7.8280    8.8470 C   0  0  0  0  0  3  0  0  0  0  0  0
   -4.9550   -6.6100    8.1660 C   0  0  0  0  0  3  0  0  0  0  0  0
   -5.8670   -5.6010    8.4770 C   0  0  0  0  0  3  0  0  0  0  0  0
   -6.8240   -5.8070    9.4690 C   0  0  0  0  0  3  0  0  0  0  0  0
   -6.8670   -7.0210   10.1550 C   0  0  0  0  0  3  0  0  0  0  0  0
   -6.4490  -16.3430   11.8950 C   0  0  0  0  0  0  0  0  0  0  0  0
   -6.8270  -16.2320   13.2030 N   0  0  0  0  0  0  0  0  0  0  0  0
   -5.9050  -17.3630   11.4870 O   0  0  0  0  0  0  0  0  0  0  0  0
   -6.6200  -17.0170   13.8090 H   0  0  0  0  0  0  0  0  0  0  0  0
   -7.3550  -15.4650   13.5880 H   0  0  0  0  0  0  0  0  0  0  0  0
  1  2  1  0  0  0  0
  1 17  1  0  0  0  0
  3  2  2  0  0  0  0
  4  5  1  0  0  0  0
  4  3  1  0  0  0  0
  5  1  2  0  0  0  0
  6  4  1  0  0  0  0
  7  6  1  0  0  0  0
  7  8  1  0  0  0  0
  8 13  1  0  0  0  0
  9  8  2  0  0  0  0
  9 10  1  0  0  0  0
 10 11  2  0  0  0  0
 11 12  1  0  0  0  0
 11 37  1  0  0  0  0
 13  3  1  0  0  0  0
 13 12  2  0  0  0  0
 14 19  1  0  0  0  0
 14 23  1  0  0  0  0
 15 14  2  0  0  0  0
 16 17  2  0  0  0  0
 16 15  1  0  0  0  0
 17 18  1  0  0  0  0
 18 19  2  0  0  0  0
 21 20  1  1  0  0  0
 21 22  1  0  0  0  0
 23 25  1  1  0  0  0
 23 22  1  0  0  0  0
 24 23  1  0  0  0  0
 24 21  1  0  0  0  0
 25 27  1  0  0  0  0
 25 28  1  0  0  0  0
 26 25  1  0  0  0  0
 29 21  1  0  0  0  0
 30 29  1  0  0  0  0
 31 36  1  0  0  0  0
 31  5  1  0  0  0  0
 32 31  2  0  0  0  0
 33 34  2  0  0  0  0
 33 32  1  0  0  0  0
 34 35  1  0  0  0  0
 35 36  2  0  0  0  0
 37 38  1  0  0  0  0
 38 41  1  0  0  0  0
 38 40  1  0  0  0  0
 39 37  2  0  0  0  0
M  END
>  <minimizedAffinity>
-5.35893679

$$$$

 OpenBabel11232420033D

 41 46  0  0  1  0  0  0  0  0999 V2000
   -8.2000  -11.7420    8.8510 C   0  0  0  0  0  0  0  0  0  0  0  0
   -7.4660  -12.6920    8.1640 N   0  0  0  0  0  0  0  0  0  0  0  0
   -8.2370  -13.7520    8.0890 C   0  0  0  0  0  0  0  0  0  0  0  0
   -9.4280  -13.5320    8.7150 N   0  0  0  0  0  0  0  0  0  0  0  0
   -9.4540  -12.2400    9.1910 C   0  0  0  0  0  0  0  0  0  0  0  0
  -10.4850  -14.5260    8.7220 C   0  0  0  0  0  2  0  0  0  0  0  0
  -10.0080  -15.8780    8.5390 O   0  0  0  0  0  0  0  0  0  0  0  0
   -8.9220  -16.0510    7.7210 C   0  0  0  0  0  0  0  0  0  0  0  0
   -8.7220  -17.3220    7.1880 C   0  0  0  0  0  3  0  0  0  0  0  0
   -7.6140  -17.5690    6.3690 C   0  0  0  0  0  3  0  0  0  0  0  0
   -6.6990  -16.5440    6.0900 C   0  0  0  0  0  0  0  0  0  0  0  0
   -6.8870  -15.2770    6.6600 C   0  0  0  0  0  3  0  0  0  0  0  0
   -7.9960  -15.0330    7.4700 C   0  0  0  0  0  0  0  0  0  0  0  0
   -6.3430   -7.8880    9.5130 C   0  0  0  0  0  0  0  0  0  0  0  0
   -5.7730   -9.1020    9.9560 C   0  0  0  0  0  3  0  0  0  0  0  0
   -6.3970  -10.3380    9.7480 C   0  0  0  0  0  3  0  0  0  0  0  0
   -7.6370  -10.4240    9.1090 C   0  0  0  0  0  0  0  0  0  0  0  0
   -8.2420   -9.2380    8.6990 C   0  0  0  0  0  3  0  0  0  0  0  0
   -7.6070   -8.0010    8.8990 C   0  0  0  0  0  3  0  0  0  0  0  0
   -4.9310   -4.4600   12.4180 C   0  0  0  0  0  1  0  0  0  0  0  0
   -5.4800   -5.6450   11.6420 C   0  0  1  0  0  0  0  0  0  0  0  0
   -6.2180   -5.2620   10.3310 C   0  0  0  0  0  2  0  0  0  0  0  0
   -5.5610   -6.5060    9.6620 C   0  0  1  0  0  0  0  0  0  0  0  0
   -4.4540   -6.4020   10.7540 C   0  0  0  0  0  2  0  0  0  0  0  0
   -5.0510   -6.1580    8.3110 N   0  0  0  0  0  4  0  0  0  0  0  0
   -4.4040   -6.8750    7.9580 H   0  0  0  0  0  0  0  0  0  0  0  0
   -5.8280   -6.1210    7.6360 H   0  0  0  0  0  0  0  0  0  0  0  0
   -4.5650   -5.2560    8.2770 H   0  0  0  0  0  0  0  0  0  0  0  0
   -6.2600   -6.4830   12.5150 O   0  0  0  0  0  0  0  0  0  0  0  0
   -5.7080   -6.6680   13.2990 H   0  0  0  0  0  0  0  0  0  0  0  0
  -10.5980  -11.6750    9.8900 C   0  0  0  0  0  0  0  0  0  0  0  0
  -10.7290  -11.8340   11.2730 C   0  0  0  0  0  3  0  0  0  0  0  0
  -11.8430  -11.3150   11.9350 C   0  0  0  0  0  3  0  0  0  0  0  0
  -12.8270  -10.6330   11.2190 C   0  0  0  0  0  3  0  0  0  0  0  0
  -12.6990  -10.4690    9.8400 C   0  0  0  0  0  3  0  0  0  0  0  0
  -11.5900  -10.9910    9.1760 C   0  0  0  0  0  3  0  0  0  0  0  0
   -5.5060  -16.7480    5.2240 C   0  0  0  0  0  0  0  0  0  0  0  0
   -4.6700  -15.6850    5.0270 N   0  0  0  0  0  0  0  0  0  0  0  0
   -5.2560  -17.8390    4.7270 O   0  0  0  0  0  0  0  0  0  0  0  0
   -3.8570  -15.8430    4.4430 H   0  0  0  0  0  0  0  0  0  0  0  0
   -4.7630  -14.7870    5.4740 H   0  0  0  0  0  0  0  0  0  0  0  0
  1 17  1  0  0  0  0
  1  5  2  0  0  0  0
  2  1  1  0  0  0  0
  3  2  2  0  0  0  0
  3  4  1  0  0  0  0
  4  6  1  0  0  0  0
  4  5  1  0  0  0  0
  5 31  1  0  0  0  0
  7  6  1  0  0  0  0
  8  7  1  0  0  0  0
  9  8  2  0  0  0  0
 10  9  1  0  0  0  0
 11 10  2  0  0  0  0
 11 12  1  0  0  0  0
 12 13  2  0  0  0  0
 13  8  1  0  0  0  0
 13  3  1  0  0  0  0
 14 23  1  0  0  0  0
 14 15  1  0  0  0  0
 16 15  2  0  0  0  0
 17 16  1  0  0  0  0
 18 19  1  0  0  0  0
 18 17  2  0  0  0  0
 19 14  2  0  0  0  0
 21 20  1  1  0  0  0
 21 29  1  0  0  0  0
 22 21  1  0  0  0  0
 23 25  1  6  0  0  0
 23 22  1  0  0  0  0
 23 24  1  0  0  0  0
 24 21  1  0  0  0  0
 26 25  1  0  0  0  0
 27 25  1  0  0  0  0
 28 25  1  0  0  0  0
 29 30  1  0  0  0  0
 31 32  1  0  0  0  0
 32 33  2  0  0  0  0
 34 33  1  0  0  0  0
 35 34  2  0  0  0  0
 36 35  1  0  0  0  0
 36 31  2  0  0  0  0
 37 11  1  0  0  0  0
 38 37  1  0  0  0  0
 38 41  1  0  0  0  0
 39 37  2  0  0  0  0
 40 38  1  0  0  0  0
M  END
>  <minimizedAffinity>
-5.31891966

$$$$

 OpenBabel11232420033D

 41 46  0  0  1  0  0  0  0  0999 V2000
   -5.3780   -9.0480   12.0420 C   0  0  0  0  0  0  0  0  0  0  0  0
   -5.7260  -10.3700   11.8310 N   0  0  0  0  0  0  0  0  0  0  0  0
   -6.6430  -10.3510   10.8910 C   0  0  0  0  0  0  0  0  0  0  0  0
   -6.9120   -9.0730   10.5010 N   0  0  0  0  0  0  0  0  0  0  0  0
   -6.0960   -8.2090   11.1970 C   0  0  0  0  0  0  0  0  0  0  0  0
   -7.8450   -8.7790    9.4280 C   0  0  0  0  0  2  0  0  0  0  0  0
   -8.8280   -9.8170    9.2180 O   0  0  0  0  0  0  0  0  0  0  0  0
   -8.4240  -11.1100    9.4290 C   0  0  0  0  0  0  0  0  0  0  0  0
   -9.1770  -12.1180    8.8280 C   0  0  0  0  0  3  0  0  0  0  0  0
   -8.8330  -13.4590    9.0310 C   0  0  0  0  0  3  0  0  0  0  0  0
   -7.7390  -13.7940    9.8430 C   0  0  0  0  0  0  0  0  0  0  0  0
   -7.0110  -12.7760   10.4730 C   0  0  0  0  0  3  0  0  0  0  0  0
   -7.3520  -11.4390   10.2640 C   0  0  0  0  0  0  0  0  0  0  0  0
   -2.4380   -7.8200   14.9720 C   0  0  0  0  0  0  0  0  0  0  0  0
   -2.5150   -7.2570   13.6790 C   0  0  0  0  0  3  0  0  0  0  0  0
   -3.4630   -7.6790   12.7380 C   0  0  0  0  0  3  0  0  0  0  0  0
   -4.3660   -8.7050   13.0310 C   0  0  0  0  0  0  0  0  0  0  0  0
   -4.2830   -9.3060   14.2850 C   0  0  0  0  0  3  0  0  0  0  0  0
   -3.3400   -8.8720   15.2300 C   0  0  0  0  0  3  0  0  0  0  0  0
    2.0550   -7.3230   16.2950 C   0  0  0  0  0  1  0  0  0  0  0  0
    0.6770   -7.5910   15.7120 C   0  0  1  0  0  0  0  0  0  0  0  0
   -0.3480   -8.1470   16.7360 C   0  0  0  0  0  2  0  0  0  0  0  0
   -1.4260   -7.2440   16.0630 C   0  0  1  0  0  0  0  0  0  0  0  0
   -0.2470   -6.3500   15.5730 C   0  0  0  0  0  2  0  0  0  0  0  0
   -2.2520   -6.5680   17.0950 N   0  0  0  0  0  4  0  0  0  0  0  0
   -2.7920   -5.7900   16.6930 H   0  0  0  0  0  0  0  0  0  0  0  0
   -2.9460   -7.2230   17.4820 H   0  0  0  0  0  0  0  0  0  0  0  0
   -1.7050   -6.1950   17.8780 H   0  0  0  0  0  0  0  0  0  0  0  0
    0.7960   -8.3950   14.5250 O   0  0  0  0  0  0  0  0  0  0  0  0
    1.4560   -7.9600   13.9510 H   0  0  0  0  0  0  0  0  0  0  0  0
   -6.1130   -6.7680   10.9960 C   0  0  0  0  0  0  0  0  0  0  0  0
   -5.5060   -6.2040    9.8690 C   0  0  0  0  0  3  0  0  0  0  0  0
   -5.5000   -4.8190    9.6960 C   0  0  0  0  0  3  0  0  0  0  0  0
   -6.1040   -3.9930   10.6450 C   0  0  0  0  0  3  0  0  0  0  0  0
   -6.7140   -4.5510   11.7680 C   0  0  0  0  0  3  0  0  0  0  0  0
   -6.7160   -5.9340   11.9460 C   0  0  0  0  0  3  0  0  0  0  0  0
   -7.3260  -15.2020   10.0910 C   0  0  0  0  0  0  0  0  0  0  0  0
   -7.3470  -16.0700    9.0370 N   0  0  0  0  0  0  0  0  0  0  0  0
   -6.9460  -15.5710   11.1960 O   0  0  0  0  0  0  0  0  0  0  0  0
   -7.0540  -17.0220    9.2200 H   0  0  0  0  0  0  0  0  0  0  0  0
   -7.5610  -15.8170    8.0850 H   0  0  0  0  0  0  0  0  0  0  0  0
  1 17  1  0  0  0  0
  2  1  1  0  0  0  0
  3  2  2  0  0  0  0
  4  3  1  0  0  0  0
  4  5  1  0  0  0  0
  5  1  2  0  0  0  0
  6  4  1  0  0  0  0
  7  6  1  0  0  0  0
  7  8  1  0  0  0  0
  8 13  1  0  0  0  0
  9 10  1  0  0  0  0
  9  8  2  0  0  0  0
 10 11  2  0  0  0  0
 11 37  1  0  0  0  0
 11 12  1  0  0  0  0
 13 12  2  0  0  0  0
 13  3  1  0  0  0  0
 14 19  1  0  0  0  0
 14 23  1  0  0  0  0
 15 14  2  0  0  0  0
 16 17  2  0  0  0  0
 16 15  1  0  0  0  0
 17 18  1  0  0  0  0
 18 19  2  0  0  0  0
 21 20  1  1  0  0  0
 21 22  1  0  0  0  0
 23 22  1  0  0  0  0
 23 25  1  1  0  0  0
 24 21  1  0  0  0  0
 24 23  1  0  0  0  0
 25 27  1  0  0  0  0
 25 28  1  0  0  0  0
 26 25  1  0  0  0  0
 29 21  1  0  0  0  0
 30 29  1  0  0  0  0
 31  5  1  0  0  0  0
 31 36  1  0  0  0  0
 32 31  2  0  0  0  0
 33 32  1  0  0  0  0
 33 34  2  0  0  0  0
 34 35  1  0  0  0  0
 35 36  2  0  0  0  0
 37 39  2  0  0  0  0
 38 40  1  0  0  0  0
 38 37  1  0  0  0  0
 41 38  1  0  0  0  0
M  END
>  <minimizedAffinity>
-5.25932407

$$$$

 OpenBabel11232420033D

 41 46  0  0  1  0  0  0  0  0999 V2000
   -9.0250   -9.5790    9.5610 C   0  0  0  0  0  0  0  0  0  0  0  0
   -9.8740   -8.8570    8.7420 N   0  0  0  0  0  0  0  0  0  0  0  0
  -10.7540   -9.7210    8.2920 C   0  0  0  0  0  0  0  0  0  0  0  0
  -10.4970  -10.9700    8.7720 N   0  0  0  0  0  0  0  0  0  0  0  0
   -9.4110  -10.9140    9.6160 C   0  0  0  0  0  0  0  0  0  0  0  0
  -11.3620  -12.0980    8.4750 C   0  0  0  0  0  2  0  0  0  0  0  0
  -12.1230  -11.9370    7.2570 O   0  0  0  0  0  0  0  0  0  0  0  0
  -12.5330  -10.6680    6.9400 C   0  0  0  0  0  0  0  0  0  0  0  0
  -13.6010  -10.5460    6.0540 C   0  0  0  0  0  3  0  0  0  0  0  0
  -14.0460   -9.2770    5.6680 C   0  0  0  0  0  3  0  0  0  0  0  0
  -13.4160   -8.1260    6.1640 C   0  0  0  0  0  0  0  0  0  0  0  0
  -12.3190   -8.2570    7.0260 C   0  0  0  0  0  3  0  0  0  0  0  0
  -11.8820   -9.5250    7.4140 C   0  0  0  0  0  0  0  0  0  0  0  0
   -5.7720   -7.7390   11.7470 C   0  0  0  0  0  0  0  0  0  0  0  0
   -7.1000   -7.7740   12.2290 C   0  0  0  0  0  3  0  0  0  0  0  0
   -8.1420   -8.3590   11.5000 C   0  0  0  0  0  3  0  0  0  0  0  0
   -7.9190   -8.9160   10.2380 C   0  0  0  0  0  0  0  0  0  0  0  0
   -6.6260   -8.8580    9.7200 C   0  0  0  0  0  3  0  0  0  0  0  0
   -5.5810   -8.2820   10.4600 C   0  0  0  0  0  3  0  0  0  0  0  0
   -3.8730   -3.9630   13.8240 C   0  0  0  0  0  1  0  0  0  0  0  0
   -4.6250   -5.0540   13.0800 C   0  0  1  0  0  0  0  0  0  0  0  0
   -3.7250   -5.9510   12.1880 C   0  0  0  0  0  2  0  0  0  0  0  0
   -4.5830   -7.1690   12.6450 C   0  0  1  0  0  0  0  0  0  0  0  0
   -4.9510   -6.3290   13.9040 C   0  0  0  0  0  2  0  0  0  0  0  0
   -3.7090   -8.3240   12.9750 N   0  0  0  0  0  4  0  0  0  0  0  0
   -4.2190   -9.0400   13.5070 H   0  0  0  0  0  0  0  0  0  0  0  0
   -3.3890   -8.7870   12.1130 H   0  0  0  0  0  0  0  0  0  0  0  0
   -2.8780   -8.0650   13.5180 H   0  0  0  0  0  0  0  0  0  0  0  0
   -5.7440   -4.4840   12.3760 O   0  0  0  0  0  0  0  0  0  0  0  0
   -6.2420   -3.9470   13.0210 H   0  0  0  0  0  0  0  0  0  0  0  0
   -8.8910  -12.0780   10.3170 C   0  0  0  0  0  0  0  0  0  0  0  0
   -9.3330  -12.3800   11.6090 C   0  0  0  0  0  3  0  0  0  0  0  0
   -8.8090  -13.4810   12.2890 C   0  0  0  0  0  3  0  0  0  0  0  0
   -7.8470  -14.2860   11.6790 C   0  0  0  0  0  3  0  0  0  0  0  0
   -7.4060  -13.9920   10.3900 C   0  0  0  0  0  3  0  0  0  0  0  0
   -7.9230  -12.8880    9.7110 C   0  0  0  0  0  3  0  0  0  0  0  0
  -13.8480   -6.7520    5.7920 C   0  0  0  0  0  0  0  0  0  0  0  0
  -12.8810   -5.8410    5.4750 N   0  0  0  0  0  0  0  0  0  0  0  0
  -15.0340   -6.4480    5.7350 O   0  0  0  0  0  0  0  0  0  0  0  0
  -13.1920   -4.9130    5.2150 H   0  0  0  0  0  0  0  0  0  0  0  0
  -11.8960   -6.0430    5.4130 H   0  0  0  0  0  0  0  0  0  0  0  0
  1  5  2  0  0  0  0
  1 17  1  0  0  0  0
  2  1  1  0  0  0  0
  3  2  2  0  0  0  0
  3  4  1  0  0  0  0
  4  5  1  0  0  0  0
  5 31  1  0  0  0  0
  6  4  1  0  0  0  0
  7  6  1  0  0  0  0
  8  7  1  0  0  0  0
  8 13  1  0  0  0  0
  9  8  2  0  0  0  0
 10  9  1  0  0  0  0
 10 11  2  0  0  0  0
 11 12  1  0  0  0  0
 12 13  2  0  0  0  0
 13  3  1  0  0  0  0
 14 15  1  0  0  0  0
 14 23  1  0  0  0  0
 16 15  2  0  0  0  0
 17 16  1  0  0  0  0
 18 17  2  0  0  0  0
 18 19  1  0  0  0  0
 19 14  2  0  0  0  0
 21 20  1  1  0  0  0
 21 24  1  0  0  0  0
 22 23  1  0  0  0  0
 22 21  1  0  0  0  0
 23 25  1  1  0  0  0
 23 24  1  0  0  0  0
 25 26  1  0  0  0  0
 25 28  1  0  0  0  0
 27 25  1  0  0  0  0
 29 30  1  0  0  0  0
 29 21  1  0  0  0  0
 31 32  1  0  0  0  0
 32 33  2  0  0  0  0
 34 33  1  0  0  0  0
 35 34  2  0  0  0  0
 36 31  2  0  0  0  0
 36 35  1  0  0  0  0
 37 11  1  0  0  0  0
 38 37  1  0  0  0  0
 39 37  2  0  0  0  0
 40 38  1  0  0  0  0
 41 38  1  0  0  0  0
M  END
>  <minimizedAffinity>
-5.24179888

$$$$

 OpenBabel11232420033D

 41 46  0  0  1  0  0  0  0  0999 V2000
   -8.6180   -9.4950    9.7850 C   0  0  0  0  0  0  0  0  0  0  0  0
   -9.7750   -8.9610    9.2470 N   0  0  0  0  0  0  0  0  0  0  0  0
  -10.4850   -9.9890    8.8400 C   0  0  0  0  0  0  0  0  0  0  0  0
   -9.8260  -11.1580    9.0770 N   0  0  0  0  0  0  0  0  0  0  0  0
   -8.6350  -10.8830    9.7120 C   0  0  0  0  0  0  0  0  0  0  0  0
  -10.4220  -12.4480    8.7780 C   0  0  0  0  0  2  0  0  0  0  0  0
  -11.4390  -12.3900    7.7540 O   0  0  0  0  0  0  0  0  0  0  0  0
  -12.2130  -11.2590    7.7060 C   0  0  0  0  0  0  0  0  0  0  0  0
  -13.4400  -11.3550    7.0530 C   0  0  0  0  0  3  0  0  0  0  0  0
  -14.2620  -10.2270    6.9440 C   0  0  0  0  0  3  0  0  0  0  0  0
  -13.8510   -8.9990    7.4820 C   0  0  0  0  0  0  0  0  0  0  0  0
  -12.5990   -8.9020    8.1050 C   0  0  0  0  0  3  0  0  0  0  0  0
  -11.7860  -10.0300    8.2170 C   0  0  0  0  0  0  0  0  0  0  0  0
   -5.6040   -6.9970   11.6340 C   0  0  0  0  0  0  0  0  0  0  0  0
   -6.9220   -7.1060   12.1300 C   0  0  0  0  0  3  0  0  0  0  0  0
   -7.8890   -7.9060   11.5090 C   0  0  0  0  0  3  0  0  0  0  0  0
   -7.5970   -8.6190   10.3430 C   0  0  0  0  0  0  0  0  0  0  0  0
   -6.3160   -8.4960    9.8070 C   0  0  0  0  0  3  0  0  0  0  0  0
   -5.3460   -7.7030   10.4400 C   0  0  0  0  0  3  0  0  0  0  0  0
   -1.5920   -7.1550   14.0950 C   0  0  0  0  0  1  0  0  0  0  0  0
   -2.8760   -7.3060   13.2960 C   0  0  1  0  0  0  0  0  0  0  0  0
   -4.0850   -6.5310   13.8820 C   0  0  0  0  0  2  0  0  0  0  0  0
   -4.4910   -6.1700   12.4220 C   0  0  1  0  0  0  0  0  0  0  0  0
   -2.9980   -6.3990   12.0410 C   0  0  0  0  0  2  0  0  0  0  0  0
   -4.8810   -4.7390   12.3310 N   0  0  0  0  0  4  0  0  0  0  0  0
   -4.9090   -4.4190   11.3550 H   0  0  0  0  0  0  0  0  0  0  0  0
   -5.8320   -4.6050   12.7000 H   0  0  0  0  0  0  0  0  0  0  0  0
   -4.2540   -4.1110   12.8470 H   0  0  0  0  0  0  0  0  0  0  0  0
   -3.1460   -8.7010   13.0640 O   0  0  0  0  0  0  0  0  0  0  0  0
   -2.3310   -9.0910   12.6940 H   0  0  0  0  0  0  0  0  0  0  0  0
   -7.7020  -11.9190   10.1290 C   0  0  0  0  0  0  0  0  0  0  0  0
   -7.7500  -12.4290   11.4310 C   0  0  0  0  0  3  0  0  0  0  0  0
   -6.8340  -13.4010   11.8360 C   0  0  0  0  0  3  0  0  0  0  0  0
   -5.8720  -13.8710   10.9410 C   0  0  0  0  0  3  0  0  0  0  0  0
   -5.8230  -13.3690    9.6420 C   0  0  0  0  0  3  0  0  0  0  0  0
   -6.7340  -12.3930    9.2370 C   0  0  0  0  0  3  0  0  0  0  0  0
  -14.6840   -7.7690    7.4000 C   0  0  0  0  0  0  0  0  0  0  0  0
  -15.4560   -7.5930    6.2860 N   0  0  0  0  0  0  0  0  0  0  0  0
  -14.7090   -6.9510    8.3120 O   0  0  0  0  0  0  0  0  0  0  0  0
  -16.0240   -6.7550    6.2500 H   0  0  0  0  0  0  0  0  0  0  0  0
  -15.5550   -8.2630    5.5410 H   0  0  0  0  0  0  0  0  0  0  0  0
  1 17  1  0  0  0  0
  2  1  1  0  0  0  0
  3  4  1  0  0  0  0
  3  2  2  0  0  0  0
  4  5  1  0  0  0  0
  5  1  2  0  0  0  0
  5 31  1  0  0  0  0
  6  4  1  0  0  0  0
  7  6  1  0  0  0  0
  8  7  1  0  0  0  0
  8 13  1  0  0  0  0
  9  8  2  0  0  0  0
 10  9  1  0  0  0  0
 10 11  2  0  0  0  0
 11 12  1  0  0  0  0
 12 13  2  0  0  0  0
 13  3  1  0  0  0  0
 14 15  1  0  0  0  0
 14 23  1  0  0  0  0
 16 15  2  0  0  0  0
 17 16  1  0  0  0  0
 18 17  2  0  0  0  0
 18 19  1  0  0  0  0
 19 14  2  0  0  0  0
 21 22  1  0  0  0  0
 21 20  1  1  0  0  0
 23 25  1  6  0  0  0
 23 22  1  0  0  0  0
 24 23  1  0  0  0  0
 24 21  1  0  0  0  0
 25 27  1  0  0  0  0
 25 28  1  0  0  0  0
 26 25  1  0  0  0  0
 29 21  1  0  0  0  0
 30 29  1  0  0  0  0
 31 32  1  0  0  0  0
 32 33  2  0  0  0  0
 34 33  1  0  0  0  0
 35 34  2  0  0  0  0
 36 35  1  0  0  0  0
 36 31  2  0  0  0  0
 37 11  1  0  0  0  0
 37 39  2  0  0  0  0
 38 37  1  0  0  0  0
 40 38  1  0  0  0  0
 41 38  1  0  0  0  0
M  END
>  <minimizedAffinity>
-5.21223307

$$$$

 OpenBabel11232420033D

 41 46  0  0  1  0  0  0  0  0999 V2000
   -9.2590   -9.8220    9.2290 C   0  0  0  0  0  0  0  0  0  0  0  0
   -8.6100   -8.7050    9.7220 N   0  0  0  0  0  0  0  0  0  0  0  0
   -7.5790   -9.1600   10.3960 C   0  0  0  0  0  0  0  0  0  0  0  0
   -7.5480  -10.5230   10.3740 N   0  0  0  0  0  0  0  0  0  0  0  0
   -8.5950  -10.9840    9.6070 C   0  0  0  0  0  0  0  0  0  0  0  0
   -6.4720  -11.2750   10.9920 C   0  0  0  0  0  2  0  0  0  0  0  0
   -5.8010  -10.5570   12.0520 O   0  0  0  0  0  0  0  0  0  0  0  0
   -5.6820   -9.1990   11.9080 C   0  0  0  0  0  0  0  0  0  0  0  0
   -4.6920   -8.5640   12.6550 C   0  0  0  0  0  3  0  0  0  0  0  0
   -4.5410   -7.1750   12.5740 C   0  0  0  0  0  3  0  0  0  0  0  0
   -5.3870   -6.4190   11.7500 C   0  0  0  0  0  0  0  0  0  0  0  0
   -6.4030   -7.0610   11.0300 C   0  0  0  0  0  3  0  0  0  0  0  0
   -6.5470   -8.4470   11.1080 C   0  0  0  0  0  0  0  0  0  0  0  0
  -12.7060   -9.4230    6.6400 C   0  0  0  0  0  0  0  0  0  0  0  0
  -11.5520   -8.6180    6.5130 C   0  0  0  0  0  3  0  0  0  0  0  0
  -10.4530   -8.7500    7.3710 C   0  0  0  0  0  3  0  0  0  0  0  0
  -10.4600   -9.6760    8.4180 C   0  0  0  0  0  0  0  0  0  0  0  0
  -11.6030  -10.4530    8.5920 C   0  0  0  0  0  3  0  0  0  0  0  0
  -12.6980  -10.3260    7.7230 C   0  0  0  0  0  3  0  0  0  0  0  0
  -16.3770   -6.9340    5.0550 C   0  0  0  0  0  1  0  0  0  0  0  0
  -15.1740   -7.5950    5.7090 C   0  0  1  0  0  0  0  0  0  0  0  0
  -15.3710   -9.1000    6.0280 C   0  0  0  0  0  2  0  0  0  0  0  0
  -13.8960   -9.3310    5.5820 C   0  0  1  0  0  0  0  0  0  0  0  0
  -14.0350   -8.0250    4.7440 C   0  0  0  0  0  2  0  0  0  0  0  0
  -13.7970  -10.5400    4.7250 N   0  0  0  0  0  4  0  0  0  0  0  0
  -12.9010  -10.5710    4.2220 H   0  0  0  0  0  0  0  0  0  0  0  0
  -13.8250  -11.3910    5.3040 H   0  0  0  0  0  0  0  0  0  0  0  0
  -14.5480  -10.6110    4.0290 H   0  0  0  0  0  0  0  0  0  0  0  0
  -14.7470   -6.8180    6.8430 O   0  0  0  0  0  0  0  0  0  0  0  0
  -14.6500   -5.8960    6.5370 H   0  0  0  0  0  0  0  0  0  0  0  0
   -8.8330  -12.3980    9.3590 C   0  0  0  0  0  0  0  0  0  0  0  0
   -8.1140  -13.0710    8.3650 C   0  0  0  0  0  3  0  0  0  0  0  0
   -8.3660  -14.4200    8.1120 C   0  0  0  0  0  3  0  0  0  0  0  0
   -9.3320  -15.1030    8.8520 C   0  0  0  0  0  3  0  0  0  0  0  0
  -10.0480  -14.4370    9.8460 C   0  0  0  0  0  3  0  0  0  0  0  0
   -9.8020  -13.0870   10.0970 C   0  0  0  0  0  3  0  0  0  0  0  0
   -5.2700   -4.9410   11.6220 C   0  0  0  0  0  0  0  0  0  0  0  0
   -5.6200   -4.3720   10.4300 N   0  0  0  0  0  0  0  0  0  0  0  0
   -4.9050   -4.2450   12.5620 O   0  0  0  0  0  0  0  0  0  0  0  0
   -5.5430   -3.3650   10.3620 H   0  0  0  0  0  0  0  0  0  0  0  0
   -6.0120   -4.8700    9.6470 H   0  0  0  0  0  0  0  0  0  0  0  0
  1  5  2  0  0  0  0
  1  2  1  0  0  0  0
  2  3  2  0  0  0  0
  3 13  1  0  0  0  0
  4  3  1  0  0  0  0
  4  6  1  0  0  0  0
  5  4  1  0  0  0  0
  6  7  1  0  0  0  0
  8  7  1  0  0  0  0
  8  9  1  0  0  0  0
 10  9  2  0  0  0  0
 11 10  1  0  0  0  0
 12 13  1  0  0  0  0
 12 11  2  0  0  0  0
 13  8  2  0  0  0  0
 14 19  1  0  0  0  0
 15 14  2  0  0  0  0
 15 16  1  0  0  0  0
 16 17  2  0  0  0  0
 17 18  1  0  0  0  0
 17  1  1  0  0  0  0
 19 18  2  0  0  0  0
 21 20  1  6  0  0  0
 21 22  1  0  0  0  0
 21 29  1  0  0  0  0
 23 25  1  6  0  0  0
 23 22  1  0  0  0  0
 23 14  1  0  0  0  0
 24 23  1  0  0  0  0
 24 21  1  0  0  0  0
 25 27  1  0  0  0  0
 26 25  1  0  0  0  0
 28 25  1  0  0  0  0
 30 29  1  0  0  0  0
 31  5  1  0  0  0  0
 31 36  1  0  0  0  0
 32 31  2  0  0  0  0
 33 32  1  0  0  0  0
 33 34  2  0  0  0  0
 34 35  1  0  0  0  0
 35 36  2  0  0  0  0
 37 11  1  0  0  0  0
 37 39  2  0  0  0  0
 38 37  1  0  0  0  0
 40 38  1  0  0  0  0
 41 38  1  0  0  0  0
M  END
>  <minimizedAffinity>
-5.04693508

$$$$
