
 OpenBabel11232420033D

 41 46  0  0  1  0  0  0  0  0999 V2000
   -5.6750   -9.6450   11.8890 C   0  0  0  0  0  0  0  0  0  0  0  0
   -5.8660  -10.9990   12.0920 N   0  0  0  0  0  0  0  0  0  0  0  0
   -6.2970  -11.4730   10.9460 C   0  0  0  0  0  0  0  0  0  0  0  0
   -6.4080  -10.4790   10.0200 N   0  0  0  0  0  0  0  0  0  0  0  0
   -5.9870   -9.2930   10.5800 C   0  0  0  0  0  0  0  0  0  0  0  0
   -6.8040  -10.7490    8.6500 C   0  0  0  0  0  2  0  0  0  0  0  0
   -7.5770  -11.9600    8.5000 O   0  0  0  0  0  0  0  0  0  0  0  0
   -7.2680  -13.0040    9.3330 C   0  0  0  0  0  0  0  0  0  0  0  0
   -7.6670  -14.2780    8.9320 C   0  0  0  0  0  3  0  0  0  0  0  0
   -7.4070  -15.3800    9.7540 C   0  0  0  0  0  3  0  0  0  0  0  0
   -6.7540  -15.2080   10.9830 C   0  0  0  0  0  0  0  0  0  0  0  0
   -6.3880  -13.9190   11.3950 C   0  0  0  0  0  3  0  0  0  0  0  0
   -6.6430  -12.8230   10.5700 C   0  0  0  0  0  0  0  0  0  0  0  0
   -4.2730   -6.9640   14.9870 C   0  0  0  0  0  0  0  0  0  0  0  0
   -3.7380   -6.9750   13.6790 C   0  0  0  0  0  3  0  0  0  0  0  0
   -4.1920   -7.8610   12.6950 C   0  0  0  0  0  3  0  0  0  0  0  0
   -5.1880   -8.8020   12.9730 C   0  0  0  0  0  0  0  0  0  0  0  0
   -5.7040   -8.8410   14.2670 C   0  0  0  0  0  3  0  0  0  0  0  0
   -5.2540   -7.9430   15.2470 C   0  0  0  0  0  3  0  0  0  0  0  0
   -0.6890   -4.5620   16.8750 C   0  0  0  0  0  1  0  0  0  0  0  0
   -1.7050   -5.4330   16.1550 C   0  0  1  0  0  0  0  0  0  0  0  0
   -2.6980   -6.1640   17.0980 C   0  0  0  0  0  2  0  0  0  0  0  0
   -3.8180   -5.8710   16.0550 C   0  0  1  0  0  0  0  0  0  0  0  0
   -2.9330   -4.6870   15.5640 C   0  0  0  0  0  2  0  0  0  0  0  0
   -5.0520   -5.4050   16.7370 N   0  0  0  0  0  4  0  0  0  0  0  0
   -5.7080   -4.9740   16.0740 H   0  0  0  0  0  0  0  0  0  0  0  0
   -5.5540   -6.2020   17.1520 H   0  0  0  0  0  0  0  0  0  0  0  0
   -4.8740   -4.7250   17.4850 H   0  0  0  0  0  0  0  0  0  0  0  0
   -1.0320   -6.3140   15.2380 O   0  0  0  0  0  0  0  0  0  0  0  0
   -0.4400   -5.7600   14.6930 H   0  0  0  0  0  0  0  0  0  0  0  0
   -5.9550   -8.0370    9.8470 C   0  0  0  0  0  0  0  0  0  0  0  0
   -4.9990   -7.8280    8.8470 C   0  0  0  0  0  3  0  0  0  0  0  0
   -4.9550   -6.6100    8.1660 C   0  0  0  0  0  3  0  0  0  0  0  0
   -5.8670   -5.6010    8.4770 C   0  0  0  0  0  3  0  0  0  0  0  0
   -6.8240   -5.8070    9.4690 C   0  0  0  0  0  3  0  0  0  0  0  0
   -6.8670   -7.0210   10.1550 C   0  0  0  0  0  3  0  0  0  0  0  0
   -6.4490  -16.3430   11.8950 C   0  0  0  0  0  0  0  0  0  0  0  0
   -6.8270  -16.2320   13.2030 N   0  0  0  0  0  0  0  0  0  0  0  0
   -5.9050  -17.3630   11.4870 O   0  0  0  0  0  0  0  0  0  0  0  0
   -6.6200  -17.0170   13.8090 H   0  0  0  0  0  0  0  0  0  0  0  0
   -7.3550  -15.4650   13.5880 H   0  0  0  0  0  0  0  0  0  0  0  0
  1  2  1  0  0  0  0
  1 17  1  0  0  0  0
  3  2  2  0  0  0  0
  4  5  1  0  0  0  0
  4  3  1  0  0  0  0
  5  1  2  0  0  0  0
  6  4  1  0  0  0  0
  7  6  1  0  0  0  0
  7  8  1  0  0  0  0
  8 13  1  0  0  0  0
  9  8  2  0  0  0  0
  9 10  1  0  0  0  0
 10 11  2  0  0  0  0
 11 12  1  0  0  0  0
 11 37  1  0  0  0  0
 13  3  1  0  0  0  0
 13 12  2  0  0  0  0
 14 19  1  0  0  0  0
 14 23  1  0  0  0  0
 15 14  2  0  0  0  0
 16 17  2  0  0  0  0
 16 15  1  0  0  0  0
 17 18  1  0  0  0  0
 18 19  2  0  0  0  0
 21 20  1  1  0  0  0
 21 22  1  0  0  0  0
 23 25  1  1  0  0  0
 23 22  1  0  0  0  0
 24 23  1  0  0  0  0
 24 21  1  0  0  0  0
 25 27  1  0  0  0  0
 25 28  1  0  0  0  0
 26 25  1  0  0  0  0
 29 21  1  0  0  0  0
 30 29  1  0  0  0  0
 31 36  1  0  0  0  0
 31  5  1  0  0  0  0
 32 31  2  0  0  0  0
 33 34  2  0  0  0  0
 33 32  1  0  0  0  0
 34 35  1  0  0  0  0
 35 36  2  0  0  0  0
 37 38  1  0  0  0  0
 38 41  1  0  0  0  0
 38 40  1  0  0  0  0
 39 37  2  0  0  0  0
M  END
>  <minimizedAffinity>
-5.35893679

$$$$
