
 OpenBabel11232420033D

 41 46  0  0  1  0  0  0  0  0999 V2000
   -9.0250   -9.5790    9.5610 C   0  0  0  0  0  0  0  0  0  0  0  0
   -9.8740   -8.8570    8.7420 N   0  0  0  0  0  0  0  0  0  0  0  0
  -10.7540   -9.7210    8.2920 C   0  0  0  0  0  0  0  0  0  0  0  0
  -10.4970  -10.9700    8.7720 N   0  0  0  0  0  0  0  0  0  0  0  0
   -9.4110  -10.9140    9.6160 C   0  0  0  0  0  0  0  0  0  0  0  0
  -11.3620  -12.0980    8.4750 C   0  0  0  0  0  2  0  0  0  0  0  0
  -12.1230  -11.9370    7.2570 O   0  0  0  0  0  0  0  0  0  0  0  0
  -12.5330  -10.6680    6.9400 C   0  0  0  0  0  0  0  0  0  0  0  0
  -13.6010  -10.5460    6.0540 C   0  0  0  0  0  3  0  0  0  0  0  0
  -14.0460   -9.2770    5.6680 C   0  0  0  0  0  3  0  0  0  0  0  0
  -13.4160   -8.1260    6.1640 C   0  0  0  0  0  0  0  0  0  0  0  0
  -12.3190   -8.2570    7.0260 C   0  0  0  0  0  3  0  0  0  0  0  0
  -11.8820   -9.5250    7.4140 C   0  0  0  0  0  0  0  0  0  0  0  0
   -5.7720   -7.7390   11.7470 C   0  0  0  0  0  0  0  0  0  0  0  0
   -7.1000   -7.7740   12.2290 C   0  0  0  0  0  3  0  0  0  0  0  0
   -8.1420   -8.3590   11.5000 C   0  0  0  0  0  3  0  0  0  0  0  0
   -7.9190   -8.9160   10.2380 C   0  0  0  0  0  0  0  0  0  0  0  0
   -6.6260   -8.8580    9.7200 C   0  0  0  0  0  3  0  0  0  0  0  0
   -5.5810   -8.2820   10.4600 C   0  0  0  0  0  3  0  0  0  0  0  0
   -3.8730   -3.9630   13.8240 C   0  0  0  0  0  1  0  0  0  0  0  0
   -4.6250   -5.0540   13.0800 C   0  0  1  0  0  0  0  0  0  0  0  0
   -3.7250   -5.9510   12.1880 C   0  0  0  0  0  2  0  0  0  0  0  0
   -4.5830   -7.1690   12.6450 C   0  0  1  0  0  0  0  0  0  0  0  0
   -4.9510   -6.3290   13.9040 C   0  0  0  0  0  2  0  0  0  0  0  0
   -3.7090   -8.3240   12.9750 N   0  0  0  0  0  4  0  0  0  0  0  0
   -4.2190   -9.0400   13.5070 H   0  0  0  0  0  0  0  0  0  0  0  0
   -3.3890   -8.7870   12.1130 H   0  0  0  0  0  0  0  0  0  0  0  0
   -2.8780   -8.0650   13.5180 H   0  0  0  0  0  0  0  0  0  0  0  0
   -5.7440   -4.4840   12.3760 O   0  0  0  0  0  0  0  0  0  0  0  0
   -6.2420   -3.9470   13.0210 H   0  0  0  0  0  0  0  0  0  0  0  0
   -8.8910  -12.0780   10.3170 C   0  0  0  0  0  0  0  0  0  0  0  0
   -9.3330  -12.3800   11.6090 C   0  0  0  0  0  3  0  0  0  0  0  0
   -8.8090  -13.4810   12.2890 C   0  0  0  0  0  3  0  0  0  0  0  0
   -7.8470  -14.2860   11.6790 C   0  0  0  0  0  3  0  0  0  0  0  0
   -7.4060  -13.9920   10.3900 C   0  0  0  0  0  3  0  0  0  0  0  0
   -7.9230  -12.8880    9.7110 C   0  0  0  0  0  3  0  0  0  0  0  0
  -13.8480   -6.7520    5.7920 C   0  0  0  0  0  0  0  0  0  0  0  0
  -12.8810   -5.8410    5.4750 N   0  0  0  0  0  0  0  0  0  0  0  0
  -15.0340   -6.4480    5.7350 O   0  0  0  0  0  0  0  0  0  0  0  0
  -13.1920   -4.9130    5.2150 H   0  0  0  0  0  0  0  0  0  0  0  0
  -11.8960   -6.0430    5.4130 H   0  0  0  0  0  0  0  0  0  0  0  0
  1  5  2  0  0  0  0
  1 17  1  0  0  0  0
  2  1  1  0  0  0  0
  3  2  2  0  0  0  0
  3  4  1  0  0  0  0
  4  5  1  0  0  0  0
  5 31  1  0  0  0  0
  6  4  1  0  0  0  0
  7  6  1  0  0  0  0
  8  7  1  0  0  0  0
  8 13  1  0  0  0  0
  9  8  2  0  0  0  0
 10  9  1  0  0  0  0
 10 11  2  0  0  0  0
 11 12  1  0  0  0  0
 12 13  2  0  0  0  0
 13  3  1  0  0  0  0
 14 15  1  0  0  0  0
 14 23  1  0  0  0  0
 16 15  2  0  0  0  0
 17 16  1  0  0  0  0
 18 17  2  0  0  0  0
 18 19  1  0  0  0  0
 19 14  2  0  0  0  0
 21 20  1  1  0  0  0
 21 24  1  0  0  0  0
 22 23  1  0  0  0  0
 22 21  1  0  0  0  0
 23 25  1  1  0  0  0
 23 24  1  0  0  0  0
 25 26  1  0  0  0  0
 25 28  1  0  0  0  0
 27 25  1  0  0  0  0
 29 30  1  0  0  0  0
 29 21  1  0  0  0  0
 31 32  1  0  0  0  0
 32 33  2  0  0  0  0
 34 33  1  0  0  0  0
 35 34  2  0  0  0  0
 36 31  2  0  0  0  0
 36 35  1  0  0  0  0
 37 11  1  0  0  0  0
 38 37  1  0  0  0  0
 39 37  2  0  0  0  0
 40 38  1  0  0  0  0
 41 38  1  0  0  0  0
M  END
>  <minimizedAffinity>
-5.24179888

$$$$
