
 OpenBabel11232420033D

 41 46  0  0  1  0  0  0  0  0999 V2000
   -5.3780   -9.0480   12.0420 C   0  0  0  0  0  0  0  0  0  0  0  0
   -5.7260  -10.3700   11.8310 N   0  0  0  0  0  0  0  0  0  0  0  0
   -6.6430  -10.3510   10.8910 C   0  0  0  0  0  0  0  0  0  0  0  0
   -6.9120   -9.0730   10.5010 N   0  0  0  0  0  0  0  0  0  0  0  0
   -6.0960   -8.2090   11.1970 C   0  0  0  0  0  0  0  0  0  0  0  0
   -7.8450   -8.7790    9.4280 C   0  0  0  0  0  2  0  0  0  0  0  0
   -8.8280   -9.8170    9.2180 O   0  0  0  0  0  0  0  0  0  0  0  0
   -8.4240  -11.1100    9.4290 C   0  0  0  0  0  0  0  0  0  0  0  0
   -9.1770  -12.1180    8.8280 C   0  0  0  0  0  3  0  0  0  0  0  0
   -8.8330  -13.4590    9.0310 C   0  0  0  0  0  3  0  0  0  0  0  0
   -7.7390  -13.7940    9.8430 C   0  0  0  0  0  0  0  0  0  0  0  0
   -7.0110  -12.7760   10.4730 C   0  0  0  0  0  3  0  0  0  0  0  0
   -7.3520  -11.4390   10.2640 C   0  0  0  0  0  0  0  0  0  0  0  0
   -2.4380   -7.8200   14.9720 C   0  0  0  0  0  0  0  0  0  0  0  0
   -2.5150   -7.2570   13.6790 C   0  0  0  0  0  3  0  0  0  0  0  0
   -3.4630   -7.6790   12.7380 C   0  0  0  0  0  3  0  0  0  0  0  0
   -4.3660   -8.7050   13.0310 C   0  0  0  0  0  0  0  0  0  0  0  0
   -4.2830   -9.3060   14.2850 C   0  0  0  0  0  3  0  0  0  0  0  0
   -3.3400   -8.8720   15.2300 C   0  0  0  0  0  3  0  0  0  0  0  0
    2.0550   -7.3230   16.2950 C   0  0  0  0  0  1  0  0  0  0  0  0
    0.6770   -7.5910   15.7120 C   0  0  1  0  0  0  0  0  0  0  0  0
   -0.3480   -8.1470   16.7360 C   0  0  0  0  0  2  0  0  0  0  0  0
   -1.4260   -7.2440   16.0630 C   0  0  1  0  0  0  0  0  0  0  0  0
   -0.2470   -6.3500   15.5730 C   0  0  0  0  0  2  0  0  0  0  0  0
   -2.2520   -6.5680   17.0950 N   0  0  0  0  0  4  0  0  0  0  0  0
   -2.7920   -5.7900   16.6930 H   0  0  0  0  0  0  0  0  0  0  0  0
   -2.9460   -7.2230   17.4820 H   0  0  0  0  0  0  0  0  0  0  0  0
   -1.7050   -6.1950   17.8780 H   0  0  0  0  0  0  0  0  0  0  0  0
    0.7960   -8.3950   14.5250 O   0  0  0  0  0  0  0  0  0  0  0  0
    1.4560   -7.9600   13.9510 H   0  0  0  0  0  0  0  0  0  0  0  0
   -6.1130   -6.7680   10.9960 C   0  0  0  0  0  0  0  0  0  0  0  0
   -5.5060   -6.2040    9.8690 C   0  0  0  0  0  3  0  0  0  0  0  0
   -5.5000   -4.8190    9.6960 C   0  0  0  0  0  3  0  0  0  0  0  0
   -6.1040   -3.9930   10.6450 C   0  0  0  0  0  3  0  0  0  0  0  0
   -6.7140   -4.5510   11.7680 C   0  0  0  0  0  3  0  0  0  0  0  0
   -6.7160   -5.9340   11.9460 C   0  0  0  0  0  3  0  0  0  0  0  0
   -7.3260  -15.2020   10.0910 C   0  0  0  0  0  0  0  0  0  0  0  0
   -7.3470  -16.0700    9.0370 N   0  0  0  0  0  0  0  0  0  0  0  0
   -6.9460  -15.5710   11.1960 O   0  0  0  0  0  0  0  0  0  0  0  0
   -7.0540  -17.0220    9.2200 H   0  0  0  0  0  0  0  0  0  0  0  0
   -7.5610  -15.8170    8.0850 H   0  0  0  0  0  0  0  0  0  0  0  0
  1 17  1  0  0  0  0
  2  1  1  0  0  0  0
  3  2  2  0  0  0  0
  4  3  1  0  0  0  0
  4  5  1  0  0  0  0
  5  1  2  0  0  0  0
  6  4  1  0  0  0  0
  7  6  1  0  0  0  0
  7  8  1  0  0  0  0
  8 13  1  0  0  0  0
  9 10  1  0  0  0  0
  9  8  2  0  0  0  0
 10 11  2  0  0  0  0
 11 37  1  0  0  0  0
 11 12  1  0  0  0  0
 13 12  2  0  0  0  0
 13  3  1  0  0  0  0
 14 19  1  0  0  0  0
 14 23  1  0  0  0  0
 15 14  2  0  0  0  0
 16 17  2  0  0  0  0
 16 15  1  0  0  0  0
 17 18  1  0  0  0  0
 18 19  2  0  0  0  0
 21 20  1  1  0  0  0
 21 22  1  0  0  0  0
 23 22  1  0  0  0  0
 23 25  1  1  0  0  0
 24 21  1  0  0  0  0
 24 23  1  0  0  0  0
 25 27  1  0  0  0  0
 25 28  1  0  0  0  0
 26 25  1  0  0  0  0
 29 21  1  0  0  0  0
 30 29  1  0  0  0  0
 31  5  1  0  0  0  0
 31 36  1  0  0  0  0
 32 31  2  0  0  0  0
 33 32  1  0  0  0  0
 33 34  2  0  0  0  0
 34 35  1  0  0  0  0
 35 36  2  0  0  0  0
 37 39  2  0  0  0  0
 38 40  1  0  0  0  0
 38 37  1  0  0  0  0
 41 38  1  0  0  0  0
M  END
>  <minimizedAffinity>
-5.25932407

$$$$
