
 OpenBabel11232419283D

 37 41  0  0  1  0  0  0  0  0999 V2000
   21.3850   68.5580   20.5910 C   0  0  0  0  0  0  0  0  0  0  0  0
   21.4070   69.1870   21.6600 O   0  0  0  0  0  0  0  0  0  0  0  0
   21.9360   67.2900   20.4800 N   0  0  0  0  0  0  0  0  0  0  0  0
   22.5590   66.7300   21.7000 C   0  0  0  0  0  2  0  0  0  0  0  0
   23.0170   65.2640   21.6510 C   0  0  0  0  0  2  0  0  0  0  0  0
   23.7660   65.0380   20.4150 N   0  0  0  0  0  0  0  0  0  0  0  0
   23.0360   65.3630   19.1810 C   0  0  1  0  0  3  0  0  0  0  0  0
   21.5500   65.2070   19.0090 C   0  0  0  0  0  2  0  0  0  0  0  0
   22.1280   66.5760   19.2280 C   0  0  1  0  0  3  0  0  0  0  0  0
   24.6630   63.9590   20.4550 C   0  0  0  0  0  0  0  0  0  0  0  0
   25.2880   63.7010   21.6190 N   0  0  0  0  0  0  0  0  0  0  0  0
   26.2000   62.7190   21.6180 C   0  0  0  0  0  3  0  0  0  0  0  0
   26.5960   62.0160   20.5570 N   0  0  0  0  0  0  0  0  0  0  0  0
   25.9980   62.3380   19.4060 C   0  0  0  0  0  0  0  0  0  0  0  0
   24.9750   63.2630   19.2930 C   0  0  0  0  0  0  0  0  0  0  0  0
   24.3120   63.4590   17.9520 C   0  0  2  0  0  3  0  0  0  0  0  0
   23.2010   62.4250   17.7190 C   0  0  0  0  0  1  0  0  0  0  0  0
   25.3640   63.3550   16.8460 C   0  0  0  0  0  2  0  0  0  0  0  0
   26.1970   62.1000   16.9860 C   0  0  0  0  0  0  0  0  0  0  0  0
   26.6580   61.5140   16.0100 O   0  0  0  0  0  0  0  0  0  0  0  0
   26.4920   61.7170   18.2630 N   0  0  0  0  0  0  0  0  0  0  0  0
   27.1610   60.9700   18.3930 H   0  0  0  0  0  0  0  0  0  0  0  0
   20.8540   69.2650   19.3410 C   0  0  1  0  0  3  0  0  0  0  0  0
   21.8530   69.2740   18.1960 C   0  0  0  0  0  0  0  0  0  0  0  0
   23.2380   69.2530   18.4340 C   0  0  0  0  0  3  0  0  0  0  0  0
   24.1420   69.2200   17.3690 C   0  0  0  0  0  3  0  0  0  0  0  0
   23.6710   69.2050   16.0590 C   0  0  0  0  0  0  0  0  0  0  0  0
   24.7850   69.1550   14.7500 Cl  0  0  0  0  0  0  0  0  0  0  0  0
   22.3030   69.2270   15.8050 C   0  0  0  0  0  3  0  0  0  0  0  0
   21.3960   69.2590   16.8680 C   0  0  0  0  0  3  0  0  0  0  0  0
   19.5360   68.5970   18.8720 C   0  0  0  0  0  2  0  0  0  0  0  0
   19.5980   68.0450   17.4680 N   0  0  0  0  0  4  0  0  0  0  0  0
   19.9600   68.8310   16.8840 H   0  0  0  0  0  0  0  0  0  0  0  0
   18.6410   67.9040   17.1160 H   0  0  0  0  0  0  0  0  0  0  0  0
   19.8080   65.6430   17.9760 C   0  0  0  0  0  1  0  0  0  0  0  0
   20.4200   66.8140   17.2220 C   0  0  0  0  0  3  0  0  0  0  0  0
   20.4610   66.5590   15.7200 C   0  0  0  0  0  1  0  0  0  0  0  0
  1  2  2  0  0  0  0
  3  1  1  0  0  0  0
  3  4  1  0  0  0  0
  5  4  1  0  0  0  0
  6 10  1  0  0  0  0
  6  5  1  0  0  0  0
  7  8  1  1  0  0  0
  7  9  1  0  0  0  0
  7  6  1  0  0  0  0
  9  8  1  1  0  0  0
  9  3  1  0  0  0  0
 10 11  1  0  0  0  0
 12 11  2  0  0  0  0
 13 12  1  0  0  0  0
 14 13  2  0  0  0  0
 15 14  1  0  0  0  0
 15 10  2  0  0  0  0
 16 17  1  6  0  0  0
 16 15  1  0  0  0  0
 18 19  1  0  0  0  0
 18 16  1  0  0  0  0
 19 21  1  0  0  0  0
 20 19  2  0  0  0  0
 21 22  1  0  0  0  0
 21 14  1  0  0  0  0
 23 31  1  6  0  0  0
 23  1  1  0  0  0  0
 24 25  1  0  0  0  0
 24 23  1  0  0  0  0
 26 25  2  0  0  0  0
 27 26  1  0  0  0  0
 28 27  1  0  0  0  0
 29 27  2  0  0  0  0
 29 30  1  0  0  0  0
 30 24  2  0  0  0  0
 32 31  1  0  0  0  0
 33 32  1  0  0  0  0
 34 32  1  0  0  0  0
 36 32  1  0  0  0  0
 36 35  1  0  0  0  0
 37 36  1  0  0  0  0
M  END
>  <minimizedAffinity>
23.5787182

$$$$

 OpenBabel11232419283D

 37 43  0  0  1  0  0  0  0  0999 V2000
   22.1240   68.4760   14.9160 C   0  0  0  0  0  0  0  0  0  0  0  0
   22.8430   69.2580   14.2770 O   0  0  0  0  0  0  0  0  0  0  0  0
   22.4490   68.0730   16.2030 N   0  0  0  0  0  0  0  0  0  0  0  0
   23.7030   68.6200   16.7700 C   0  0  0  0  0  2  0  0  0  0  0  0
   23.9940   68.3300   18.2510 C   0  0  0  0  0  2  0  0  0  0  0  0
   23.7630   66.9100   18.5160 N   0  0  0  0  0  0  0  0  0  0  0  0
   22.4150   66.4300   18.1800 C   0  0  1  0  0  3  0  0  0  0  0  0
   21.1670   67.2610   18.2880 C   0  0  2  0  0  0  0  0  0  0  0  0
   21.7750   67.0140   16.9370 C   0  0  1  0  0  3  0  0  0  0  0  0
   24.4540   66.3950   19.6230 C   0  0  0  0  0  0  0  0  0  0  0  0
   25.4430   67.1390   20.1540 N   0  0  0  0  0  0  0  0  0  0  0  0
   26.1440   66.5980   21.1580 C   0  0  0  0  0  3  0  0  0  0  0  0
   26.0000   65.3620   21.6410 N   0  0  0  0  0  0  0  0  0  0  0  0
   25.0500   64.6300   21.0530 C   0  0  0  0  0  0  0  0  0  0  0  0
   24.1950   65.1050   20.0730 C   0  0  0  0  0  0  0  0  0  0  0  0
   23.0960   64.2060   19.5640 C   0  0  2  0  0  3  0  0  0  0  0  0
   21.8550   64.2710   20.4670 C   0  0  0  0  0  1  0  0  0  0  0  0
   23.6110   62.7680   19.4850 C   0  0  0  0  0  2  0  0  0  0  0  0
   24.2600   62.3370   20.7820 C   0  0  0  0  0  0  0  0  0  0  0  0
   24.2230   61.1730   21.1720 O   0  0  0  0  0  0  0  0  0  0  0  0
   24.9740   63.2960   21.4420 N   0  0  0  0  0  0  0  0  0  0  0  0
   25.5360   63.0110   22.2330 H   0  0  0  0  0  0  0  0  0  0  0  0
   20.9250   67.8420   14.2060 C   0  0  1  0  0  3  0  0  0  0  0  0
   20.8260   66.3430   14.4310 C   0  0  0  0  0  0  0  0  0  0  0  0
   19.6040   65.6620   14.2930 C   0  0  0  0  0  3  0  0  0  0  0  0
   19.5390   64.2770   14.4620 C   0  0  0  0  0  3  0  0  0  0  0  0
   20.6920   63.5600   14.7690 C   0  0  0  0  0  0  0  0  0  0  0  0
   20.6110   61.8540   14.9680 Cl  0  0  0  0  0  0  0  0  0  0  0  0
   21.9100   64.2170   14.9100 C   0  0  0  0  0  3  0  0  0  0  0  0
   21.9790   65.6030   14.7400 C   0  0  0  0  0  3  0  0  0  0  0  0
   19.6110   68.5230   14.6710 C   0  0  0  0  0  2  0  0  0  0  0  0
   19.5800   68.8430   16.1470 N   0  0  0  0  0  4  0  0  0  0  0  0
   18.5690   68.9720   16.3730 H   0  0  0  0  0  0  0  0  0  0  0  0
   19.9820   69.7780   16.2990 H   0  0  0  0  0  0  0  0  0  0  0  0
   19.9760   68.3470   18.5270 C   0  0  0  0  0  2  0  0  0  0  0  0
   20.1900   67.8600   17.1010 C   0  0  2  0  0  0  0  0  0  0  0  0
   19.5430   66.5010   16.8660 C   0  0  0  0  0  1  0  0  0  0  0  0
  1  3  1  0  0  0  0
  2  1  2  0  0  0  0
  3  4  1  0  0  0  0
  4  5  1  0  0  0  0
  5  6  1  0  0  0  0
  6 10  1  0  0  0  0
  7  8  1  0  0  0  0
  7  6  1  1  0  0  0
  8 35  1  1  0  0  0
  9  3  1  1  0  0  0
  9  7  1  0  0  0  0
  9  8  1  0  0  0  0
 10 15  2  0  0  0  0
 10 11  1  0  0  0  0
 11 12  2  0  0  0  0
 12 13  1  0  0  0  0
 14 21  1  0  0  0  0
 14 13  2  0  0  0  0
 15 14  1  0  0  0  0
 16 15  1  0  0  0  0
 16 17  1  1  0  0  0
 18 16  1  0  0  0  0
 18 19  1  0  0  0  0
 19 20  2  0  0  0  0
 19 21  1  0  0  0  0
 21 22  1  0  0  0  0
 23 24  1  1  0  0  0
 23 31  1  0  0  0  0
 23  1  1  0  0  0  0
 24 30  1  0  0  0  0
 25 24  2  0  0  0  0
 25 26  1  0  0  0  0
 26 27  2  0  0  0  0
 27 29  1  0  0  0  0
 27 28  1  0  0  0  0
 30 29  2  0  0  0  0
 31 32  1  0  0  0  0
 32 34  1  0  0  0  0
 32 33  1  0  0  0  0
 32 36  1  0  0  0  0
 36 37  1  6  0  0  0
 36  8  1  0  0  0  0
 36 35  1  0  0  0  0
M  END
>  <minimizedAffinity>
24.3128586

$$$$
