
 OpenBabel11232419283D

 37 41  0  0  1  0  0  0  0  0999 V2000
   21.3850   68.5580   20.5910 C   0  0  0  0  0  0  0  0  0  0  0  0
   21.4070   69.1870   21.6600 O   0  0  0  0  0  0  0  0  0  0  0  0
   21.9360   67.2900   20.4800 N   0  0  0  0  0  0  0  0  0  0  0  0
   22.5590   66.7300   21.7000 C   0  0  0  0  0  2  0  0  0  0  0  0
   23.0170   65.2640   21.6510 C   0  0  0  0  0  2  0  0  0  0  0  0
   23.7660   65.0380   20.4150 N   0  0  0  0  0  0  0  0  0  0  0  0
   23.0360   65.3630   19.1810 C   0  0  1  0  0  3  0  0  0  0  0  0
   21.5500   65.2070   19.0090 C   0  0  0  0  0  2  0  0  0  0  0  0
   22.1280   66.5760   19.2280 C   0  0  1  0  0  3  0  0  0  0  0  0
   24.6630   63.9590   20.4550 C   0  0  0  0  0  0  0  0  0  0  0  0
   25.2880   63.7010   21.6190 N   0  0  0  0  0  0  0  0  0  0  0  0
   26.2000   62.7190   21.6180 C   0  0  0  0  0  3  0  0  0  0  0  0
   26.5960   62.0160   20.5570 N   0  0  0  0  0  0  0  0  0  0  0  0
   25.9980   62.3380   19.4060 C   0  0  0  0  0  0  0  0  0  0  0  0
   24.9750   63.2630   19.2930 C   0  0  0  0  0  0  0  0  0  0  0  0
   24.3120   63.4590   17.9520 C   0  0  2  0  0  3  0  0  0  0  0  0
   23.2010   62.4250   17.7190 C   0  0  0  0  0  1  0  0  0  0  0  0
   25.3640   63.3550   16.8460 C   0  0  0  0  0  2  0  0  0  0  0  0
   26.1970   62.1000   16.9860 C   0  0  0  0  0  0  0  0  0  0  0  0
   26.6580   61.5140   16.0100 O   0  0  0  0  0  0  0  0  0  0  0  0
   26.4920   61.7170   18.2630 N   0  0  0  0  0  0  0  0  0  0  0  0
   27.1610   60.9700   18.3930 H   0  0  0  0  0  0  0  0  0  0  0  0
   20.8540   69.2650   19.3410 C   0  0  1  0  0  3  0  0  0  0  0  0
   21.8530   69.2740   18.1960 C   0  0  0  0  0  0  0  0  0  0  0  0
   23.2380   69.2530   18.4340 C   0  0  0  0  0  3  0  0  0  0  0  0
   24.1420   69.2200   17.3690 C   0  0  0  0  0  3  0  0  0  0  0  0
   23.6710   69.2050   16.0590 C   0  0  0  0  0  0  0  0  0  0  0  0
   24.7850   69.1550   14.7500 Cl  0  0  0  0  0  0  0  0  0  0  0  0
   22.3030   69.2270   15.8050 C   0  0  0  0  0  3  0  0  0  0  0  0
   21.3960   69.2590   16.8680 C   0  0  0  0  0  3  0  0  0  0  0  0
   19.5360   68.5970   18.8720 C   0  0  0  0  0  2  0  0  0  0  0  0
   19.5980   68.0450   17.4680 N   0  0  0  0  0  4  0  0  0  0  0  0
   19.9600   68.8310   16.8840 H   0  0  0  0  0  0  0  0  0  0  0  0
   18.6410   67.9040   17.1160 H   0  0  0  0  0  0  0  0  0  0  0  0
   19.8080   65.6430   17.9760 C   0  0  0  0  0  1  0  0  0  0  0  0
   20.4200   66.8140   17.2220 C   0  0  0  0  0  3  0  0  0  0  0  0
   20.4610   66.5590   15.7200 C   0  0  0  0  0  1  0  0  0  0  0  0
  1  2  2  0  0  0  0
  3  1  1  0  0  0  0
  3  4  1  0  0  0  0
  5  4  1  0  0  0  0
  6 10  1  0  0  0  0
  6  5  1  0  0  0  0
  7  8  1  1  0  0  0
  7  9  1  0  0  0  0
  7  6  1  0  0  0  0
  9  8  1  1  0  0  0
  9  3  1  0  0  0  0
 10 11  1  0  0  0  0
 12 11  2  0  0  0  0
 13 12  1  0  0  0  0
 14 13  2  0  0  0  0
 15 14  1  0  0  0  0
 15 10  2  0  0  0  0
 16 17  1  6  0  0  0
 16 15  1  0  0  0  0
 18 19  1  0  0  0  0
 18 16  1  0  0  0  0
 19 21  1  0  0  0  0
 20 19  2  0  0  0  0
 21 22  1  0  0  0  0
 21 14  1  0  0  0  0
 23 31  1  6  0  0  0
 23  1  1  0  0  0  0
 24 25  1  0  0  0  0
 24 23  1  0  0  0  0
 26 25  2  0  0  0  0
 27 26  1  0  0  0  0
 28 27  1  0  0  0  0
 29 27  2  0  0  0  0
 29 30  1  0  0  0  0
 30 24  2  0  0  0  0
 32 31  1  0  0  0  0
 33 32  1  0  0  0  0
 34 32  1  0  0  0  0
 36 32  1  0  0  0  0
 36 35  1  0  0  0  0
 37 36  1  0  0  0  0
M  END
>  <minimizedAffinity>
23.5787182

$$$$
