
 OpenBabel10152418283D

 37 40  0  0  0  0  0  0  0  0999 V2000
    0.1270   -4.2120  -26.9900 C   0  0  0  0  0  0  0  0  0  0  0  0
   -0.4970   -2.9670  -26.8970 C   0  0  0  0  0  3  0  0  0  0  0  0
   -1.1870   -2.6210  -25.7380 C   0  0  0  0  0  3  0  0  0  0  0  0
   -1.2220   -3.5040  -24.6590 C   0  0  0  0  0  3  0  0  0  0  0  0
   -0.5110   -4.7130  -24.6860 C   0  0  0  0  0  0  0  0  0  0  0  0
    0.1710   -5.0480  -25.8650 C   0  0  0  0  0  3  0  0  0  0  0  0
    1.4760   -5.6380  -28.5750 C   0  0  0  0  0  0  0  0  0  0  0  0
    2.0680   -5.6570  -29.6520 O   0  0  0  0  0  0  0  0  0  0  0  0
    0.6740   -4.5680  -28.2350 N   0  0  0  0  0  0  0  0  0  0  0  0
    0.4300   -3.9940  -29.0330 H   0  0  0  0  0  0  0  0  0  0  0  0
    1.7490   -9.2120  -26.1580 C   0  0  0  0  0  0  0  0  0  0  0  0
    0.5430   -8.8010  -26.7570 C   0  0  0  0  0  3  0  0  0  0  0  0
    0.4400   -7.6210  -27.5090 C   0  0  0  0  0  3  0  0  0  0  0  0
    1.5620   -6.8190  -27.6850 C   0  0  0  0  0  0  0  0  0  0  0  0
    2.7510   -7.1470  -27.0320 C   0  0  0  0  0  3  0  0  0  0  0  0
    2.8390   -8.3330  -26.2950 C   0  0  0  0  0  3  0  0  0  0  0  0
    1.4830  -11.6760  -26.1050 C   0  0  0  0  0  1  0  0  0  0  0  0
    1.8610  -10.4170  -25.4740 N   0  0  0  0  0  0  0  0  0  0  0  0
    2.1940  -10.4480  -24.0550 C   0  0  0  0  0  1  0  0  0  0  0  0
   -0.5090   -5.6620  -23.4980 C   0  0  0  0  0  2  0  0  0  0  0  0
   -1.1410   -6.9290  -23.8250 N   0  0  0  0  0  0  0  0  0  0  0  0
   -0.9540   -7.3490  -24.7200 H   0  0  0  0  0  0  0  0  0  0  0  0
   -1.7260   -7.6650  -22.8060 C   0  0  0  0  0  0  0  0  0  0  0  0
   -2.1280   -6.9760  -21.7240 N   0  0  0  0  0  0  0  0  0  0  0  0
   -2.4180   -7.6810  -20.6340 C   0  0  0  0  0  3  0  0  0  0  0  0
   -2.2620   -8.9980  -20.4970 N   0  0  0  0  0  0  0  0  0  0  0  0
   -1.8910   -9.6990  -21.5860 C   0  0  0  0  0  0  0  0  0  0  0  0
   -1.6730  -11.0810  -21.5250 C   0  0  0  0  0  0  0  0  0  0  0  0
   -1.3720  -11.8550  -22.6560 C   0  0  0  0  0  3  0  0  0  0  0  0
   -1.2140  -11.2360  -23.8840 C   0  0  0  0  0  3  0  0  0  0  0  0
   -1.3320   -9.8520  -23.9620 C   0  0  0  0  0  3  0  0  0  0  0  0
   -1.6680   -9.0710  -22.8220 C   0  0  0  0  0  0  0  0  0  0  0  0
   -1.6480  -11.7910  -20.2290 C   0  0  0  0  0  0  0  0  0  0  0  0
   -2.8700  -12.0370  -19.6620 N   0  0  0  0  0  0  0  0  0  0  0  0
   -0.6010  -12.0370  -19.6510 O   0  0  0  0  0  0  0  0  0  0  0  0
   -2.8970  -12.4830  -18.7550 H   0  0  0  0  0  0  0  0  0  0  0  0
   -3.7390  -11.8340  -20.1360 H   0  0  0  0  0  0  0  0  0  0  0  0
  1  2  2  0  0  0  0
  1  6  1  0  0  0  0
  2  3  1  0  0  0  0
  3  4  2  0  0  0  0
  5  4  1  0  0  0  0
  5 20  1  0  0  0  0
  6  5  2  0  0  0  0
  7  9  1  0  0  0  0
  7 14  1  0  0  0  0
  8  7  2  0  0  0  0
  9  1  1  0  0  0  0
 10  9  1  0  0  0  0
 11 18  1  0  0  0  0
 12 11  2  0  0  0  0
 13 12  1  0  0  0  0
 14 13  2  0  0  0  0
 14 15  1  0  0  0  0
 15 16  2  0  0  0  0
 16 11  1  0  0  0  0
 17 18  1  0  0  0  0
 18 19  1  0  0  0  0
 21 20  1  0  0  0  0
 21 23  1  0  0  0  0
 22 21  1  0  0  0  0
 23 24  1  0  0  0  0
 24 25  2  0  0  0  0
 25 26  1  0  0  0  0
 27 28  1  0  0  0  0
 27 26  2  0  0  0  0
 28 33  1  0  0  0  0
 29 28  2  0  0  0  0
 30 29  1  0  0  0  0
 31 30  2  0  0  0  0
 31 32  1  0  0  0  0
 32 23  2  0  0  0  0
 32 27  1  0  0  0  0
 33 34  1  0  0  0  0
 33 35  2  0  0  0  0
 34 36  1  0  0  0  0
 37 34  1  0  0  0  0
M  END
>  <minimizedAffinity>
-5.74701691

$$$$
