
 OpenBabel10152418283D

 37 40  0  0  0  0  0  0  0  0999 V2000
   -1.3110   -8.5380  -23.3530 C   0  0  0  0  0  0  0  0  0  0  0  0
   -2.2520   -8.8460  -24.3360 C   0  0  0  0  0  3  0  0  0  0  0  0
   -2.0670   -9.9600  -25.1510 C   0  0  0  0  0  3  0  0  0  0  0  0
   -0.9590  -10.7860  -24.9590 C   0  0  0  0  0  3  0  0  0  0  0  0
   -0.0580  -10.5600  -23.9070 C   0  0  0  0  0  0  0  0  0  0  0  0
   -0.2570   -9.4290  -23.1030 C   0  0  0  0  0  3  0  0  0  0  0  0
   -1.0120   -6.0590  -22.9880 C   0  0  0  0  0  0  0  0  0  0  0  0
   -1.0250   -5.1590  -22.1520 O   0  0  0  0  0  0  0  0  0  0  0  0
   -1.4690   -7.3210  -22.6680 N   0  0  0  0  0  0  0  0  0  0  0  0
   -2.0330   -7.3290  -21.8260 H   0  0  0  0  0  0  0  0  0  0  0  0
    0.3840   -5.0070  -26.9430 C   0  0  0  0  0  0  0  0  0  0  0  0
   -0.6070   -4.2630  -26.2730 C   0  0  0  0  0  3  0  0  0  0  0  0
   -1.0910   -4.6240  -25.0070 C   0  0  0  0  0  3  0  0  0  0  0  0
   -0.5810   -5.7510  -24.3720 C   0  0  0  0  0  0  0  0  0  0  0  0
    0.3350   -6.5620  -25.0420 C   0  0  0  0  0  3  0  0  0  0  0  0
    0.8150   -6.1810  -26.3010 C   0  0  0  0  0  3  0  0  0  0  0  0
    1.5380   -5.5640  -29.0660 C   0  0  0  0  0  1  0  0  0  0  0  0
    0.9090   -4.6040  -28.1650 N   0  0  0  0  0  0  0  0  0  0  0  0
    1.0050   -3.1920  -28.5130 C   0  0  0  0  0  1  0  0  0  0  0  0
    1.1290  -11.4790  -23.6650 C   0  0  0  0  0  2  0  0  0  0  0  0
    2.3350  -10.9730  -24.2960 N   0  0  0  0  0  0  0  0  0  0  0  0
    3.1770  -10.9030  -23.7510 H   0  0  0  0  0  0  0  0  0  0  0  0
    2.3790  -10.8900  -25.6790 C   0  0  0  0  0  0  0  0  0  0  0  0
    2.1390  -12.0270  -26.3570 N   0  0  0  0  0  0  0  0  0  0  0  0
    2.4580  -12.0380  -27.6480 C   0  0  0  0  0  3  0  0  0  0  0  0
    3.0700  -11.0520  -28.3050 N   0  0  0  0  0  0  0  0  0  0  0  0
    3.2830   -9.8980  -27.6420 C   0  0  0  0  0  0  0  0  0  0  0  0
    3.9480   -8.8230  -28.2450 C   0  0  0  0  0  0  0  0  0  0  0  0
    4.1090   -7.5800  -27.6160 C   0  0  0  0  0  3  0  0  0  0  0  0
    3.6570   -7.4060  -26.3190 C   0  0  0  0  0  3  0  0  0  0  0  0
    3.0760   -8.4840  -25.6580 C   0  0  0  0  0  3  0  0  0  0  0  0
    2.8850   -9.7350  -26.3060 C   0  0  0  0  0  0  0  0  0  0  0  0
    4.6140   -8.9770  -29.5550 C   0  0  0  0  0  0  0  0  0  0  0  0
    4.9710   -7.8130  -30.1810 N   0  0  0  0  0  0  0  0  0  0  0  0
    4.7290  -10.0680  -30.0930 O   0  0  0  0  0  0  0  0  0  0  0  0
    5.3900   -7.8710  -31.0990 H   0  0  0  0  0  0  0  0  0  0  0  0
    4.8760   -6.9090  -29.7410 H   0  0  0  0  0  0  0  0  0  0  0  0
  1  6  1  0  0  0  0
  1  9  1  0  0  0  0
  2  1  2  0  0  0  0
  3  4  2  0  0  0  0
  3  2  1  0  0  0  0
  4  5  1  0  0  0  0
  5 20  1  0  0  0  0
  5  6  2  0  0  0  0
  7  9  1  0  0  0  0
  7  8  2  0  0  0  0
  9 10  1  0  0  0  0
 11 16  2  0  0  0  0
 11 12  1  0  0  0  0
 12 13  2  0  0  0  0
 13 14  1  0  0  0  0
 14  7  1  0  0  0  0
 15 14  2  0  0  0  0
 16 15  1  0  0  0  0
 17 18  1  0  0  0  0
 18 11  1  0  0  0  0
 19 18  1  0  0  0  0
 21 22  1  0  0  0  0
 21 20  1  0  0  0  0
 23 21  1  0  0  0  0
 24 23  2  0  0  0  0
 25 24  1  0  0  0  0
 26 25  2  0  0  0  0
 26 27  1  0  0  0  0
 27 32  1  0  0  0  0
 28 27  2  0  0  0  0
 28 29  1  0  0  0  0
 29 30  2  0  0  0  0
 30 31  1  0  0  0  0
 32 23  1  0  0  0  0
 32 31  2  0  0  0  0
 33 28  1  0  0  0  0
 34 37  1  0  0  0  0
 34 33  1  0  0  0  0
 35 33  2  0  0  0  0
 36 34  1  0  0  0  0
M  END
>  <minimizedAffinity>
-6.05672789

$$$$
