
 OpenBabel11232418483D

 35 39  0  0  1  0  0  0  0  0999 V2000
    7.0830   -3.5820   10.5460 O   0  0  0  0  0  0  0  0  0  0  0  0
    8.2610   -6.8370   11.9120 C   0  0  0  0  0  0  0  0  0  0  0  0
    7.6760   -7.6220   10.9220 C   0  0  0  0  0  3  0  0  0  0  0  0
    6.9790   -7.1210    9.8770 N   0  0  0  0  0  0  0  0  0  0  0  0
    6.8700   -5.7780    9.8010 C   0  0  0  0  0  3  0  0  0  0  0  0
    7.3920   -4.8950   10.7400 C   0  0  0  0  0  0  0  0  0  0  0  0
    8.1140   -5.4430   11.7980 C   0  0  0  0  0  3  0  0  0  0  0  0
   10.5080   -5.3880   17.0350 C   0  0  0  0  0  1  0  0  0  0  0  0
   10.5760   -6.7530   16.4590 C   0  0  0  0  0  0  0  0  0  0  0  0
   11.2000   -7.7320   17.1240 N   0  0  0  0  0  0  0  0  0  0  0  0
   11.0540   -8.8080   16.3320 N   0  0  0  0  0  0  0  0  0  0  0  0
   10.3790   -8.5550   15.1670 C   0  0  0  0  0  0  0  0  0  0  0  0
   10.0310   -9.3810   14.0960 C   0  0  0  0  0  3  0  0  0  0  0  0
    9.3260   -8.7920   13.0380 C   0  0  0  0  0  3  0  0  0  0  0  0
    8.9790   -7.4320   13.0430 C   0  0  0  0  0  0  0  0  0  0  0  0
    9.3370   -6.6360   14.1490 C   0  0  0  0  0  3  0  0  0  0  0  0
   10.0500   -7.2080   15.2210 C   0  0  0  0  0  0  0  0  0  0  0  0
   11.4420   -9.6910   16.6460 H   0  0  0  0  0  0  0  0  0  0  0  0
    6.2670   -3.1810    9.4400 C   0  0  0  0  0  2  0  0  0  0  0  0
    6.7030   -1.7870    8.9380 C   0  0  1  0  0  3  0  0  0  0  0  0
    6.3700   -1.6410    7.4760 N   0  0  0  0  0  4  0  0  0  0  0  0
    5.3620   -1.6880    7.2860 H   0  0  0  0  0  0  0  0  0  0  0  0
    6.7320   -0.7590    7.0920 H   0  0  0  0  0  0  0  0  0  0  0  0
    6.8200   -2.4030    6.9440 H   0  0  0  0  0  0  0  0  0  0  0  0
    6.0400   -0.6410    9.7160 C   0  0  0  0  0  2  0  0  0  0  0  0
    6.9660   -0.0330   10.7140 C   0  0  0  0  0  0  0  0  0  0  0  0
    7.8800    0.9710   10.4590 C   0  0  0  0  0  3  0  0  0  0  0  0
    8.5410    1.2600   11.6240 N   0  0  0  0  0  0  0  0  0  0  0  0
    8.0820    0.4540   12.6380 C   0  0  0  0  0  0  0  0  0  0  0  0
    8.4710    0.4010   13.9810 C   0  0  0  0  0  3  0  0  0  0  0  0
    7.8160   -0.5130   14.8080 C   0  0  0  0  0  3  0  0  0  0  0  0
    6.8110   -1.3370   14.3110 C   0  0  0  0  0  3  0  0  0  0  0  0
    6.4320   -1.2710   12.9640 C   0  0  0  0  0  3  0  0  0  0  0  0
    7.0830   -0.3600   12.1040 C   0  0  0  0  0  0  0  0  0  0  0  0
    9.2580    1.9660   11.7350 H   0  0  0  0  0  0  0  0  0  0  0  0
  1  6  1  0  0  0  0
  2 15  1  0  0  0  0
  3  2  2  0  0  0  0
  4  3  1  0  0  0  0
  5  4  2  0  0  0  0
  5  6  1  0  0  0  0
  6  7  2  0  0  0  0
  7  2  1  0  0  0  0
  9  8  1  0  0  0  0
  9 10  2  0  0  0  0
 11 18  1  0  0  0  0
 11 10  1  0  0  0  0
 12 17  1  0  0  0  0
 12 11  1  0  0  0  0
 13 12  2  0  0  0  0
 14 15  2  0  0  0  0
 14 13  1  0  0  0  0
 15 16  1  0  0  0  0
 16 17  2  0  0  0  0
 17  9  1  0  0  0  0
 19  1  1  0  0  0  0
 20 19  1  1  0  0  0
 20 25  1  0  0  0  0
 21 20  1  0  0  0  0
 22 21  1  0  0  0  0
 23 21  1  0  0  0  0
 24 21  1  0  0  0  0
 25 26  1  0  0  0  0
 26 34  1  0  0  0  0
 27 26  2  0  0  0  0
 27 28  1  0  0  0  0
 28 35  1  0  0  0  0
 28 29  1  0  0  0  0
 29 30  1  0  0  0  0
 30 31  2  0  0  0  0
 32 31  1  0  0  0  0
 33 32  2  0  0  0  0
 34 29  2  0  0  0  0
 34 33  1  0  0  0  0
M  END
>  <minimizedAffinity>
-11.4825802

$$$$

 OpenBabel11232418483D

 35 39  0  0  1  0  0  0  0  0999 V2000
    6.7440   -7.4270   12.2600 O   0  0  0  0  0  0  0  0  0  0  0  0
    6.7860   -4.6330    9.8020 C   0  0  0  0  0  0  0  0  0  0  0  0
    6.9160   -5.4410    8.6760 C   0  0  0  0  0  3  0  0  0  0  0  0
    6.9560   -6.7920    8.7190 N   0  0  0  0  0  0  0  0  0  0  0  0
    6.8450   -7.3700    9.9340 C   0  0  0  0  0  3  0  0  0  0  0  0
    6.7330   -6.6660   11.1290 C   0  0  0  0  0  0  0  0  0  0  0  0
    6.6840   -5.2770   11.0480 C   0  0  0  0  0  3  0  0  0  0  0  0
    7.8770    0.0600   12.9930 C   0  0  0  0  0  1  0  0  0  0  0  0
    7.4080    0.1080   11.5870 C   0  0  0  0  0  0  0  0  0  0  0  0
    7.1950    1.2860   10.9900 N   0  0  0  0  0  0  0  0  0  0  0  0
    6.8020    0.9550    9.7480 N   0  0  0  0  0  0  0  0  0  0  0  0
    6.7290   -0.3960    9.5270 C   0  0  0  0  0  0  0  0  0  0  0  0
    6.3650   -1.1350    8.4000 C   0  0  0  0  0  3  0  0  0  0  0  0
    6.3990   -2.5320    8.5140 C   0  0  0  0  0  3  0  0  0  0  0  0
    6.7810   -3.1700    9.7040 C   0  0  0  0  0  0  0  0  0  0  0  0
    7.1550   -2.3870   10.8150 C   0  0  0  0  0  3  0  0  0  0  0  0
    7.1220   -0.9820   10.7220 C   0  0  0  0  0  0  0  0  0  0  0  0
    6.5960    1.7020    9.0950 H   0  0  0  0  0  0  0  0  0  0  0  0
    6.7850   -8.8560   12.1780 C   0  0  0  0  0  2  0  0  0  0  0  0
    7.8500   -9.4110   13.1470 C   0  0  1  0  0  3  0  0  0  0  0  0
    7.9280  -10.9100   13.0200 N   0  0  0  0  0  4  0  0  0  0  0  0
    8.2300  -11.2200   12.0880 H   0  0  0  0  0  0  0  0  0  0  0  0
    8.5620  -11.3170   13.7190 H   0  0  0  0  0  0  0  0  0  0  0  0
    6.9960  -11.3180   13.1920 H   0  0  0  0  0  0  0  0  0  0  0  0
    9.2450   -8.8180   12.9030 C   0  0  0  0  0  2  0  0  0  0  0  0
    9.7070   -7.9830   14.0490 C   0  0  0  0  0  0  0  0  0  0  0  0
    9.6500   -6.6040   14.1150 C   0  0  0  0  0  3  0  0  0  0  0  0
   10.1640   -6.2080   15.3220 N   0  0  0  0  0  0  0  0  0  0  0  0
   10.5670   -7.3050   16.0440 C   0  0  0  0  0  0  0  0  0  0  0  0
   11.1480   -7.3720   17.3160 C   0  0  0  0  0  3  0  0  0  0  0  0
   11.4460   -8.6370   17.8250 C   0  0  0  0  0  3  0  0  0  0  0  0
   11.1690   -9.7870   17.0920 C   0  0  0  0  0  3  0  0  0  0  0  0
   10.5870   -9.7040   15.8210 C   0  0  0  0  0  3  0  0  0  0  0  0
   10.2820   -8.4360   15.2800 C   0  0  0  0  0  0  0  0  0  0  0  0
   10.2340   -5.2520   15.6470 H   0  0  0  0  0  0  0  0  0  0  0  0
  2  7  1  0  0  0  0
  3  4  1  0  0  0  0
  3  2  2  0  0  0  0
  4  5  2  0  0  0  0
  5  6  1  0  0  0  0
  6  1  1  0  0  0  0
  7  6  2  0  0  0  0
  9  8  1  0  0  0  0
 10  9  2  0  0  0  0
 11 10  1  0  0  0  0
 12 11  1  0  0  0  0
 12 17  1  0  0  0  0
 13 14  1  0  0  0  0
 13 12  2  0  0  0  0
 14 15  2  0  0  0  0
 15  2  1  0  0  0  0
 15 16  1  0  0  0  0
 17 16  2  0  0  0  0
 17  9  1  0  0  0  0
 18 11  1  0  0  0  0
 19  1  1  0  0  0  0
 20 19  1  6  0  0  0
 21 20  1  0  0  0  0
 21 24  1  0  0  0  0
 21 23  1  0  0  0  0
 22 21  1  0  0  0  0
 25 20  1  0  0  0  0
 25 26  1  0  0  0  0
 26 27  2  0  0  0  0
 26 34  1  0  0  0  0
 27 28  1  0  0  0  0
 28 35  1  0  0  0  0
 28 29  1  0  0  0  0
 29 30  1  0  0  0  0
 30 31  2  0  0  0  0
 32 31  1  0  0  0  0
 33 32  2  0  0  0  0
 34 33  1  0  0  0  0
 34 29  2  0  0  0  0
M  END
>  <minimizedAffinity>
-11.4633169

$$$$

 OpenBabel11232418483D

 35 39  0  0  1  0  0  0  0  0999 V2000
    7.3220   -8.1940   10.5900 O   0  0  0  0  0  0  0  0  0  0  0  0
    6.8290   -5.0730    8.6230 C   0  0  0  0  0  0  0  0  0  0  0  0
    6.9130   -5.6820    7.3740 C   0  0  0  0  0  3  0  0  0  0  0  0
    7.0870   -7.0100    7.1940 N   0  0  0  0  0  0  0  0  0  0  0  0
    7.1650   -7.7750    8.3040 C   0  0  0  0  0  3  0  0  0  0  0  0
    7.1160   -7.2770    9.6020 C   0  0  0  0  0  0  0  0  0  0  0  0
    6.9250   -5.9060    9.7520 C   0  0  0  0  0  3  0  0  0  0  0  0
    7.3860   -0.8840   12.5650 C   0  0  0  0  0  1  0  0  0  0  0  0
    6.9310   -0.6530   11.1730 C   0  0  0  0  0  0  0  0  0  0  0  0
    6.6040    0.5790   10.7680 N   0  0  0  0  0  0  0  0  0  0  0  0
    6.2630    0.4200    9.4780 N   0  0  0  0  0  0  0  0  0  0  0  0
    6.3340   -0.8770    9.0390 C   0  0  0  0  0  0  0  0  0  0  0  0
    6.0620   -1.4530    7.7970 C   0  0  0  0  0  3  0  0  0  0  0  0
    6.2410   -2.8390    7.6830 C   0  0  0  0  0  3  0  0  0  0  0  0
    6.6730   -3.6230    8.7640 C   0  0  0  0  0  0  0  0  0  0  0  0
    6.9490   -2.9990    9.9980 C   0  0  0  0  0  3  0  0  0  0  0  0
    6.7710   -1.6090   10.1340 C   0  0  0  0  0  0  0  0  0  0  0  0
    5.9880    1.2400    8.9500 H   0  0  0  0  0  0  0  0  0  0  0  0
    6.3700   -8.3510   11.6480 C   0  0  0  0  0  2  0  0  0  0  0  0
    7.0430   -8.0740   13.0100 C   0  0  1  0  0  3  0  0  0  0  0  0
    6.6140   -9.1110   14.0150 N   0  0  0  0  0  4  0  0  0  0  0  0
    6.9090  -10.0620   13.7620 H   0  0  0  0  0  0  0  0  0  0  0  0
    6.9720   -8.8990   14.9550 H   0  0  0  0  0  0  0  0  0  0  0  0
    5.5840   -9.1160   14.0850 H   0  0  0  0  0  0  0  0  0  0  0  0
    8.5760   -8.0670   12.9270 C   0  0  0  0  0  2  0  0  0  0  0  0
    9.1970   -7.3840   14.0980 C   0  0  0  0  0  0  0  0  0  0  0  0
    9.2050   -6.0220   14.3270 C   0  0  0  0  0  3  0  0  0  0  0  0
    9.8670   -5.7850   15.5020 N   0  0  0  0  0  0  0  0  0  0  0  0
   10.3030   -6.9690   16.0440 C   0  0  0  0  0  0  0  0  0  0  0  0
   11.0200   -7.2010   17.2240 C   0  0  0  0  0  3  0  0  0  0  0  0
   11.3200   -8.5250   17.5490 C   0  0  0  0  0  3  0  0  0  0  0  0
   10.9160   -9.5730   16.7280 C   0  0  0  0  0  3  0  0  0  0  0  0
   10.1980   -9.3250   15.5500 C   0  0  0  0  0  3  0  0  0  0  0  0
    9.8880   -7.9950   15.1950 C   0  0  0  0  0  0  0  0  0  0  0  0
   10.0130   -4.8760   15.9240 H   0  0  0  0  0  0  0  0  0  0  0  0
  1 19  1  0  0  0  0
  2 15  1  0  0  0  0
  2  7  1  0  0  0  0
  3  2  2  0  0  0  0
  4  3  1  0  0  0  0
  4  5  2  0  0  0  0
  5  6  1  0  0  0  0
  6  7  2  0  0  0  0
  6  1  1  0  0  0  0
  9  8  1  0  0  0  0
 10  9  2  0  0  0  0
 11 10  1  0  0  0  0
 12 11  1  0  0  0  0
 12 17  1  0  0  0  0
 13 12  2  0  0  0  0
 14 13  1  0  0  0  0
 14 15  2  0  0  0  0
 15 16  1  0  0  0  0
 16 17  2  0  0  0  0
 17  9  1  0  0  0  0
 18 11  1  0  0  0  0
 20 19  1  6  0  0  0
 20 21  1  0  0  0  0
 21 24  1  0  0  0  0
 21 23  1  0  0  0  0
 22 21  1  0  0  0  0
 25 20  1  0  0  0  0
 25 26  1  0  0  0  0
 26 27  2  0  0  0  0
 26 34  1  0  0  0  0
 27 28  1  0  0  0  0
 28 35  1  0  0  0  0
 28 29  1  0  0  0  0
 29 30  1  0  0  0  0
 30 31  2  0  0  0  0
 32 31  1  0  0  0  0
 33 32  2  0  0  0  0
 34 33  1  0  0  0  0
 34 29  2  0  0  0  0
M  END
>  <minimizedAffinity>
-11.4215765

$$$$

 OpenBabel11232418483D

 35 39  0  0  1  0  0  0  0  0999 V2000
    8.8300   -6.9380   12.9210 O   0  0  0  0  0  0  0  0  0  0  0  0
    7.1050   -7.8870    9.7630 C   0  0  0  0  0  0  0  0  0  0  0  0
    6.2400   -8.8070   10.3490 C   0  0  0  0  0  3  0  0  0  0  0  0
    6.2070   -9.0710   11.6740 N   0  0  0  0  0  0  0  0  0  0  0  0
    7.0590   -8.3780   12.4590 C   0  0  0  0  0  3  0  0  0  0  0  0
    7.9820   -7.4520   11.9860 C   0  0  0  0  0  0  0  0  0  0  0  0
    7.9830   -7.1950   10.6170 C   0  0  0  0  0  3  0  0  0  0  0  0
    6.9960  -10.8180    4.7840 C   0  0  0  0  0  1  0  0  0  0  0  0
    7.0900   -9.3410    4.8710 C   0  0  0  0  0  0  0  0  0  0  0  0
    7.1750   -8.6060    3.7560 N   0  0  0  0  0  0  0  0  0  0  0  0
    7.2270   -7.3400    4.2030 N   0  0  0  0  0  0  0  0  0  0  0  0
    7.2040   -7.2290    5.5690 C   0  0  0  0  0  0  0  0  0  0  0  0
    7.2470   -6.1170    6.4120 C   0  0  0  0  0  3  0  0  0  0  0  0
    7.2060   -6.3600    7.7920 C   0  0  0  0  0  3  0  0  0  0  0  0
    7.1240   -7.6610    8.3150 C   0  0  0  0  0  0  0  0  0  0  0  0
    7.0690   -8.7550    7.4280 C   0  0  0  0  0  3  0  0  0  0  0  0
    7.1150   -8.5320    6.0390 C   0  0  0  0  0  0  0  0  0  0  0  0
    7.2790   -6.5920    3.5210 H   0  0  0  0  0  0  0  0  0  0  0  0
    8.3490   -6.0380   13.9250 C   0  0  0  0  0  2  0  0  0  0  0  0
    8.3170   -4.5970   13.3720 C   0  0  1  0  0  3  0  0  0  0  0  0
    9.4280   -4.4050   12.3740 N   0  0  0  0  0  4  0  0  0  0  0  0
    9.3340   -5.0080   11.5470 H   0  0  0  0  0  0  0  0  0  0  0  0
    9.4890   -3.4290   12.0570 H   0  0  0  0  0  0  0  0  0  0  0  0
   10.3320   -4.6300   12.8180 H   0  0  0  0  0  0  0  0  0  0  0  0
    6.9800   -4.2450   12.7030 C   0  0  0  0  0  2  0  0  0  0  0  0
    7.0280   -2.9210   12.0190 C   0  0  0  0  0  0  0  0  0  0  0  0
    7.3290   -1.7140   12.6200 C   0  0  0  0  0  3  0  0  0  0  0  0
    7.2720   -0.7310   11.6670 N   0  0  0  0  0  0  0  0  0  0  0  0
    6.9290   -1.2720   10.4520 C   0  0  0  0  0  0  0  0  0  0  0  0
    6.7530   -0.6460    9.2130 C   0  0  0  0  0  3  0  0  0  0  0  0
    6.4160   -1.4500    8.1230 C   0  0  0  0  0  3  0  0  0  0  0  0
    6.2670   -2.8260    8.2680 C   0  0  0  0  0  3  0  0  0  0  0  0
    6.4470   -3.4390    9.5150 C   0  0  0  0  0  3  0  0  0  0  0  0
    6.7810   -2.6470   10.6350 C   0  0  0  0  0  0  0  0  0  0  0  0
    7.4630    0.2510   11.8220 H   0  0  0  0  0  0  0  0  0  0  0  0
  1 19  1  0  0  0  0
  2  3  2  0  0  0  0
  2  7  1  0  0  0  0
  3  4  1  0  0  0  0
  4  5  2  0  0  0  0
  6  5  1  0  0  0  0
  6  1  1  0  0  0  0
  7  6  2  0  0  0  0
  8  9  1  0  0  0  0
  9 17  1  0  0  0  0
 10 11  1  0  0  0  0
 10  9  2  0  0  0  0
 11 12  1  0  0  0  0
 12 17  2  0  0  0  0
 12 13  1  0  0  0  0
 13 14  2  0  0  0  0
 14 15  1  0  0  0  0
 15  2  1  0  0  0  0
 16 15  2  0  0  0  0
 17 16  1  0  0  0  0
 18 11  1  0  0  0  0
 20 25  1  6  0  0  0
 20 19  1  0  0  0  0
 21 24  1  0  0  0  0
 21 20  1  0  0  0  0
 22 21  1  0  0  0  0
 23 21  1  0  0  0  0
 26 27  2  0  0  0  0
 26 25  1  0  0  0  0
 28 35  1  0  0  0  0
 28 27  1  0  0  0  0
 29 34  1  0  0  0  0
 29 28  1  0  0  0  0
 30 29  2  0  0  0  0
 31 32  2  0  0  0  0
 31 30  1  0  0  0  0
 32 33  1  0  0  0  0
 33 34  2  0  0  0  0
 34 26  1  0  0  0  0
M  END
>  <minimizedAffinity>
-11.1450911

$$$$

 OpenBabel11232418483D

 35 39  0  0  1  0  0  0  0  0999 V2000
   10.4860   -7.3020   14.7020 O   0  0  0  0  0  0  0  0  0  0  0  0
   11.0660  -10.5390   16.4440 C   0  0  0  0  0  0  0  0  0  0  0  0
   11.3480   -9.9780   17.6870 C   0  0  0  0  0  3  0  0  0  0  0  0
   11.3210   -8.6500   17.9380 N   0  0  0  0  0  0  0  0  0  0  0  0
   10.9810   -7.8400   16.9130 C   0  0  0  0  0  3  0  0  0  0  0  0
   10.7000   -8.2820   15.6250 C   0  0  0  0  0  0  0  0  0  0  0  0
   10.7260   -9.6560   15.4030 C   0  0  0  0  0  3  0  0  0  0  0  0
   14.9520  -14.7960   16.0300 C   0  0  0  0  0  1  0  0  0  0  0  0
   13.4910  -14.9930   15.8690 C   0  0  0  0  0  0  0  0  0  0  0  0
   13.0020  -16.2080   15.5950 N   0  0  0  0  0  0  0  0  0  0  0  0
   11.6730  -16.0190   15.5370 N   0  0  0  0  0  0  0  0  0  0  0  0
   11.2840  -14.7200   15.7400 C   0  0  0  0  0  0  0  0  0  0  0  0
   10.0240  -14.1190   15.7530 C   0  0  0  0  0  3  0  0  0  0  0  0
    9.9790  -12.7380   15.9950 C   0  0  0  0  0  3  0  0  0  0  0  0
   11.1420  -11.9850   16.2160 C   0  0  0  0  0  0  0  0  0  0  0  0
   12.3930  -12.6340   16.2080 C   0  0  0  0  0  3  0  0  0  0  0  0
   12.4610  -14.0180   15.9610 C   0  0  0  0  0  0  0  0  0  0  0  0
   11.0820  -16.8220   15.3530 H   0  0  0  0  0  0  0  0  0  0  0  0
    9.4300   -7.4220   13.7430 C   0  0  0  0  0  2  0  0  0  0  0  0
    9.3380   -6.1370   12.8920 C   0  0  1  0  0  3  0  0  0  0  0  0
   10.5690   -6.0010   12.0350 N   0  0  0  0  0  4  0  0  0  0  0  0
   10.6720   -6.7630   11.3540 H   0  0  0  0  0  0  0  0  0  0  0  0
   10.5790   -5.1080   11.5260 H   0  0  0  0  0  0  0  0  0  0  0  0
   11.4080   -6.0090   12.6350 H   0  0  0  0  0  0  0  0  0  0  0  0
    8.0970   -6.1090   11.9870 C   0  0  0  0  0  2  0  0  0  0  0  0
    7.7530   -4.7250   11.5520 C   0  0  0  0  0  0  0  0  0  0  0  0
    7.9680   -3.5730   12.2840 C   0  0  0  0  0  3  0  0  0  0  0  0
    7.5220   -2.5060   11.5500 N   0  0  0  0  0  0  0  0  0  0  0  0
    7.0100   -2.9390   10.3510 C   0  0  0  0  0  0  0  0  0  0  0  0
    6.4470   -2.2040    9.3020 C   0  0  0  0  0  3  0  0  0  0  0  0
    6.0170   -2.9070    8.1760 C   0  0  0  0  0  3  0  0  0  0  0  0
    6.1480   -4.2910    8.1030 C   0  0  0  0  0  3  0  0  0  0  0  0
    6.7140   -5.0130    9.1610 C   0  0  0  0  0  3  0  0  0  0  0  0
    7.1510   -4.3270   10.3140 C   0  0  0  0  0  0  0  0  0  0  0  0
    7.5670   -1.5350   11.8340 H   0  0  0  0  0  0  0  0  0  0  0  0
  1  6  1  0  0  0  0
  2  3  1  0  0  0  0
  3  4  2  0  0  0  0
  5  4  1  0  0  0  0
  6  5  2  0  0  0  0
  7  6  1  0  0  0  0
  7  2  2  0  0  0  0
  9 17  1  0  0  0  0
  9  8  1  0  0  0  0
 10  9  2  0  0  0  0
 11 10  1  0  0  0  0
 11 12  1  0  0  0  0
 12 13  2  0  0  0  0
 12 17  1  0  0  0  0
 13 14  1  0  0  0  0
 14 15  2  0  0  0  0
 15  2  1  0  0  0  0
 16 15  1  0  0  0  0
 17 16  2  0  0  0  0
 18 11  1  0  0  0  0
 19  1  1  0  0  0  0
 20 25  1  6  0  0  0
 20 19  1  0  0  0  0
 21 24  1  0  0  0  0
 21 20  1  0  0  0  0
 22 21  1  0  0  0  0
 23 21  1  0  0  0  0
 26 25  1  0  0  0  0
 26 27  2  0  0  0  0
 28 35  1  0  0  0  0
 28 27  1  0  0  0  0
 29 28  1  0  0  0  0
 30 29  2  0  0  0  0
 31 30  1  0  0  0  0
 32 31  2  0  0  0  0
 32 33  1  0  0  0  0
 33 34  2  0  0  0  0
 34 29  1  0  0  0  0
 34 26  1  0  0  0  0
M  END
>  <minimizedAffinity>
-10.8702345

$$$$

 OpenBabel11232418483D

 35 39  0  0  1  0  0  0  0  0999 V2000
    7.7590   -6.8450   14.1450 O   0  0  0  0  0  0  0  0  0  0  0  0
    6.9210   -5.7620   10.6850 C   0  0  0  0  0  0  0  0  0  0  0  0
    6.8640   -7.0460   10.1480 C   0  0  0  0  0  3  0  0  0  0  0  0
    7.0550   -8.1730   10.8700 N   0  0  0  0  0  0  0  0  0  0  0  0
    7.2980   -8.0220   12.1890 C   0  0  0  0  0  3  0  0  0  0  0  0
    7.4000   -6.7920   12.8310 C   0  0  0  0  0  0  0  0  0  0  0  0
    7.1860   -5.6520   12.0620 C   0  0  0  0  0  3  0  0  0  0  0  0
    5.6490   -4.2640    5.2500 C   0  0  0  0  0  1  0  0  0  0  0  0
    5.9440   -3.2900    6.3280 C   0  0  0  0  0  0  0  0  0  0  0  0
    5.9440   -1.9780    6.0670 N   0  0  0  0  0  0  0  0  0  0  0  0
    6.2270   -1.4090    7.2510 N   0  0  0  0  0  0  0  0  0  0  0  0
    6.4360   -2.3070    8.2650 C   0  0  0  0  0  0  0  0  0  0  0  0
    6.7540   -2.1290    9.6130 C   0  0  0  0  0  3  0  0  0  0  0  0
    6.9020   -3.2850   10.3920 C   0  0  0  0  0  3  0  0  0  0  0  0
    6.7390   -4.5700    9.8510 C   0  0  0  0  0  0  0  0  0  0  0  0
    6.4040   -4.7050    8.4890 C   0  0  0  0  0  3  0  0  0  0  0  0
    6.2570   -3.5560    7.6880 C   0  0  0  0  0  0  0  0  0  0  0  0
    6.2660   -0.3970    7.3000 H   0  0  0  0  0  0  0  0  0  0  0  0
    8.9670   -6.2220   14.5960 C   0  0  0  0  0  2  0  0  0  0  0  0
    9.8940   -7.2720   15.2460 C   0  0  1  0  0  3  0  0  0  0  0  0
   11.2060   -6.6360   15.6230 N   0  0  0  0  0  4  0  0  0  0  0  0
   11.1060   -5.8970   16.3290 H   0  0  0  0  0  0  0  0  0  0  0  0
   11.8770   -7.3310   15.9730 H   0  0  0  0  0  0  0  0  0  0  0  0
   11.6320   -6.2060   14.7870 H   0  0  0  0  0  0  0  0  0  0  0  0
    9.2770   -7.9190   16.4950 C   0  0  0  0  0  2  0  0  0  0  0  0
    9.5090   -9.3910   16.5350 C   0  0  0  0  0  0  0  0  0  0  0  0
   10.5530  -10.0250   17.1820 C   0  0  0  0  0  3  0  0  0  0  0  0
   10.4220  -11.3750   16.9930 N   0  0  0  0  0  0  0  0  0  0  0  0
    9.3150  -11.6380   16.2230 C   0  0  0  0  0  0  0  0  0  0  0  0
    8.8040  -12.8640   15.7820 C   0  0  0  0  0  3  0  0  0  0  0  0
    7.6370  -12.8410   15.0170 C   0  0  0  0  0  3  0  0  0  0  0  0
    7.0050  -11.6400   14.7110 C   0  0  0  0  0  3  0  0  0  0  0  0
    7.5270  -10.4200   15.1610 C   0  0  0  0  0  3  0  0  0  0  0  0
    8.7110  -10.4150   15.9300 C   0  0  0  0  0  0  0  0  0  0  0  0
   11.0390  -12.0850   17.3670 H   0  0  0  0  0  0  0  0  0  0  0  0
  1 19  1  0  0  0  0
  2  7  1  0  0  0  0
  3  2  2  0  0  0  0
  3  4  1  0  0  0  0
  4  5  2  0  0  0  0
  5  6  1  0  0  0  0
  6  1  1  0  0  0  0
  7  6  2  0  0  0  0
  8  9  1  0  0  0  0
  9 17  1  0  0  0  0
 10  9  2  0  0  0  0
 10 11  1  0  0  0  0
 11 18  1  0  0  0  0
 11 12  1  0  0  0  0
 12 13  1  0  0  0  0
 13 14  2  0  0  0  0
 15 14  1  0  0  0  0
 15  2  1  0  0  0  0
 16 15  2  0  0  0  0
 17 12  2  0  0  0  0
 17 16  1  0  0  0  0
 20 19  1  1  0  0  0
 20 21  1  0  0  0  0
 20 25  1  0  0  0  0
 21 23  1  0  0  0  0
 21 22  1  0  0  0  0
 24 21  1  0  0  0  0
 25 26  1  0  0  0  0
 26 27  2  0  0  0  0
 28 27  1  0  0  0  0
 28 35  1  0  0  0  0
 29 28  1  0  0  0  0
 30 29  2  0  0  0  0
 31 30  1  0  0  0  0
 32 31  2  0  0  0  0
 32 33  1  0  0  0  0
 33 34  2  0  0  0  0
 34 29  1  0  0  0  0
 34 26  1  0  0  0  0
M  END
>  <minimizedAffinity>
-10.805335

$$$$

 OpenBabel11232418483D

 35 39  0  0  1  0  0  0  0  0999 V2000
    7.1020   -3.1080   12.8390 O   0  0  0  0  0  0  0  0  0  0  0  0
    6.6400   -2.4160    9.2110 C   0  0  0  0  0  0  0  0  0  0  0  0
    6.6570   -1.0290    9.3320 C   0  0  0  0  0  3  0  0  0  0  0  0
    6.8360   -0.3770   10.5020 N   0  0  0  0  0  0  0  0  0  0  0  0
    7.0230   -1.1350   11.6040 C   0  0  0  0  0  3  0  0  0  0  0  0
    7.0040   -2.5250   11.6100 C   0  0  0  0  0  0  0  0  0  0  0  0
    6.8290   -3.1660   10.3860 C   0  0  0  0  0  3  0  0  0  0  0  0
    6.6780   -7.6740    6.8140 C   0  0  0  0  0  1  0  0  0  0  0  0
    6.3820   -6.4280    6.0670 C   0  0  0  0  0  0  0  0  0  0  0  0
    6.1210   -6.4760    4.7560 N   0  0  0  0  0  0  0  0  0  0  0  0
    5.8880   -5.1950    4.4220 N   0  0  0  0  0  0  0  0  0  0  0  0
    6.0140   -4.3150    5.4660 C   0  0  0  0  0  0  0  0  0  0  0  0
    5.8660   -2.9290    5.5350 C   0  0  0  0  0  3  0  0  0  0  0  0
    6.0700   -2.3270    6.7850 C   0  0  0  0  0  3  0  0  0  0  0  0
    6.4100   -3.0750    7.9220 C   0  0  0  0  0  0  0  0  0  0  0  0
    6.5360   -4.4740    7.8120 C   0  0  0  0  0  3  0  0  0  0  0  0
    6.3400   -5.0980    6.5640 C   0  0  0  0  0  0  0  0  0  0  0  0
    5.6490   -4.9860    3.4590 H   0  0  0  0  0  0  0  0  0  0  0  0
    8.3650   -3.5730   13.3270 C   0  0  0  0  0  2  0  0  0  0  0  0
    8.3450   -5.1100   13.4660 C   0  0  1  0  0  3  0  0  0  0  0  0
    6.9600   -5.6330   13.1880 N   0  0  0  0  0  4  0  0  0  0  0  0
    6.6470   -5.4500   12.2270 H   0  0  0  0  0  0  0  0  0  0  0  0
    6.8950   -6.6440   13.3640 H   0  0  0  0  0  0  0  0  0  0  0  0
    6.2870   -5.1770   13.8230 H   0  0  0  0  0  0  0  0  0  0  0  0
    9.3380   -5.8070   12.5240 C   0  0  0  0  0  2  0  0  0  0  0  0
    9.3810   -7.2810   12.7460 C   0  0  0  0  0  0  0  0  0  0  0  0
    9.0420   -8.2450   11.8160 C   0  0  0  0  0  3  0  0  0  0  0  0
    9.2130   -9.4770   12.3910 N   0  0  0  0  0  0  0  0  0  0  0  0
    9.6490   -9.3360   13.6860 C   0  0  0  0  0  0  0  0  0  0  0  0
    9.9470  -10.3170   14.6390 C   0  0  0  0  0  3  0  0  0  0  0  0
   10.3940   -9.8880   15.8900 C   0  0  0  0  0  3  0  0  0  0  0  0
   10.5400   -8.5340   16.1720 C   0  0  0  0  0  3  0  0  0  0  0  0
   10.2380   -7.5640   15.2080 C   0  0  0  0  0  3  0  0  0  0  0  0
    9.7780   -7.9710   13.9370 C   0  0  0  0  0  0  0  0  0  0  0  0
    9.0530  -10.3670   11.9350 H   0  0  0  0  0  0  0  0  0  0  0  0
  1 19  1  0  0  0  0
  2  3  2  0  0  0  0
  2  7  1  0  0  0  0
  3  4  1  0  0  0  0
  4  5  2  0  0  0  0
  5  6  1  0  0  0  0
  6  1  1  0  0  0  0
  7  6  2  0  0  0  0
  9 17  1  0  0  0  0
  9  8  1  0  0  0  0
 10  9  2  0  0  0  0
 11 10  1  0  0  0  0
 11 12  1  0  0  0  0
 12 13  2  0  0  0  0
 12 17  1  0  0  0  0
 13 14  1  0  0  0  0
 14 15  2  0  0  0  0
 15  2  1  0  0  0  0
 16 15  1  0  0  0  0
 17 16  2  0  0  0  0
 18 11  1  0  0  0  0
 19 20  1  0  0  0  0
 20 25  1  6  0  0  0
 21 23  1  0  0  0  0
 21 20  1  0  0  0  0
 21 24  1  0  0  0  0
 22 21  1  0  0  0  0
 25 26  1  0  0  0  0
 26 34  1  0  0  0  0
 27 28  1  0  0  0  0
 27 26  2  0  0  0  0
 28 29  1  0  0  0  0
 29 34  2  0  0  0  0
 29 30  1  0  0  0  0
 30 31  2  0  0  0  0
 31 32  1  0  0  0  0
 33 32  2  0  0  0  0
 34 33  1  0  0  0  0
 35 28  1  0  0  0  0
M  END
>  <minimizedAffinity>
-10.6808834

$$$$

 OpenBabel11232418483D

 35 39  0  0  1  0  0  0  0  0999 V2000
    9.2340   -5.9180   14.5010 O   0  0  0  0  0  0  0  0  0  0  0  0
    7.1020   -5.8430   11.4500 C   0  0  0  0  0  0  0  0  0  0  0  0
    6.4330   -7.0340   11.7200 C   0  0  0  0  0  3  0  0  0  0  0  0
    6.6440   -7.7820   12.8260 N   0  0  0  0  0  0  0  0  0  0  0  0
    7.5480   -7.3210   13.7150 C   0  0  0  0  0  3  0  0  0  0  0  0
    8.2920   -6.1580   13.5440 C   0  0  0  0  0  0  0  0  0  0  0  0
    8.0430   -5.4050   12.4000 C   0  0  0  0  0  3  0  0  0  0  0  0
    6.7020   -0.3940    9.5670 C   0  0  0  0  0  1  0  0  0  0  0  0
    6.5190   -1.5840    8.7000 C   0  0  0  0  0  0  0  0  0  0  0  0
    6.2250   -1.4320    7.4040 N   0  0  0  0  0  0  0  0  0  0  0  0
    6.1500   -2.6900    6.9370 N   0  0  0  0  0  0  0  0  0  0  0  0
    6.3590   -3.6520    7.8900 C   0  0  0  0  0  0  0  0  0  0  0  0
    6.3600   -5.0460    7.8180 C   0  0  0  0  0  3  0  0  0  0  0  0
    6.6150   -5.7460    9.0060 C   0  0  0  0  0  3  0  0  0  0  0  0
    6.8610   -5.0850   10.2190 C   0  0  0  0  0  0  0  0  0  0  0  0
    6.8640   -3.6760   10.2450 C   0  0  0  0  0  3  0  0  0  0  0  0
    6.6050   -2.9540    9.0640 C   0  0  0  0  0  0  0  0  0  0  0  0
    5.9490   -2.8250    5.9520 H   0  0  0  0  0  0  0  0  0  0  0  0
    9.2480   -6.6760   15.7160 C   0  0  0  0  0  2  0  0  0  0  0  0
   10.6960   -7.0710   16.0760 C   0  0  1  0  0  3  0  0  0  0  0  0
   11.5460   -5.8350   16.2130 N   0  0  0  0  0  4  0  0  0  0  0  0
   11.2410   -5.2190   16.9770 H   0  0  0  0  0  0  0  0  0  0  0  0
   12.5360   -6.0700   16.3610 H   0  0  0  0  0  0  0  0  0  0  0  0
   11.5000   -5.2870   15.3390 H   0  0  0  0  0  0  0  0  0  0  0  0
   10.7860   -7.8820   17.3770 C   0  0  0  0  0  2  0  0  0  0  0  0
   11.0900   -9.3190   17.1190 C   0  0  0  0  0  0  0  0  0  0  0  0
   12.3130   -9.9320   17.3150 C   0  0  0  0  0  3  0  0  0  0  0  0
   12.1950  -11.2520   16.9700 N   0  0  0  0  0  0  0  0  0  0  0  0
   10.9160  -11.5150   16.5420 C   0  0  0  0  0  0  0  0  0  0  0  0
   10.3530  -12.7150   16.0940 C   0  0  0  0  0  3  0  0  0  0  0  0
    9.0050  -12.7030   15.7330 C   0  0  0  0  0  3  0  0  0  0  0  0
    8.2520  -11.5360   15.8200 C   0  0  0  0  0  3  0  0  0  0  0  0
    8.8290  -10.3420   16.2710 C   0  0  0  0  0  3  0  0  0  0  0  0
   10.1930  -10.3260   16.6360 C   0  0  0  0  0  0  0  0  0  0  0  0
   12.9330  -11.9440   17.0260 H   0  0  0  0  0  0  0  0  0  0  0  0
  1 19  1  0  0  0  0
  2  3  2  0  0  0  0
  2  7  1  0  0  0  0
  3  4  1  0  0  0  0
  4  5  2  0  0  0  0
  6  5  1  0  0  0  0
  6  1  1  0  0  0  0
  7  6  2  0  0  0  0
  9 17  1  0  0  0  0
  9  8  1  0  0  0  0
 10  9  2  0  0  0  0
 11 10  1  0  0  0  0
 11 12  1  0  0  0  0
 12 17  1  0  0  0  0
 13 12  2  0  0  0  0
 13 14  1  0  0  0  0
 14 15  2  0  0  0  0
 15 16  1  0  0  0  0
 15  2  1  0  0  0  0
 17 16  2  0  0  0  0
 18 11  1  0  0  0  0
 20 19  1  1  0  0  0
 20 21  1  0  0  0  0
 20 25  1  0  0  0  0
 21 23  1  0  0  0  0
 21 22  1  0  0  0  0
 24 21  1  0  0  0  0
 26 27  2  0  0  0  0
 26 25  1  0  0  0  0
 28 35  1  0  0  0  0
 28 27  1  0  0  0  0
 29 34  1  0  0  0  0
 29 28  1  0  0  0  0
 30 29  2  0  0  0  0
 31 32  2  0  0  0  0
 31 30  1  0  0  0  0
 32 33  1  0  0  0  0
 33 34  2  0  0  0  0
 34 26  1  0  0  0  0
M  END
>  <minimizedAffinity>
-10.647646

$$$$

 OpenBabel11232418483D

 35 39  0  0  1  0  0  0  0  0999 V2000
    8.2000   -7.3740   12.9360 O   0  0  0  0  0  0  0  0  0  0  0  0
    7.0720   -4.9410   10.3570 C   0  0  0  0  0  0  0  0  0  0  0  0
    6.7490   -5.8960    9.3970 C   0  0  0  0  0  3  0  0  0  0  0  0
    6.8640   -7.2290    9.5930 N   0  0  0  0  0  0  0  0  0  0  0  0
    7.3040   -7.6350   10.8020 C   0  0  0  0  0  3  0  0  0  0  0  0
    7.6770   -6.7750   11.8290 C   0  0  0  0  0  0  0  0  0  0  0  0
    7.5350   -5.4090   11.5990 C   0  0  0  0  0  3  0  0  0  0  0  0
    7.8250    0.1710   12.9440 C   0  0  0  0  0  1  0  0  0  0  0  0
    7.3500    0.0140   11.5480 C   0  0  0  0  0  0  0  0  0  0  0  0
    7.0500    1.0920   10.8150 N   0  0  0  0  0  0  0  0  0  0  0  0
    6.6790    0.5850    9.6270 N   0  0  0  0  0  0  0  0  0  0  0  0
    6.7040   -0.7840    9.5720 C   0  0  0  0  0  0  0  0  0  0  0  0
    6.3920   -1.6790    8.5470 C   0  0  0  0  0  3  0  0  0  0  0  0
    6.5290   -3.0450    8.8280 C   0  0  0  0  0  3  0  0  0  0  0  0
    6.9600   -3.5050   10.0830 C   0  0  0  0  0  0  0  0  0  0  0  0
    7.2780   -2.5680   11.0860 C   0  0  0  0  0  3  0  0  0  0  0  0
    7.1420   -1.1910   10.8240 C   0  0  0  0  0  0  0  0  0  0  0  0
    6.4170    1.2310    8.8910 H   0  0  0  0  0  0  0  0  0  0  0  0
    9.6180   -7.4860   13.1040 C   0  0  0  0  0  2  0  0  0  0  0  0
    9.9390   -8.4060   14.3010 C   0  0  1  0  0  3  0  0  0  0  0  0
   10.7270   -7.6460   15.3360 N   0  0  0  0  0  4  0  0  0  0  0  0
   10.2050   -6.8580   15.7400 H   0  0  0  0  0  0  0  0  0  0  0  0
   11.0340   -8.2590   16.1020 H   0  0  0  0  0  0  0  0  0  0  0  0
   11.5800   -7.2610   14.9030 H   0  0  0  0  0  0  0  0  0  0  0  0
    8.6790   -8.9850   14.9610 C   0  0  0  0  0  2  0  0  0  0  0  0
    8.8920  -10.3790   15.4480 C   0  0  0  0  0  0  0  0  0  0  0  0
    9.4580  -10.7320   16.6580 C   0  0  0  0  0  3  0  0  0  0  0  0
    9.4800  -12.0990   16.7420 N   0  0  0  0  0  0  0  0  0  0  0  0
    8.9460  -12.6490   15.6030 C   0  0  0  0  0  0  0  0  0  0  0  0
    8.7730  -13.9940   15.2570 C   0  0  0  0  0  3  0  0  0  0  0  0
    8.1780  -14.2750   14.0260 C   0  0  0  0  0  3  0  0  0  0  0  0
    7.7700  -13.2500   13.1780 C   0  0  0  0  0  3  0  0  0  0  0  0
    7.9490  -11.9080   13.5380 C   0  0  0  0  0  3  0  0  0  0  0  0
    8.5540  -11.5970   14.7750 C   0  0  0  0  0  0  0  0  0  0  0  0
    9.8280  -12.6350   17.5270 H   0  0  0  0  0  0  0  0  0  0  0  0
  1 19  1  0  0  0  0
  2  7  1  0  0  0  0
  3  4  1  0  0  0  0
  3  2  2  0  0  0  0
  4  5  2  0  0  0  0
  5  6  1  0  0  0  0
  6  1  1  0  0  0  0
  7  6  2  0  0  0  0
  9  8  1  0  0  0  0
 10  9  2  0  0  0  0
 11 10  1  0  0  0  0
 12 11  1  0  0  0  0
 12 17  1  0  0  0  0
 13 14  1  0  0  0  0
 13 12  2  0  0  0  0
 14 15  2  0  0  0  0
 15  2  1  0  0  0  0
 15 16  1  0  0  0  0
 17 16  2  0  0  0  0
 17  9  1  0  0  0  0
 18 11  1  0  0  0  0
 20 19  1  6  0  0  0
 20 25  1  0  0  0  0
 20 21  1  0  0  0  0
 21 22  1  0  0  0  0
 21 23  1  0  0  0  0
 24 21  1  0  0  0  0
 25 26  1  0  0  0  0
 26 27  2  0  0  0  0
 27 28  1  0  0  0  0
 28 35  1  0  0  0  0
 29 28  1  0  0  0  0
 30 29  1  0  0  0  0
 31 30  2  0  0  0  0
 32 33  2  0  0  0  0
 32 31  1  0  0  0  0
 33 34  1  0  0  0  0
 34 26  1  0  0  0  0
 34 29  2  0  0  0  0
M  END
>  <minimizedAffinity>
-10.6317291

$$$$
