
 OpenBabel11232418483D

 35 39  0  0  1  0  0  0  0  0999 V2000
    8.8300   -6.9380   12.9210 O   0  0  0  0  0  0  0  0  0  0  0  0
    7.1050   -7.8870    9.7630 C   0  0  0  0  0  0  0  0  0  0  0  0
    6.2400   -8.8070   10.3490 C   0  0  0  0  0  3  0  0  0  0  0  0
    6.2070   -9.0710   11.6740 N   0  0  0  0  0  0  0  0  0  0  0  0
    7.0590   -8.3780   12.4590 C   0  0  0  0  0  3  0  0  0  0  0  0
    7.9820   -7.4520   11.9860 C   0  0  0  0  0  0  0  0  0  0  0  0
    7.9830   -7.1950   10.6170 C   0  0  0  0  0  3  0  0  0  0  0  0
    6.9960  -10.8180    4.7840 C   0  0  0  0  0  1  0  0  0  0  0  0
    7.0900   -9.3410    4.8710 C   0  0  0  0  0  0  0  0  0  0  0  0
    7.1750   -8.6060    3.7560 N   0  0  0  0  0  0  0  0  0  0  0  0
    7.2270   -7.3400    4.2030 N   0  0  0  0  0  0  0  0  0  0  0  0
    7.2040   -7.2290    5.5690 C   0  0  0  0  0  0  0  0  0  0  0  0
    7.2470   -6.1170    6.4120 C   0  0  0  0  0  3  0  0  0  0  0  0
    7.2060   -6.3600    7.7920 C   0  0  0  0  0  3  0  0  0  0  0  0
    7.1240   -7.6610    8.3150 C   0  0  0  0  0  0  0  0  0  0  0  0
    7.0690   -8.7550    7.4280 C   0  0  0  0  0  3  0  0  0  0  0  0
    7.1150   -8.5320    6.0390 C   0  0  0  0  0  0  0  0  0  0  0  0
    7.2790   -6.5920    3.5210 H   0  0  0  0  0  0  0  0  0  0  0  0
    8.3490   -6.0380   13.9250 C   0  0  0  0  0  2  0  0  0  0  0  0
    8.3170   -4.5970   13.3720 C   0  0  1  0  0  3  0  0  0  0  0  0
    9.4280   -4.4050   12.3740 N   0  0  0  0  0  4  0  0  0  0  0  0
    9.3340   -5.0080   11.5470 H   0  0  0  0  0  0  0  0  0  0  0  0
    9.4890   -3.4290   12.0570 H   0  0  0  0  0  0  0  0  0  0  0  0
   10.3320   -4.6300   12.8180 H   0  0  0  0  0  0  0  0  0  0  0  0
    6.9800   -4.2450   12.7030 C   0  0  0  0  0  2  0  0  0  0  0  0
    7.0280   -2.9210   12.0190 C   0  0  0  0  0  0  0  0  0  0  0  0
    7.3290   -1.7140   12.6200 C   0  0  0  0  0  3  0  0  0  0  0  0
    7.2720   -0.7310   11.6670 N   0  0  0  0  0  0  0  0  0  0  0  0
    6.9290   -1.2720   10.4520 C   0  0  0  0  0  0  0  0  0  0  0  0
    6.7530   -0.6460    9.2130 C   0  0  0  0  0  3  0  0  0  0  0  0
    6.4160   -1.4500    8.1230 C   0  0  0  0  0  3  0  0  0  0  0  0
    6.2670   -2.8260    8.2680 C   0  0  0  0  0  3  0  0  0  0  0  0
    6.4470   -3.4390    9.5150 C   0  0  0  0  0  3  0  0  0  0  0  0
    6.7810   -2.6470   10.6350 C   0  0  0  0  0  0  0  0  0  0  0  0
    7.4630    0.2510   11.8220 H   0  0  0  0  0  0  0  0  0  0  0  0
  1 19  1  0  0  0  0
  2  3  2  0  0  0  0
  2  7  1  0  0  0  0
  3  4  1  0  0  0  0
  4  5  2  0  0  0  0
  6  5  1  0  0  0  0
  6  1  1  0  0  0  0
  7  6  2  0  0  0  0
  8  9  1  0  0  0  0
  9 17  1  0  0  0  0
 10 11  1  0  0  0  0
 10  9  2  0  0  0  0
 11 12  1  0  0  0  0
 12 17  2  0  0  0  0
 12 13  1  0  0  0  0
 13 14  2  0  0  0  0
 14 15  1  0  0  0  0
 15  2  1  0  0  0  0
 16 15  2  0  0  0  0
 17 16  1  0  0  0  0
 18 11  1  0  0  0  0
 20 25  1  6  0  0  0
 20 19  1  0  0  0  0
 21 24  1  0  0  0  0
 21 20  1  0  0  0  0
 22 21  1  0  0  0  0
 23 21  1  0  0  0  0
 26 27  2  0  0  0  0
 26 25  1  0  0  0  0
 28 35  1  0  0  0  0
 28 27  1  0  0  0  0
 29 34  1  0  0  0  0
 29 28  1  0  0  0  0
 30 29  2  0  0  0  0
 31 32  2  0  0  0  0
 31 30  1  0  0  0  0
 32 33  1  0  0  0  0
 33 34  2  0  0  0  0
 34 26  1  0  0  0  0
M  END
>  <minimizedAffinity>
-11.1450911

$$$$
