
 OpenBabel11232418483D

 35 39  0  0  1  0  0  0  0  0999 V2000
    8.2000   -7.3740   12.9360 O   0  0  0  0  0  0  0  0  0  0  0  0
    7.0720   -4.9410   10.3570 C   0  0  0  0  0  0  0  0  0  0  0  0
    6.7490   -5.8960    9.3970 C   0  0  0  0  0  3  0  0  0  0  0  0
    6.8640   -7.2290    9.5930 N   0  0  0  0  0  0  0  0  0  0  0  0
    7.3040   -7.6350   10.8020 C   0  0  0  0  0  3  0  0  0  0  0  0
    7.6770   -6.7750   11.8290 C   0  0  0  0  0  0  0  0  0  0  0  0
    7.5350   -5.4090   11.5990 C   0  0  0  0  0  3  0  0  0  0  0  0
    7.8250    0.1710   12.9440 C   0  0  0  0  0  1  0  0  0  0  0  0
    7.3500    0.0140   11.5480 C   0  0  0  0  0  0  0  0  0  0  0  0
    7.0500    1.0920   10.8150 N   0  0  0  0  0  0  0  0  0  0  0  0
    6.6790    0.5850    9.6270 N   0  0  0  0  0  0  0  0  0  0  0  0
    6.7040   -0.7840    9.5720 C   0  0  0  0  0  0  0  0  0  0  0  0
    6.3920   -1.6790    8.5470 C   0  0  0  0  0  3  0  0  0  0  0  0
    6.5290   -3.0450    8.8280 C   0  0  0  0  0  3  0  0  0  0  0  0
    6.9600   -3.5050   10.0830 C   0  0  0  0  0  0  0  0  0  0  0  0
    7.2780   -2.5680   11.0860 C   0  0  0  0  0  3  0  0  0  0  0  0
    7.1420   -1.1910   10.8240 C   0  0  0  0  0  0  0  0  0  0  0  0
    6.4170    1.2310    8.8910 H   0  0  0  0  0  0  0  0  0  0  0  0
    9.6180   -7.4860   13.1040 C   0  0  0  0  0  2  0  0  0  0  0  0
    9.9390   -8.4060   14.3010 C   0  0  1  0  0  3  0  0  0  0  0  0
   10.7270   -7.6460   15.3360 N   0  0  0  0  0  4  0  0  0  0  0  0
   10.2050   -6.8580   15.7400 H   0  0  0  0  0  0  0  0  0  0  0  0
   11.0340   -8.2590   16.1020 H   0  0  0  0  0  0  0  0  0  0  0  0
   11.5800   -7.2610   14.9030 H   0  0  0  0  0  0  0  0  0  0  0  0
    8.6790   -8.9850   14.9610 C   0  0  0  0  0  2  0  0  0  0  0  0
    8.8920  -10.3790   15.4480 C   0  0  0  0  0  0  0  0  0  0  0  0
    9.4580  -10.7320   16.6580 C   0  0  0  0  0  3  0  0  0  0  0  0
    9.4800  -12.0990   16.7420 N   0  0  0  0  0  0  0  0  0  0  0  0
    8.9460  -12.6490   15.6030 C   0  0  0  0  0  0  0  0  0  0  0  0
    8.7730  -13.9940   15.2570 C   0  0  0  0  0  3  0  0  0  0  0  0
    8.1780  -14.2750   14.0260 C   0  0  0  0  0  3  0  0  0  0  0  0
    7.7700  -13.2500   13.1780 C   0  0  0  0  0  3  0  0  0  0  0  0
    7.9490  -11.9080   13.5380 C   0  0  0  0  0  3  0  0  0  0  0  0
    8.5540  -11.5970   14.7750 C   0  0  0  0  0  0  0  0  0  0  0  0
    9.8280  -12.6350   17.5270 H   0  0  0  0  0  0  0  0  0  0  0  0
  1 19  1  0  0  0  0
  2  7  1  0  0  0  0
  3  4  1  0  0  0  0
  3  2  2  0  0  0  0
  4  5  2  0  0  0  0
  5  6  1  0  0  0  0
  6  1  1  0  0  0  0
  7  6  2  0  0  0  0
  9  8  1  0  0  0  0
 10  9  2  0  0  0  0
 11 10  1  0  0  0  0
 12 11  1  0  0  0  0
 12 17  1  0  0  0  0
 13 14  1  0  0  0  0
 13 12  2  0  0  0  0
 14 15  2  0  0  0  0
 15  2  1  0  0  0  0
 15 16  1  0  0  0  0
 17 16  2  0  0  0  0
 17  9  1  0  0  0  0
 18 11  1  0  0  0  0
 20 19  1  6  0  0  0
 20 25  1  0  0  0  0
 20 21  1  0  0  0  0
 21 22  1  0  0  0  0
 21 23  1  0  0  0  0
 24 21  1  0  0  0  0
 25 26  1  0  0  0  0
 26 27  2  0  0  0  0
 27 28  1  0  0  0  0
 28 35  1  0  0  0  0
 29 28  1  0  0  0  0
 30 29  1  0  0  0  0
 31 30  2  0  0  0  0
 32 33  2  0  0  0  0
 32 31  1  0  0  0  0
 33 34  1  0  0  0  0
 34 26  1  0  0  0  0
 34 29  2  0  0  0  0
M  END
>  <minimizedAffinity>
-10.6317291

$$$$
