
 OpenBabel11232418483D

 35 39  0  0  1  0  0  0  0  0999 V2000
    9.2340   -5.9180   14.5010 O   0  0  0  0  0  0  0  0  0  0  0  0
    7.1020   -5.8430   11.4500 C   0  0  0  0  0  0  0  0  0  0  0  0
    6.4330   -7.0340   11.7200 C   0  0  0  0  0  3  0  0  0  0  0  0
    6.6440   -7.7820   12.8260 N   0  0  0  0  0  0  0  0  0  0  0  0
    7.5480   -7.3210   13.7150 C   0  0  0  0  0  3  0  0  0  0  0  0
    8.2920   -6.1580   13.5440 C   0  0  0  0  0  0  0  0  0  0  0  0
    8.0430   -5.4050   12.4000 C   0  0  0  0  0  3  0  0  0  0  0  0
    6.7020   -0.3940    9.5670 C   0  0  0  0  0  1  0  0  0  0  0  0
    6.5190   -1.5840    8.7000 C   0  0  0  0  0  0  0  0  0  0  0  0
    6.2250   -1.4320    7.4040 N   0  0  0  0  0  0  0  0  0  0  0  0
    6.1500   -2.6900    6.9370 N   0  0  0  0  0  0  0  0  0  0  0  0
    6.3590   -3.6520    7.8900 C   0  0  0  0  0  0  0  0  0  0  0  0
    6.3600   -5.0460    7.8180 C   0  0  0  0  0  3  0  0  0  0  0  0
    6.6150   -5.7460    9.0060 C   0  0  0  0  0  3  0  0  0  0  0  0
    6.8610   -5.0850   10.2190 C   0  0  0  0  0  0  0  0  0  0  0  0
    6.8640   -3.6760   10.2450 C   0  0  0  0  0  3  0  0  0  0  0  0
    6.6050   -2.9540    9.0640 C   0  0  0  0  0  0  0  0  0  0  0  0
    5.9490   -2.8250    5.9520 H   0  0  0  0  0  0  0  0  0  0  0  0
    9.2480   -6.6760   15.7160 C   0  0  0  0  0  2  0  0  0  0  0  0
   10.6960   -7.0710   16.0760 C   0  0  1  0  0  3  0  0  0  0  0  0
   11.5460   -5.8350   16.2130 N   0  0  0  0  0  4  0  0  0  0  0  0
   11.2410   -5.2190   16.9770 H   0  0  0  0  0  0  0  0  0  0  0  0
   12.5360   -6.0700   16.3610 H   0  0  0  0  0  0  0  0  0  0  0  0
   11.5000   -5.2870   15.3390 H   0  0  0  0  0  0  0  0  0  0  0  0
   10.7860   -7.8820   17.3770 C   0  0  0  0  0  2  0  0  0  0  0  0
   11.0900   -9.3190   17.1190 C   0  0  0  0  0  0  0  0  0  0  0  0
   12.3130   -9.9320   17.3150 C   0  0  0  0  0  3  0  0  0  0  0  0
   12.1950  -11.2520   16.9700 N   0  0  0  0  0  0  0  0  0  0  0  0
   10.9160  -11.5150   16.5420 C   0  0  0  0  0  0  0  0  0  0  0  0
   10.3530  -12.7150   16.0940 C   0  0  0  0  0  3  0  0  0  0  0  0
    9.0050  -12.7030   15.7330 C   0  0  0  0  0  3  0  0  0  0  0  0
    8.2520  -11.5360   15.8200 C   0  0  0  0  0  3  0  0  0  0  0  0
    8.8290  -10.3420   16.2710 C   0  0  0  0  0  3  0  0  0  0  0  0
   10.1930  -10.3260   16.6360 C   0  0  0  0  0  0  0  0  0  0  0  0
   12.9330  -11.9440   17.0260 H   0  0  0  0  0  0  0  0  0  0  0  0
  1 19  1  0  0  0  0
  2  3  2  0  0  0  0
  2  7  1  0  0  0  0
  3  4  1  0  0  0  0
  4  5  2  0  0  0  0
  6  5  1  0  0  0  0
  6  1  1  0  0  0  0
  7  6  2  0  0  0  0
  9 17  1  0  0  0  0
  9  8  1  0  0  0  0
 10  9  2  0  0  0  0
 11 10  1  0  0  0  0
 11 12  1  0  0  0  0
 12 17  1  0  0  0  0
 13 12  2  0  0  0  0
 13 14  1  0  0  0  0
 14 15  2  0  0  0  0
 15 16  1  0  0  0  0
 15  2  1  0  0  0  0
 17 16  2  0  0  0  0
 18 11  1  0  0  0  0
 20 19  1  1  0  0  0
 20 21  1  0  0  0  0
 20 25  1  0  0  0  0
 21 23  1  0  0  0  0
 21 22  1  0  0  0  0
 24 21  1  0  0  0  0
 26 27  2  0  0  0  0
 26 25  1  0  0  0  0
 28 35  1  0  0  0  0
 28 27  1  0  0  0  0
 29 34  1  0  0  0  0
 29 28  1  0  0  0  0
 30 29  2  0  0  0  0
 31 32  2  0  0  0  0
 31 30  1  0  0  0  0
 32 33  1  0  0  0  0
 33 34  2  0  0  0  0
 34 26  1  0  0  0  0
M  END
>  <minimizedAffinity>
-10.647646

$$$$
