
 OpenBabel11232418483D

 35 39  0  0  1  0  0  0  0  0999 V2000
    7.3220   -8.1940   10.5900 O   0  0  0  0  0  0  0  0  0  0  0  0
    6.8290   -5.0730    8.6230 C   0  0  0  0  0  0  0  0  0  0  0  0
    6.9130   -5.6820    7.3740 C   0  0  0  0  0  3  0  0  0  0  0  0
    7.0870   -7.0100    7.1940 N   0  0  0  0  0  0  0  0  0  0  0  0
    7.1650   -7.7750    8.3040 C   0  0  0  0  0  3  0  0  0  0  0  0
    7.1160   -7.2770    9.6020 C   0  0  0  0  0  0  0  0  0  0  0  0
    6.9250   -5.9060    9.7520 C   0  0  0  0  0  3  0  0  0  0  0  0
    7.3860   -0.8840   12.5650 C   0  0  0  0  0  1  0  0  0  0  0  0
    6.9310   -0.6530   11.1730 C   0  0  0  0  0  0  0  0  0  0  0  0
    6.6040    0.5790   10.7680 N   0  0  0  0  0  0  0  0  0  0  0  0
    6.2630    0.4200    9.4780 N   0  0  0  0  0  0  0  0  0  0  0  0
    6.3340   -0.8770    9.0390 C   0  0  0  0  0  0  0  0  0  0  0  0
    6.0620   -1.4530    7.7970 C   0  0  0  0  0  3  0  0  0  0  0  0
    6.2410   -2.8390    7.6830 C   0  0  0  0  0  3  0  0  0  0  0  0
    6.6730   -3.6230    8.7640 C   0  0  0  0  0  0  0  0  0  0  0  0
    6.9490   -2.9990    9.9980 C   0  0  0  0  0  3  0  0  0  0  0  0
    6.7710   -1.6090   10.1340 C   0  0  0  0  0  0  0  0  0  0  0  0
    5.9880    1.2400    8.9500 H   0  0  0  0  0  0  0  0  0  0  0  0
    6.3700   -8.3510   11.6480 C   0  0  0  0  0  2  0  0  0  0  0  0
    7.0430   -8.0740   13.0100 C   0  0  1  0  0  3  0  0  0  0  0  0
    6.6140   -9.1110   14.0150 N   0  0  0  0  0  4  0  0  0  0  0  0
    6.9090  -10.0620   13.7620 H   0  0  0  0  0  0  0  0  0  0  0  0
    6.9720   -8.8990   14.9550 H   0  0  0  0  0  0  0  0  0  0  0  0
    5.5840   -9.1160   14.0850 H   0  0  0  0  0  0  0  0  0  0  0  0
    8.5760   -8.0670   12.9270 C   0  0  0  0  0  2  0  0  0  0  0  0
    9.1970   -7.3840   14.0980 C   0  0  0  0  0  0  0  0  0  0  0  0
    9.2050   -6.0220   14.3270 C   0  0  0  0  0  3  0  0  0  0  0  0
    9.8670   -5.7850   15.5020 N   0  0  0  0  0  0  0  0  0  0  0  0
   10.3030   -6.9690   16.0440 C   0  0  0  0  0  0  0  0  0  0  0  0
   11.0200   -7.2010   17.2240 C   0  0  0  0  0  3  0  0  0  0  0  0
   11.3200   -8.5250   17.5490 C   0  0  0  0  0  3  0  0  0  0  0  0
   10.9160   -9.5730   16.7280 C   0  0  0  0  0  3  0  0  0  0  0  0
   10.1980   -9.3250   15.5500 C   0  0  0  0  0  3  0  0  0  0  0  0
    9.8880   -7.9950   15.1950 C   0  0  0  0  0  0  0  0  0  0  0  0
   10.0130   -4.8760   15.9240 H   0  0  0  0  0  0  0  0  0  0  0  0
  1 19  1  0  0  0  0
  2 15  1  0  0  0  0
  2  7  1  0  0  0  0
  3  2  2  0  0  0  0
  4  3  1  0  0  0  0
  4  5  2  0  0  0  0
  5  6  1  0  0  0  0
  6  7  2  0  0  0  0
  6  1  1  0  0  0  0
  9  8  1  0  0  0  0
 10  9  2  0  0  0  0
 11 10  1  0  0  0  0
 12 11  1  0  0  0  0
 12 17  1  0  0  0  0
 13 12  2  0  0  0  0
 14 13  1  0  0  0  0
 14 15  2  0  0  0  0
 15 16  1  0  0  0  0
 16 17  2  0  0  0  0
 17  9  1  0  0  0  0
 18 11  1  0  0  0  0
 20 19  1  6  0  0  0
 20 21  1  0  0  0  0
 21 24  1  0  0  0  0
 21 23  1  0  0  0  0
 22 21  1  0  0  0  0
 25 20  1  0  0  0  0
 25 26  1  0  0  0  0
 26 27  2  0  0  0  0
 26 34  1  0  0  0  0
 27 28  1  0  0  0  0
 28 35  1  0  0  0  0
 28 29  1  0  0  0  0
 29 30  1  0  0  0  0
 30 31  2  0  0  0  0
 32 31  1  0  0  0  0
 33 32  2  0  0  0  0
 34 33  1  0  0  0  0
 34 29  2  0  0  0  0
M  END
>  <minimizedAffinity>
-11.4215765

$$$$
