
 OpenBabel11232418483D

 35 39  0  0  1  0  0  0  0  0999 V2000
    7.0830   -3.5820   10.5460 O   0  0  0  0  0  0  0  0  0  0  0  0
    8.2610   -6.8370   11.9120 C   0  0  0  0  0  0  0  0  0  0  0  0
    7.6760   -7.6220   10.9220 C   0  0  0  0  0  3  0  0  0  0  0  0
    6.9790   -7.1210    9.8770 N   0  0  0  0  0  0  0  0  0  0  0  0
    6.8700   -5.7780    9.8010 C   0  0  0  0  0  3  0  0  0  0  0  0
    7.3920   -4.8950   10.7400 C   0  0  0  0  0  0  0  0  0  0  0  0
    8.1140   -5.4430   11.7980 C   0  0  0  0  0  3  0  0  0  0  0  0
   10.5080   -5.3880   17.0350 C   0  0  0  0  0  1  0  0  0  0  0  0
   10.5760   -6.7530   16.4590 C   0  0  0  0  0  0  0  0  0  0  0  0
   11.2000   -7.7320   17.1240 N   0  0  0  0  0  0  0  0  0  0  0  0
   11.0540   -8.8080   16.3320 N   0  0  0  0  0  0  0  0  0  0  0  0
   10.3790   -8.5550   15.1670 C   0  0  0  0  0  0  0  0  0  0  0  0
   10.0310   -9.3810   14.0960 C   0  0  0  0  0  3  0  0  0  0  0  0
    9.3260   -8.7920   13.0380 C   0  0  0  0  0  3  0  0  0  0  0  0
    8.9790   -7.4320   13.0430 C   0  0  0  0  0  0  0  0  0  0  0  0
    9.3370   -6.6360   14.1490 C   0  0  0  0  0  3  0  0  0  0  0  0
   10.0500   -7.2080   15.2210 C   0  0  0  0  0  0  0  0  0  0  0  0
   11.4420   -9.6910   16.6460 H   0  0  0  0  0  0  0  0  0  0  0  0
    6.2670   -3.1810    9.4400 C   0  0  0  0  0  2  0  0  0  0  0  0
    6.7030   -1.7870    8.9380 C   0  0  1  0  0  3  0  0  0  0  0  0
    6.3700   -1.6410    7.4760 N   0  0  0  0  0  4  0  0  0  0  0  0
    5.3620   -1.6880    7.2860 H   0  0  0  0  0  0  0  0  0  0  0  0
    6.7320   -0.7590    7.0920 H   0  0  0  0  0  0  0  0  0  0  0  0
    6.8200   -2.4030    6.9440 H   0  0  0  0  0  0  0  0  0  0  0  0
    6.0400   -0.6410    9.7160 C   0  0  0  0  0  2  0  0  0  0  0  0
    6.9660   -0.0330   10.7140 C   0  0  0  0  0  0  0  0  0  0  0  0
    7.8800    0.9710   10.4590 C   0  0  0  0  0  3  0  0  0  0  0  0
    8.5410    1.2600   11.6240 N   0  0  0  0  0  0  0  0  0  0  0  0
    8.0820    0.4540   12.6380 C   0  0  0  0  0  0  0  0  0  0  0  0
    8.4710    0.4010   13.9810 C   0  0  0  0  0  3  0  0  0  0  0  0
    7.8160   -0.5130   14.8080 C   0  0  0  0  0  3  0  0  0  0  0  0
    6.8110   -1.3370   14.3110 C   0  0  0  0  0  3  0  0  0  0  0  0
    6.4320   -1.2710   12.9640 C   0  0  0  0  0  3  0  0  0  0  0  0
    7.0830   -0.3600   12.1040 C   0  0  0  0  0  0  0  0  0  0  0  0
    9.2580    1.9660   11.7350 H   0  0  0  0  0  0  0  0  0  0  0  0
  1  6  1  0  0  0  0
  2 15  1  0  0  0  0
  3  2  2  0  0  0  0
  4  3  1  0  0  0  0
  5  4  2  0  0  0  0
  5  6  1  0  0  0  0
  6  7  2  0  0  0  0
  7  2  1  0  0  0  0
  9  8  1  0  0  0  0
  9 10  2  0  0  0  0
 11 18  1  0  0  0  0
 11 10  1  0  0  0  0
 12 17  1  0  0  0  0
 12 11  1  0  0  0  0
 13 12  2  0  0  0  0
 14 15  2  0  0  0  0
 14 13  1  0  0  0  0
 15 16  1  0  0  0  0
 16 17  2  0  0  0  0
 17  9  1  0  0  0  0
 19  1  1  0  0  0  0
 20 19  1  1  0  0  0
 20 25  1  0  0  0  0
 21 20  1  0  0  0  0
 22 21  1  0  0  0  0
 23 21  1  0  0  0  0
 24 21  1  0  0  0  0
 25 26  1  0  0  0  0
 26 34  1  0  0  0  0
 27 26  2  0  0  0  0
 27 28  1  0  0  0  0
 28 35  1  0  0  0  0
 28 29  1  0  0  0  0
 29 30  1  0  0  0  0
 30 31  2  0  0  0  0
 32 31  1  0  0  0  0
 33 32  2  0  0  0  0
 34 29  2  0  0  0  0
 34 33  1  0  0  0  0
M  END
>  <minimizedAffinity>
-11.4825802

$$$$
