
 OpenBabel10152420033D

 34 37  0  0  0  0  0  0  0  0999 V2000
   -2.2360   -8.5720  -21.9130 C   0  0  0  0  0  0  0  0  0  0  0  0
   -2.7380   -7.6100  -22.8040 C   0  0  0  0  0  3  0  0  0  0  0  0
   -2.6090   -7.8130  -24.1680 C   0  0  0  0  0  3  0  0  0  0  0  0
   -1.9820   -8.9700  -24.6230 C   0  0  0  0  0  3  0  0  0  0  0  0
   -1.4850   -9.9530  -23.7240 C   0  0  0  0  0  0  0  0  0  0  0  0
   -0.8470  -11.1480  -24.1240 C   0  0  0  0  0  0  0  0  0  0  0  0
   -0.6500  -11.4220  -25.4730 N   0  0  0  0  0  0  0  0  0  0  0  0
   -0.3560  -12.0220  -23.2330 N   0  0  0  0  0  0  0  0  0  0  0  0
   -0.5450  -11.7420  -21.9430 C   0  0  0  0  0  3  0  0  0  0  0  0
   -1.1630  -10.6630  -21.4570 N   0  0  0  0  0  0  0  0  0  0  0  0
   -1.6110   -9.7530  -22.3380 C   0  0  0  0  0  0  0  0  0  0  0  0
   -1.3790  -11.1440  -26.1110 H   0  0  0  0  0  0  0  0  0  0  0  0
   -3.5310   -7.7060  -20.0780 N   0  0  0  0  0  0  0  0  0  0  0  0
   -2.3500   -8.2740  -20.4730 C   0  0  0  0  0  0  0  0  0  0  0  0
   -1.4250   -8.4580  -19.6940 O   0  0  0  0  0  0  0  0  0  0  0  0
   -3.6350   -7.4860  -19.0960 H   0  0  0  0  0  0  0  0  0  0  0  0
   -4.3150   -7.5650  -20.6970 H   0  0  0  0  0  0  0  0  0  0  0  0
    0.1860  -12.5330  -25.8920 C   0  0  0  0  0  2  0  0  0  0  0  0
    1.6560  -12.1900  -26.0230 C   0  0  0  0  0  0  0  0  0  0  0  0
    2.5990  -12.9590  -25.3240 C   0  0  0  0  0  3  0  0  0  0  0  0
    3.9580  -12.6500  -25.3820 C   0  0  0  0  0  3  0  0  0  0  0  0
    4.3960  -11.5520  -26.1230 C   0  0  0  0  0  3  0  0  0  0  0  0
    3.4760  -10.7470  -26.7890 C   0  0  0  0  0  0  0  0  0  0  0  0
    2.1160  -11.0830  -26.7570 C   0  0  0  0  0  3  0  0  0  0  0  0
    3.8610   -9.6860  -27.6210 N   0  0  0  0  0  0  0  0  0  0  0  0
    3.7470   -8.3370  -27.4510 C   0  0  0  0  0  0  0  0  0  0  0  0
    4.7110   -7.6300  -27.7690 O   0  0  0  0  0  0  0  0  0  0  0  0
    4.5560   -9.9310  -28.3160 H   0  0  0  0  0  0  0  0  0  0  0  0
    2.3740   -7.6800  -27.2410 C   0  0  0  0  0  3  0  0  0  0  0  0
    2.0980   -7.6060  -25.7290 C   0  0  0  0  0  2  0  0  0  0  0  0
    0.6660   -7.1630  -25.4370 C   0  0  0  0  0  2  0  0  0  0  0  0
    0.3300   -5.8450  -26.1260 C   0  0  0  0  0  2  0  0  0  0  0  0
    0.6270   -5.9000  -27.6230 C   0  0  0  0  0  2  0  0  0  0  0  0
    2.0700   -6.3350  -27.8940 C   0  0  0  0  0  2  0  0  0  0  0  0
  1 14  1  0  0  0  0
  2  1  2  0  0  0  0
  3  2  1  0  0  0  0
  4  3  2  0  0  0  0
  4  5  1  0  0  0  0
  5 11  1  0  0  0  0
  6  5  2  0  0  0  0
  6  8  1  0  0  0  0
  7  6  1  0  0  0  0
  8  9  2  0  0  0  0
  9 10  1  0  0  0  0
 11  1  1  0  0  0  0
 11 10  2  0  0  0  0
 12  7  1  0  0  0  0
 13 16  1  0  0  0  0
 14 13  1  0  0  0  0
 14 15  2  0  0  0  0
 17 13  1  0  0  0  0
 18  7  1  0  0  0  0
 19 18  1  0  0  0  0
 19 20  1  0  0  0  0
 21 20  2  0  0  0  0
 22 21  1  0  0  0  0
 23 24  1  0  0  0  0
 23 22  2  0  0  0  0
 24 19  2  0  0  0  0
 25 26  1  0  0  0  0
 25 23  1  0  0  0  0
 26 29  1  0  0  0  0
 27 26  2  0  0  0  0
 28 25  1  0  0  0  0
 29 30  1  0  0  0  0
 30 31  1  0  0  0  0
 32 31  1  0  0  0  0
 33 32  1  0  0  0  0
 34 33  1  0  0  0  0
 34 29  1  0  0  0  0
M  END
>  <minimizedAffinity>
-9.57149601

$$$$

 OpenBabel10152420033D

 34 37  0  0  0  0  0  0  0  0999 V2000
    0.1620   -4.3250  -27.0540 C   0  0  0  0  0  0  0  0  0  0  0  0
    0.6270   -4.1490  -28.3680 C   0  0  0  0  0  3  0  0  0  0  0  0
    1.4260   -5.1230  -28.9420 C   0  0  0  0  0  3  0  0  0  0  0  0
    1.7500   -6.2570  -28.2010 C   0  0  0  0  0  3  0  0  0  0  0  0
    1.2700   -6.4450  -26.8760 C   0  0  0  0  0  0  0  0  0  0  0  0
    1.5570   -7.5740  -26.0780 C   0  0  0  0  0  0  0  0  0  0  0  0
    2.3740   -8.5890  -26.5640 N   0  0  0  0  0  0  0  0  0  0  0  0
    1.1150   -7.6810  -24.8160 N   0  0  0  0  0  0  0  0  0  0  0  0
    0.3400   -6.6960  -24.3610 C   0  0  0  0  0  3  0  0  0  0  0  0
   -0.0220   -5.6050  -25.0390 N   0  0  0  0  0  0  0  0  0  0  0  0
    0.4600   -5.4590  -26.2850 C   0  0  0  0  0  0  0  0  0  0  0  0
    2.2870   -8.8220  -27.5400 H   0  0  0  0  0  0  0  0  0  0  0  0
   -0.5230   -2.0180  -27.1040 N   0  0  0  0  0  0  0  0  0  0  0  0
   -0.6350   -3.2270  -26.4750 C   0  0  0  0  0  0  0  0  0  0  0  0
   -1.2990   -3.3710  -25.4580 O   0  0  0  0  0  0  0  0  0  0  0  0
   -1.0550   -1.2460  -26.7260 H   0  0  0  0  0  0  0  0  0  0  0  0
    0.0010   -1.8810  -27.9560 H   0  0  0  0  0  0  0  0  0  0  0  0
    2.8490   -9.6450  -25.6870 C   0  0  0  0  0  2  0  0  0  0  0  0
    1.8200  -10.7180  -25.3920 C   0  0  0  0  0  0  0  0  0  0  0  0
    1.3000  -11.4730  -26.4550 C   0  0  0  0  0  3  0  0  0  0  0  0
    0.3190  -12.4400  -26.2320 C   0  0  0  0  0  3  0  0  0  0  0  0
   -0.1740  -12.6530  -24.9440 C   0  0  0  0  0  3  0  0  0  0  0  0
    0.2930  -11.8870  -23.8810 C   0  0  0  0  0  0  0  0  0  0  0  0
    1.3030  -10.9420  -24.1040 C   0  0  0  0  0  3  0  0  0  0  0  0
   -0.0970  -12.1150  -22.5530 N   0  0  0  0  0  0  0  0  0  0  0  0
   -1.2870  -11.8840  -21.9240 C   0  0  0  0  0  0  0  0  0  0  0  0
   -1.7120  -12.7550  -21.1560 O   0  0  0  0  0  0  0  0  0  0  0  0
    0.4800  -12.7840  -22.0570 H   0  0  0  0  0  0  0  0  0  0  0  0
   -1.8880  -10.4720  -21.8630 C   0  0  0  0  0  3  0  0  0  0  0  0
   -1.2610   -9.7300  -20.6690 C   0  0  0  0  0  2  0  0  0  0  0  0
   -1.9550   -8.3950  -20.4060 C   0  0  0  0  0  2  0  0  0  0  0  0
   -1.9830   -7.5160  -21.6510 C   0  0  0  0  0  2  0  0  0  0  0  0
   -2.5780   -8.2550  -22.8480 C   0  0  0  0  0  2  0  0  0  0  0  0
   -1.8600   -9.5840  -23.1030 C   0  0  0  0  0  2  0  0  0  0  0  0
  1 14  1  0  0  0  0
  1 11  1  0  0  0  0
  2  1  2  0  0  0  0
  3  2  1  0  0  0  0
  3  4  2  0  0  0  0
  4  5  1  0  0  0  0
  5 11  2  0  0  0  0
  5  6  1  0  0  0  0
  6  8  2  0  0  0  0
  7  6  1  0  0  0  0
  7 18  1  0  0  0  0
  8  9  1  0  0  0  0
 10  9  2  0  0  0  0
 11 10  1  0  0  0  0
 12  7  1  0  0  0  0
 13 16  1  0  0  0  0
 13 14  1  0  0  0  0
 14 15  2  0  0  0  0
 17 13  1  0  0  0  0
 18 19  1  0  0  0  0
 19 24  1  0  0  0  0
 20 21  1  0  0  0  0
 20 19  2  0  0  0  0
 21 22  2  0  0  0  0
 22 23  1  0  0  0  0
 23 25  1  0  0  0  0
 24 23  2  0  0  0  0
 25 28  1  0  0  0  0
 25 26  1  0  0  0  0
 26 29  1  0  0  0  0
 26 27  2  0  0  0  0
 29 30  1  0  0  0  0
 30 31  1  0  0  0  0
 32 31  1  0  0  0  0
 33 32  1  0  0  0  0
 34 33  1  0  0  0  0
 34 29  1  0  0  0  0
M  END
>  <minimizedAffinity>
-9.00847816

$$$$

 OpenBabel10152420033D

 34 37  0  0  0  0  0  0  0  0999 V2000
   -2.0490   -9.5970  -21.3900 C   0  0  0  0  0  0  0  0  0  0  0  0
   -1.9810  -10.5970  -20.4060 C   0  0  0  0  0  3  0  0  0  0  0  0
   -1.3330  -11.7870  -20.6900 C   0  0  0  0  0  3  0  0  0  0  0  0
   -0.7630  -11.9640  -21.9480 C   0  0  0  0  0  3  0  0  0  0  0  0
   -0.8180  -10.9480  -22.9420 C   0  0  0  0  0  0  0  0  0  0  0  0
   -0.2540  -11.0660  -24.2320 C   0  0  0  0  0  0  0  0  0  0  0  0
    0.3920  -12.2370  -24.6130 N   0  0  0  0  0  0  0  0  0  0  0  0
   -0.3730  -10.0940  -25.1490 N   0  0  0  0  0  0  0  0  0  0  0  0
   -1.0030   -8.9810  -24.7720 C   0  0  0  0  0  3  0  0  0  0  0  0
   -1.5410   -8.7510  -23.5710 N   0  0  0  0  0  0  0  0  0  0  0  0
   -1.4770   -9.7380  -22.6620 C   0  0  0  0  0  0  0  0  0  0  0  0
    0.9380  -12.7110  -23.9110 H   0  0  0  0  0  0  0  0  0  0  0  0
   -3.5470   -7.8380  -22.0650 N   0  0  0  0  0  0  0  0  0  0  0  0
   -2.8030   -8.3750  -21.0510 C   0  0  0  0  0  0  0  0  0  0  0  0
   -2.7140   -7.8390  -19.9560 O   0  0  0  0  0  0  0  0  0  0  0  0
   -4.0710   -6.9970  -21.8620 H   0  0  0  0  0  0  0  0  0  0  0  0
   -3.6520   -8.2740  -22.9700 H   0  0  0  0  0  0  0  0  0  0  0  0
    0.7870  -12.4530  -25.9930 C   0  0  0  0  0  2  0  0  0  0  0  0
    2.1540  -11.9020  -26.3420 C   0  0  0  0  0  0  0  0  0  0  0  0
    3.2770  -12.3790  -25.6480 C   0  0  0  0  0  3  0  0  0  0  0  0
    4.5490  -11.8670  -25.9080 C   0  0  0  0  0  3  0  0  0  0  0  0
    4.7170  -10.8530  -26.8520 C   0  0  0  0  0  3  0  0  0  0  0  0
    3.6130  -10.3330  -27.5220 C   0  0  0  0  0  0  0  0  0  0  0  0
    2.3440  -10.8750  -27.2830 C   0  0  0  0  0  3  0  0  0  0  0  0
    3.7280   -9.3790  -28.5430 N   0  0  0  0  0  0  0  0  0  0  0  0
    3.9180   -8.0290  -28.4820 C   0  0  0  0  0  0  0  0  0  0  0  0
    4.7220   -7.5220  -29.2740 O   0  0  0  0  0  0  0  0  0  0  0  0
    3.9720   -9.7640  -29.4480 H   0  0  0  0  0  0  0  0  0  0  0  0
    2.9220   -7.1230  -27.7420 C   0  0  0  0  0  3  0  0  0  0  0  0
    2.1120   -6.3360  -28.7890 C   0  0  0  0  0  2  0  0  0  0  0  0
    1.2480   -5.2580  -28.1400 C   0  0  0  0  0  2  0  0  0  0  0  0
    0.3410   -5.8340  -27.0570 C   0  0  0  0  0  2  0  0  0  0  0  0
    1.1330   -6.6400  -26.0300 C   0  0  0  0  0  2  0  0  0  0  0  0
    1.9840   -7.7230  -26.6990 C   0  0  0  0  0  2  0  0  0  0  0  0
  1 14  1  0  0  0  0
  1  2  1  0  0  0  0
  3  2  2  0  0  0  0
  4  3  1  0  0  0  0
  5 11  1  0  0  0  0
  5  4  2  0  0  0  0
  6  5  1  0  0  0  0
  7  6  1  0  0  0  0
  7 12  1  0  0  0  0
  8  9  1  0  0  0  0
  8  6  2  0  0  0  0
  9 10  2  0  0  0  0
 10 11  1  0  0  0  0
 11  1  2  0  0  0  0
 13 16  1  0  0  0  0
 13 14  1  0  0  0  0
 14 15  2  0  0  0  0
 17 13  1  0  0  0  0
 18  7  1  0  0  0  0
 19 18  1  0  0  0  0
 19 20  1  0  0  0  0
 21 20  2  0  0  0  0
 22 21  1  0  0  0  0
 23 24  1  0  0  0  0
 23 22  2  0  0  0  0
 24 19  2  0  0  0  0
 25 26  1  0  0  0  0
 25 23  1  0  0  0  0
 26 29  1  0  0  0  0
 27 26  2  0  0  0  0
 28 25  1  0  0  0  0
 29 34  1  0  0  0  0
 30 31  1  0  0  0  0
 30 29  1  0  0  0  0
 31 32  1  0  0  0  0
 32 33  1  0  0  0  0
 34 33  1  0  0  0  0
M  END
>  <minimizedAffinity>
-8.94543076

$$$$

 OpenBabel10152420033D

 34 37  0  0  0  0  0  0  0  0999 V2000
   -1.9100   -7.4630  -22.5350 C   0  0  0  0  0  0  0  0  0  0  0  0
   -1.4830   -6.2900  -21.8910 C   0  0  0  0  0  3  0  0  0  0  0  0
   -0.7310   -5.3650  -22.5940 C   0  0  0  0  0  3  0  0  0  0  0  0
   -0.4160   -5.6200  -23.9260 C   0  0  0  0  0  3  0  0  0  0  0  0
   -0.8590   -6.8000  -24.5850 C   0  0  0  0  0  0  0  0  0  0  0  0
   -0.5780   -7.1110  -25.9340 C   0  0  0  0  0  0  0  0  0  0  0  0
    0.1930   -6.2510  -26.7090 N   0  0  0  0  0  0  0  0  0  0  0  0
   -0.9830   -8.2600  -26.4950 N   0  0  0  0  0  0  0  0  0  0  0  0
   -1.7140   -9.0790  -25.7380 C   0  0  0  0  0  3  0  0  0  0  0  0
   -2.0660   -8.8670  -24.4670 N   0  0  0  0  0  0  0  0  0  0  0  0
   -1.6210   -7.7460  -23.8770 C   0  0  0  0  0  0  0  0  0  0  0  0
    0.0680   -5.2620  -26.5610 H   0  0  0  0  0  0  0  0  0  0  0  0
   -1.9900   -9.5970  -21.4230 N   0  0  0  0  0  0  0  0  0  0  0  0
   -2.6570   -8.4400  -21.7190 C   0  0  0  0  0  0  0  0  0  0  0  0
   -3.8190   -8.2560  -21.3860 O   0  0  0  0  0  0  0  0  0  0  0  0
   -2.4800  -10.2870  -20.8690 H   0  0  0  0  0  0  0  0  0  0  0  0
   -1.0250   -9.7610  -21.6680 H   0  0  0  0  0  0  0  0  0  0  0  0
    0.6650   -6.6550  -28.0210 C   0  0  0  0  0  2  0  0  0  0  0  0
    2.0890   -7.1740  -28.0360 C   0  0  0  0  0  0  0  0  0  0  0  0
    2.9810   -6.6850  -29.0040 C   0  0  0  0  0  3  0  0  0  0  0  0
    4.2870   -7.1680  -29.0810 C   0  0  0  0  0  3  0  0  0  0  0  0
    4.7180   -8.1660  -28.2050 C   0  0  0  0  0  3  0  0  0  0  0  0
    3.8390   -8.6990  -27.2670 C   0  0  0  0  0  0  0  0  0  0  0  0
    2.5390   -8.1850  -27.1700 C   0  0  0  0  0  3  0  0  0  0  0  0
    4.2370   -9.6370  -26.3030 N   0  0  0  0  0  0  0  0  0  0  0  0
    3.7330  -10.8680  -25.9990 C   0  0  0  0  0  0  0  0  0  0  0  0
    4.5360  -11.7850  -25.7860 O   0  0  0  0  0  0  0  0  0  0  0  0
    5.1850   -9.5120  -25.9660 H   0  0  0  0  0  0  0  0  0  0  0  0
    2.2690  -11.0380  -25.5660 C   0  0  0  0  0  3  0  0  0  0  0  0
    1.6570  -12.1990  -26.3700 C   0  0  0  0  0  2  0  0  0  0  0  0
    0.1480  -12.3000  -26.1570 C   0  0  0  0  0  2  0  0  0  0  0  0
   -0.2100  -12.4010  -24.6790 C   0  0  0  0  0  2  0  0  0  0  0  0
    0.4170  -11.2680  -23.8690 C   0  0  0  0  0  2  0  0  0  0  0  0
    1.9310  -11.1910  -24.0860 C   0  0  0  0  0  2  0  0  0  0  0  0
  1  2  1  0  0  0  0
  1 14  1  0  0  0  0
  3  2  2  0  0  0  0
  4  3  1  0  0  0  0
  5  4  2  0  0  0  0
  5 11  1  0  0  0  0
  6  5  1  0  0  0  0
  7 12  1  0  0  0  0
  7  6  1  0  0  0  0
  8  6  2  0  0  0  0
  8  9  1  0  0  0  0
  9 10  2  0  0  0  0
 10 11  1  0  0  0  0
 11  1  2  0  0  0  0
 13 16  1  0  0  0  0
 14 13  1  0  0  0  0
 14 15  2  0  0  0  0
 17 13  1  0  0  0  0
 18  7  1  0  0  0  0
 19 18  1  0  0  0  0
 19 24  1  0  0  0  0
 20 19  2  0  0  0  0
 21 20  1  0  0  0  0
 21 22  2  0  0  0  0
 22 23  1  0  0  0  0
 23 24  2  0  0  0  0
 23 25  1  0  0  0  0
 25 26  1  0  0  0  0
 25 28  1  0  0  0  0
 26 27  2  0  0  0  0
 26 29  1  0  0  0  0
 29 34  1  0  0  0  0
 30 31  1  0  0  0  0
 30 29  1  0  0  0  0
 31 32  1  0  0  0  0
 32 33  1  0  0  0  0
 34 33  1  0  0  0  0
M  END
>  <minimizedAffinity>
-8.52985668

$$$$

 OpenBabel10152420033D

 34 37  0  0  0  0  0  0  0  0999 V2000
    3.2460  -11.9670  -26.5100 C   0  0  0  0  0  0  0  0  0  0  0  0
    4.2910  -12.3960  -25.6750 C   0  0  0  0  0  3  0  0  0  0  0  0
    4.0300  -12.6620  -24.3410 C   0  0  0  0  0  3  0  0  0  0  0  0
    2.7350  -12.4970  -23.8590 C   0  0  0  0  0  3  0  0  0  0  0  0
    1.6710  -12.0760  -24.7050 C   0  0  0  0  0  0  0  0  0  0  0  0
    0.3370  -11.8970  -24.2770 C   0  0  0  0  0  0  0  0  0  0  0  0
   -0.0110  -12.1160  -22.9480 N   0  0  0  0  0  0  0  0  0  0  0  0
   -0.6200  -11.4550  -25.1060 N   0  0  0  0  0  0  0  0  0  0  0  0
   -0.2700  -11.2420  -26.3750 C   0  0  0  0  0  3  0  0  0  0  0  0
    0.9490  -11.4120  -26.8920 N   0  0  0  0  0  0  0  0  0  0  0  0
    1.9290  -11.8020  -26.0600 C   0  0  0  0  0  0  0  0  0  0  0  0
    0.4460  -12.8770  -22.4720 H   0  0  0  0  0  0  0  0  0  0  0  0
    3.1900  -12.5510  -28.8440 N   0  0  0  0  0  0  0  0  0  0  0  0
    3.5960  -11.6430  -27.9060 C   0  0  0  0  0  0  0  0  0  0  0  0
    4.2650  -10.6610  -28.1980 O   0  0  0  0  0  0  0  0  0  0  0  0
    3.4210  -12.3570  -29.8090 H   0  0  0  0  0  0  0  0  0  0  0  0
    2.6200  -13.3560  -28.6290 H   0  0  0  0  0  0  0  0  0  0  0  0
   -1.3200  -11.7340  -22.4500 C   0  0  0  0  0  2  0  0  0  0  0  0
   -1.4510  -10.2640  -22.1070 C   0  0  0  0  0  0  0  0  0  0  0  0
   -1.6400   -9.8930  -20.7670 C   0  0  0  0  0  3  0  0  0  0  0  0
   -1.8090   -8.5530  -20.4130 C   0  0  0  0  0  3  0  0  0  0  0  0
   -1.8130   -7.5640  -21.3970 C   0  0  0  0  0  3  0  0  0  0  0  0
   -1.6720   -7.9110  -22.7380 C   0  0  0  0  0  0  0  0  0  0  0  0
   -1.4670   -9.2540  -23.0840 C   0  0  0  0  0  3  0  0  0  0  0  0
   -1.5790   -6.9580  -23.7610 N   0  0  0  0  0  0  0  0  0  0  0  0
   -1.2620   -7.0980  -25.0810 C   0  0  0  0  0  0  0  0  0  0  0  0
   -1.9330   -6.4670  -25.9070 O   0  0  0  0  0  0  0  0  0  0  0  0
   -2.0690   -6.0910  -23.5710 H   0  0  0  0  0  0  0  0  0  0  0  0
    0.0850   -7.6980  -25.5110 C   0  0  0  0  0  3  0  0  0  0  0  0
    0.5470   -6.9830  -26.7940 C   0  0  0  0  0  2  0  0  0  0  0  0
    1.7700   -7.6600  -27.4090 C   0  0  0  0  0  2  0  0  0  0  0  0
    2.9100   -7.7870  -26.4050 C   0  0  0  0  0  2  0  0  0  0  0  0
    2.4540   -8.4700  -25.1180 C   0  0  0  0  0  2  0  0  0  0  0  0
    1.2350   -7.7700  -24.5110 C   0  0  0  0  0  2  0  0  0  0  0  0
  1 11  2  0  0  0  0
  1  2  1  0  0  0  0
  2  3  2  0  0  0  0
  3  4  1  0  0  0  0
  5  6  1  0  0  0  0
  5  4  2  0  0  0  0
  6  7  1  0  0  0  0
  7 12  1  0  0  0  0
  7 18  1  0  0  0  0
  8  6  2  0  0  0  0
  9  8  1  0  0  0  0
 10  9  2  0  0  0  0
 10 11  1  0  0  0  0
 11  5  1  0  0  0  0
 13 17  1  0  0  0  0
 13 14  1  0  0  0  0
 14  1  1  0  0  0  0
 15 14  2  0  0  0  0
 16 13  1  0  0  0  0
 18 19  1  0  0  0  0
 19 20  1  0  0  0  0
 20 21  2  0  0  0  0
 22 21  1  0  0  0  0
 23 22  2  0  0  0  0
 24 23  1  0  0  0  0
 24 19  2  0  0  0  0
 25 28  1  0  0  0  0
 25 23  1  0  0  0  0
 26 25  1  0  0  0  0
 27 26  2  0  0  0  0
 29 26  1  0  0  0  0
 29 34  1  0  0  0  0
 30 29  1  0  0  0  0
 31 30  1  0  0  0  0
 31 32  1  0  0  0  0
 32 33  1  0  0  0  0
 33 34  1  0  0  0  0
M  END
>  <minimizedAffinity>
-8.12997341

$$$$

 OpenBabel10152420033D

 34 37  0  0  0  0  0  0  0  0999 V2000
   -0.0920   -4.3100  -27.0870 C   0  0  0  0  0  0  0  0  0  0  0  0
    0.3010   -3.9190  -28.3780 C   0  0  0  0  0  3  0  0  0  0  0  0
    1.2700   -4.6490  -29.0440 C   0  0  0  0  0  3  0  0  0  0  0  0
    1.8340   -5.7570  -28.4160 C   0  0  0  0  0  3  0  0  0  0  0  0
    1.4280   -6.1640  -27.1150 C   0  0  0  0  0  0  0  0  0  0  0  0
    1.9560   -7.2810  -26.4300 C   0  0  0  0  0  0  0  0  0  0  0  0
    2.9530   -8.0560  -27.0130 N   0  0  0  0  0  0  0  0  0  0  0  0
    1.5700   -7.5960  -25.1850 N   0  0  0  0  0  0  0  0  0  0  0  0
    0.6200   -6.8390  -24.6360 C   0  0  0  0  0  3  0  0  0  0  0  0
    0.0290   -5.7850  -25.2060 N   0  0  0  0  0  0  0  0  0  0  0  0
    0.4460   -5.4260  -26.4310 C   0  0  0  0  0  0  0  0  0  0  0  0
    2.8970   -8.2080  -28.0070 H   0  0  0  0  0  0  0  0  0  0  0  0
   -0.6300   -2.7860  -25.3040 N   0  0  0  0  0  0  0  0  0  0  0  0
   -1.0850   -3.4600  -26.4040 C   0  0  0  0  0  0  0  0  0  0  0  0
   -2.2550   -3.4130  -26.7570 O   0  0  0  0  0  0  0  0  0  0  0  0
   -1.2910   -2.1990  -24.8120 H   0  0  0  0  0  0  0  0  0  0  0  0
    0.3340   -2.7920  -25.0070 H   0  0  0  0  0  0  0  0  0  0  0  0
    3.6510   -9.0700  -26.2430 C   0  0  0  0  0  2  0  0  0  0  0  0
    2.9540  -10.4150  -26.2090 C   0  0  0  0  0  0  0  0  0  0  0  0
    3.7180  -11.5820  -26.3760 C   0  0  0  0  0  3  0  0  0  0  0  0
    3.1100  -12.8370  -26.3950 C   0  0  0  0  0  3  0  0  0  0  0  0
    1.7240  -12.9470  -26.2710 C   0  0  0  0  0  3  0  0  0  0  0  0
    0.9410  -11.8020  -26.1500 C   0  0  0  0  0  0  0  0  0  0  0  0
    1.5600  -10.5470  -26.0940 C   0  0  0  0  0  3  0  0  0  0  0  0
   -0.4440  -11.8520  -25.9320 N   0  0  0  0  0  0  0  0  0  0  0  0
   -1.2750  -10.9760  -25.2960 C   0  0  0  0  0  0  0  0  0  0  0  0
   -2.3670  -10.7300  -25.8220 O   0  0  0  0  0  0  0  0  0  0  0  0
   -0.9420  -12.4770  -26.5540 H   0  0  0  0  0  0  0  0  0  0  0  0
   -1.0520  -10.6020  -23.8220 C   0  0  0  0  0  3  0  0  0  0  0  0
   -1.8520   -9.3220  -23.5210 C   0  0  0  0  0  2  0  0  0  0  0  0
   -1.5200   -8.7610  -22.1400 C   0  0  0  0  0  2  0  0  0  0  0  0
   -1.7090   -9.8040  -21.0440 C   0  0  0  0  0  2  0  0  0  0  0  0
   -0.9420  -11.0880  -21.3500 C   0  0  0  0  0  2  0  0  0  0  0  0
   -1.2970  -11.6410  -22.7330 C   0  0  0  0  0  2  0  0  0  0  0  0
  1 11  1  0  0  0  0
  1 14  1  0  0  0  0
  2  1  2  0  0  0  0
  3  4  2  0  0  0  0
  3  2  1  0  0  0  0
  4  5  1  0  0  0  0
  5 11  2  0  0  0  0
  5  6  1  0  0  0  0
  6  8  2  0  0  0  0
  7  6  1  0  0  0  0
  7 18  1  0  0  0  0
  8  9  1  0  0  0  0
 10  9  2  0  0  0  0
 11 10  1  0  0  0  0
 12  7  1  0  0  0  0
 13 17  1  0  0  0  0
 13 16  1  0  0  0  0
 14 13  1  0  0  0  0
 15 14  2  0  0  0  0
 18 19  1  0  0  0  0
 19 24  1  0  0  0  0
 20 19  2  0  0  0  0
 21 20  1  0  0  0  0
 21 22  2  0  0  0  0
 22 23  1  0  0  0  0
 23 24  2  0  0  0  0
 23 25  1  0  0  0  0
 25 26  1  0  0  0  0
 26 29  1  0  0  0  0
 27 26  2  0  0  0  0
 28 25  1  0  0  0  0
 29 30  1  0  0  0  0
 29 34  1  0  0  0  0
 30 31  1  0  0  0  0
 31 32  1  0  0  0  0
 33 32  1  0  0  0  0
 34 33  1  0  0  0  0
M  END
>  <minimizedAffinity>
-7.69112492

$$$$

 OpenBabel10152420033D

 34 37  0  0  0  0  0  0  0  0999 V2000
    1.8100   -7.2750  -27.1730 C   0  0  0  0  0  0  0  0  0  0  0  0
    3.1670   -7.3210  -26.8120 C   0  0  0  0  0  3  0  0  0  0  0  0
    3.6330   -8.3790  -26.0500 C   0  0  0  0  0  3  0  0  0  0  0  0
    2.7410   -9.3750  -25.6580 C   0  0  0  0  0  3  0  0  0  0  0  0
    1.3690   -9.3390  -26.0330 C   0  0  0  0  0  0  0  0  0  0  0  0
    0.4200  -10.3200  -25.6740 C   0  0  0  0  0  0  0  0  0  0  0  0
    0.7930  -11.4050  -24.8860 N   0  0  0  0  0  0  0  0  0  0  0  0
   -0.8720  -10.2160  -26.0170 N   0  0  0  0  0  0  0  0  0  0  0  0
   -1.2170   -9.1660  -26.7640 C   0  0  0  0  0  3  0  0  0  0  0  0
   -0.3970   -8.2020  -27.1880 N   0  0  0  0  0  0  0  0  0  0  0  0
    0.8890   -8.2660  -26.8060 C   0  0  0  0  0  0  0  0  0  0  0  0
    1.7080  -11.7960  -25.0450 H   0  0  0  0  0  0  0  0  0  0  0  0
    0.5510   -5.2260  -27.2560 N   0  0  0  0  0  0  0  0  0  0  0  0
    1.3610   -6.0950  -27.9350 C   0  0  0  0  0  0  0  0  0  0  0  0
    1.6380   -5.9380  -29.1150 O   0  0  0  0  0  0  0  0  0  0  0  0
    0.2240   -4.4090  -27.7550 H   0  0  0  0  0  0  0  0  0  0  0  0
    0.3270   -5.3230  -26.2770 H   0  0  0  0  0  0  0  0  0  0  0  0
   -0.2070  -12.3010  -24.3340 C   0  0  0  0  0  2  0  0  0  0  0  0
   -0.5530  -12.0290  -22.8850 C   0  0  0  0  0  0  0  0  0  0  0  0
   -0.1630  -12.9580  -21.9060 C   0  0  0  0  0  3  0  0  0  0  0  0
   -0.5000  -12.7670  -20.5660 C   0  0  0  0  0  3  0  0  0  0  0  0
   -1.2520  -11.6560  -20.1830 C   0  0  0  0  0  3  0  0  0  0  0  0
   -1.6890  -10.7450  -21.1410 C   0  0  0  0  0  0  0  0  0  0  0  0
   -1.3170  -10.9210  -22.4800 C   0  0  0  0  0  3  0  0  0  0  0  0
   -2.3690   -9.5640  -20.8080 N   0  0  0  0  0  0  0  0  0  0  0  0
   -2.8760   -8.5770  -21.6020 C   0  0  0  0  0  0  0  0  0  0  0  0
   -3.9930   -8.1260  -21.3210 O   0  0  0  0  0  0  0  0  0  0  0  0
   -2.7800   -9.5660  -19.8820 H   0  0  0  0  0  0  0  0  0  0  0  0
   -1.9690   -7.7890  -22.5590 C   0  0  0  0  0  3  0  0  0  0  0  0
   -2.7340   -7.5640  -23.8760 C   0  0  0  0  0  2  0  0  0  0  0  0
   -1.8330   -6.9760  -24.9600 C   0  0  0  0  0  2  0  0  0  0  0  0
   -1.1460   -5.6980  -24.4930 C   0  0  0  0  0  2  0  0  0  0  0  0
   -0.4080   -5.9050  -23.1720 C   0  0  0  0  0  2  0  0  0  0  0  0
   -1.3310   -6.4830  -22.0960 C   0  0  0  0  0  2  0  0  0  0  0  0
  1  2  2  0  0  0  0
  1 11  1  0  0  0  0
  2  3  1  0  0  0  0
  3  4  2  0  0  0  0
  5  6  1  0  0  0  0
  5  4  1  0  0  0  0
  6  7  1  0  0  0  0
  7 18  1  0  0  0  0
  8  6  2  0  0  0  0
  9  8  1  0  0  0  0
 10 11  1  0  0  0  0
 10  9  2  0  0  0  0
 11  5  2  0  0  0  0
 12  7  1  0  0  0  0
 13 17  1  0  0  0  0
 14 13  1  0  0  0  0
 14  1  1  0  0  0  0
 15 14  2  0  0  0  0
 16 13  1  0  0  0  0
 18 19  1  0  0  0  0
 19 24  2  0  0  0  0
 19 20  1  0  0  0  0
 20 21  2  0  0  0  0
 21 22  1  0  0  0  0
 23 25  1  0  0  0  0
 23 22  2  0  0  0  0
 24 23  1  0  0  0  0
 25 28  1  0  0  0  0
 26 27  2  0  0  0  0
 26 25  1  0  0  0  0
 29 34  1  0  0  0  0
 29 26  1  0  0  0  0
 30 29  1  0  0  0  0
 31 32  1  0  0  0  0
 31 30  1  0  0  0  0
 32 33  1  0  0  0  0
 33 34  1  0  0  0  0
M  END
>  <minimizedAffinity>
-7.0772109

$$$$

 OpenBabel10152420033D

 34 37  0  0  0  0  0  0  0  0999 V2000
   -3.2030   -8.2490  -22.5470 C   0  0  0  0  0  0  0  0  0  0  0  0
   -2.9800   -7.9150  -21.2010 C   0  0  0  0  0  3  0  0  0  0  0  0
   -1.9160   -8.4890  -20.5250 C   0  0  0  0  0  3  0  0  0  0  0  0
   -1.0910   -9.3860  -21.1990 C   0  0  0  0  0  3  0  0  0  0  0  0
   -1.3060   -9.7150  -22.5660 C   0  0  0  0  0  0  0  0  0  0  0  0
   -0.5010  -10.6100  -23.3040 C   0  0  0  0  0  0  0  0  0  0  0  0
    0.5740  -11.2540  -22.6990 N   0  0  0  0  0  0  0  0  0  0  0  0
   -0.7740  -10.9210  -24.5800 N   0  0  0  0  0  0  0  0  0  0  0  0
   -1.8120  -10.3030  -25.1450 C   0  0  0  0  0  3  0  0  0  0  0  0
   -2.6150   -9.4170  -24.5510 N   0  0  0  0  0  0  0  0  0  0  0  0
   -2.3850   -9.1380  -23.2570 C   0  0  0  0  0  0  0  0  0  0  0  0
    1.1060  -10.7260  -22.0250 H   0  0  0  0  0  0  0  0  0  0  0  0
   -5.4590   -7.4280  -22.3790 N   0  0  0  0  0  0  0  0  0  0  0  0
   -4.3860   -7.6520  -23.1960 C   0  0  0  0  0  0  0  0  0  0  0  0
   -4.4280   -7.4360  -24.3990 O   0  0  0  0  0  0  0  0  0  0  0  0
   -6.2860   -7.0240  -22.7980 H   0  0  0  0  0  0  0  0  0  0  0  0
   -5.4400   -7.5780  -21.3810 H   0  0  0  0  0  0  0  0  0  0  0  0
    1.2750  -12.3290  -23.3780 C   0  0  0  0  0  2  0  0  0  0  0  0
    1.6160  -12.0330  -24.8240 C   0  0  0  0  0  0  0  0  0  0  0  0
    1.2380  -12.9530  -25.8150 C   0  0  0  0  0  3  0  0  0  0  0  0
    1.5710  -12.7400  -27.1530 C   0  0  0  0  0  3  0  0  0  0  0  0
    2.3080  -11.6140  -27.5210 C   0  0  0  0  0  3  0  0  0  0  0  0
    2.7340  -10.7100  -26.5510 C   0  0  0  0  0  0  0  0  0  0  0  0
    2.3650  -10.9100  -25.2140 C   0  0  0  0  0  3  0  0  0  0  0  0
    3.3980   -9.5160  -26.8680 N   0  0  0  0  0  0  0  0  0  0  0  0
    3.1910   -8.2400  -26.4310 C   0  0  0  0  0  0  0  0  0  0  0  0
    4.1830   -7.5570  -26.1490 O   0  0  0  0  0  0  0  0  0  0  0  0
    4.3230   -9.6450  -27.2620 H   0  0  0  0  0  0  0  0  0  0  0  0
    1.8360   -7.5450  -26.6360 C   0  0  0  0  0  3  0  0  0  0  0  0
    1.2360   -7.2370  -25.2520 C   0  0  0  0  0  2  0  0  0  0  0  0
   -0.2040   -6.7390  -25.3590 C   0  0  0  0  0  2  0  0  0  0  0  0
   -0.3210   -5.5400  -26.2930 C   0  0  0  0  0  2  0  0  0  0  0  0
    0.2980   -5.8280  -27.6590 C   0  0  0  0  0  2  0  0  0  0  0  0
    1.7450   -6.3140  -27.5310 C   0  0  0  0  0  2  0  0  0  0  0  0
  1  2  1  0  0  0  0
  2  3  2  0  0  0  0
  4  3  1  0  0  0  0
  5  4  2  0  0  0  0
  6  7  1  0  0  0  0
  6  5  1  0  0  0  0
  7 12  1  0  0  0  0
  8  6  2  0  0  0  0
  9  8  1  0  0  0  0
  9 10  2  0  0  0  0
 10 11  1  0  0  0  0
 11  5  1  0  0  0  0
 11  1  2  0  0  0  0
 13 17  1  0  0  0  0
 14  1  1  0  0  0  0
 14 13  1  0  0  0  0
 15 14  2  0  0  0  0
 16 13  1  0  0  0  0
 18  7  1  0  0  0  0
 19 18  1  0  0  0  0
 20 19  2  0  0  0  0
 21 20  1  0  0  0  0
 22 21  2  0  0  0  0
 22 23  1  0  0  0  0
 23 24  2  0  0  0  0
 24 19  1  0  0  0  0
 25 23  1  0  0  0  0
 25 26  1  0  0  0  0
 26 27  2  0  0  0  0
 28 25  1  0  0  0  0
 29 26  1  0  0  0  0
 29 30  1  0  0  0  0
 31 30  1  0  0  0  0
 32 31  1  0  0  0  0
 33 34  1  0  0  0  0
 33 32  1  0  0  0  0
 34 29  1  0  0  0  0
M  END
>  <minimizedAffinity>
-6.69169283

$$$$
