
 OpenBabel10152420033D

 34 37  0  0  0  0  0  0  0  0999 V2000
    1.8100   -7.2750  -27.1730 C   0  0  0  0  0  0  0  0  0  0  0  0
    3.1670   -7.3210  -26.8120 C   0  0  0  0  0  3  0  0  0  0  0  0
    3.6330   -8.3790  -26.0500 C   0  0  0  0  0  3  0  0  0  0  0  0
    2.7410   -9.3750  -25.6580 C   0  0  0  0  0  3  0  0  0  0  0  0
    1.3690   -9.3390  -26.0330 C   0  0  0  0  0  0  0  0  0  0  0  0
    0.4200  -10.3200  -25.6740 C   0  0  0  0  0  0  0  0  0  0  0  0
    0.7930  -11.4050  -24.8860 N   0  0  0  0  0  0  0  0  0  0  0  0
   -0.8720  -10.2160  -26.0170 N   0  0  0  0  0  0  0  0  0  0  0  0
   -1.2170   -9.1660  -26.7640 C   0  0  0  0  0  3  0  0  0  0  0  0
   -0.3970   -8.2020  -27.1880 N   0  0  0  0  0  0  0  0  0  0  0  0
    0.8890   -8.2660  -26.8060 C   0  0  0  0  0  0  0  0  0  0  0  0
    1.7080  -11.7960  -25.0450 H   0  0  0  0  0  0  0  0  0  0  0  0
    0.5510   -5.2260  -27.2560 N   0  0  0  0  0  0  0  0  0  0  0  0
    1.3610   -6.0950  -27.9350 C   0  0  0  0  0  0  0  0  0  0  0  0
    1.6380   -5.9380  -29.1150 O   0  0  0  0  0  0  0  0  0  0  0  0
    0.2240   -4.4090  -27.7550 H   0  0  0  0  0  0  0  0  0  0  0  0
    0.3270   -5.3230  -26.2770 H   0  0  0  0  0  0  0  0  0  0  0  0
   -0.2070  -12.3010  -24.3340 C   0  0  0  0  0  2  0  0  0  0  0  0
   -0.5530  -12.0290  -22.8850 C   0  0  0  0  0  0  0  0  0  0  0  0
   -0.1630  -12.9580  -21.9060 C   0  0  0  0  0  3  0  0  0  0  0  0
   -0.5000  -12.7670  -20.5660 C   0  0  0  0  0  3  0  0  0  0  0  0
   -1.2520  -11.6560  -20.1830 C   0  0  0  0  0  3  0  0  0  0  0  0
   -1.6890  -10.7450  -21.1410 C   0  0  0  0  0  0  0  0  0  0  0  0
   -1.3170  -10.9210  -22.4800 C   0  0  0  0  0  3  0  0  0  0  0  0
   -2.3690   -9.5640  -20.8080 N   0  0  0  0  0  0  0  0  0  0  0  0
   -2.8760   -8.5770  -21.6020 C   0  0  0  0  0  0  0  0  0  0  0  0
   -3.9930   -8.1260  -21.3210 O   0  0  0  0  0  0  0  0  0  0  0  0
   -2.7800   -9.5660  -19.8820 H   0  0  0  0  0  0  0  0  0  0  0  0
   -1.9690   -7.7890  -22.5590 C   0  0  0  0  0  3  0  0  0  0  0  0
   -2.7340   -7.5640  -23.8760 C   0  0  0  0  0  2  0  0  0  0  0  0
   -1.8330   -6.9760  -24.9600 C   0  0  0  0  0  2  0  0  0  0  0  0
   -1.1460   -5.6980  -24.4930 C   0  0  0  0  0  2  0  0  0  0  0  0
   -0.4080   -5.9050  -23.1720 C   0  0  0  0  0  2  0  0  0  0  0  0
   -1.3310   -6.4830  -22.0960 C   0  0  0  0  0  2  0  0  0  0  0  0
  1  2  2  0  0  0  0
  1 11  1  0  0  0  0
  2  3  1  0  0  0  0
  3  4  2  0  0  0  0
  5  6  1  0  0  0  0
  5  4  1  0  0  0  0
  6  7  1  0  0  0  0
  7 18  1  0  0  0  0
  8  6  2  0  0  0  0
  9  8  1  0  0  0  0
 10 11  1  0  0  0  0
 10  9  2  0  0  0  0
 11  5  2  0  0  0  0
 12  7  1  0  0  0  0
 13 17  1  0  0  0  0
 14 13  1  0  0  0  0
 14  1  1  0  0  0  0
 15 14  2  0  0  0  0
 16 13  1  0  0  0  0
 18 19  1  0  0  0  0
 19 24  2  0  0  0  0
 19 20  1  0  0  0  0
 20 21  2  0  0  0  0
 21 22  1  0  0  0  0
 23 25  1  0  0  0  0
 23 22  2  0  0  0  0
 24 23  1  0  0  0  0
 25 28  1  0  0  0  0
 26 27  2  0  0  0  0
 26 25  1  0  0  0  0
 29 34  1  0  0  0  0
 29 26  1  0  0  0  0
 30 29  1  0  0  0  0
 31 32  1  0  0  0  0
 31 30  1  0  0  0  0
 32 33  1  0  0  0  0
 33 34  1  0  0  0  0
M  END
>  <minimizedAffinity>
-7.0772109

$$$$
