
 OpenBabel10152420033D

 34 37  0  0  0  0  0  0  0  0999 V2000
    0.1620   -4.3250  -27.0540 C   0  0  0  0  0  0  0  0  0  0  0  0
    0.6270   -4.1490  -28.3680 C   0  0  0  0  0  3  0  0  0  0  0  0
    1.4260   -5.1230  -28.9420 C   0  0  0  0  0  3  0  0  0  0  0  0
    1.7500   -6.2570  -28.2010 C   0  0  0  0  0  3  0  0  0  0  0  0
    1.2700   -6.4450  -26.8760 C   0  0  0  0  0  0  0  0  0  0  0  0
    1.5570   -7.5740  -26.0780 C   0  0  0  0  0  0  0  0  0  0  0  0
    2.3740   -8.5890  -26.5640 N   0  0  0  0  0  0  0  0  0  0  0  0
    1.1150   -7.6810  -24.8160 N   0  0  0  0  0  0  0  0  0  0  0  0
    0.3400   -6.6960  -24.3610 C   0  0  0  0  0  3  0  0  0  0  0  0
   -0.0220   -5.6050  -25.0390 N   0  0  0  0  0  0  0  0  0  0  0  0
    0.4600   -5.4590  -26.2850 C   0  0  0  0  0  0  0  0  0  0  0  0
    2.2870   -8.8220  -27.5400 H   0  0  0  0  0  0  0  0  0  0  0  0
   -0.5230   -2.0180  -27.1040 N   0  0  0  0  0  0  0  0  0  0  0  0
   -0.6350   -3.2270  -26.4750 C   0  0  0  0  0  0  0  0  0  0  0  0
   -1.2990   -3.3710  -25.4580 O   0  0  0  0  0  0  0  0  0  0  0  0
   -1.0550   -1.2460  -26.7260 H   0  0  0  0  0  0  0  0  0  0  0  0
    0.0010   -1.8810  -27.9560 H   0  0  0  0  0  0  0  0  0  0  0  0
    2.8490   -9.6450  -25.6870 C   0  0  0  0  0  2  0  0  0  0  0  0
    1.8200  -10.7180  -25.3920 C   0  0  0  0  0  0  0  0  0  0  0  0
    1.3000  -11.4730  -26.4550 C   0  0  0  0  0  3  0  0  0  0  0  0
    0.3190  -12.4400  -26.2320 C   0  0  0  0  0  3  0  0  0  0  0  0
   -0.1740  -12.6530  -24.9440 C   0  0  0  0  0  3  0  0  0  0  0  0
    0.2930  -11.8870  -23.8810 C   0  0  0  0  0  0  0  0  0  0  0  0
    1.3030  -10.9420  -24.1040 C   0  0  0  0  0  3  0  0  0  0  0  0
   -0.0970  -12.1150  -22.5530 N   0  0  0  0  0  0  0  0  0  0  0  0
   -1.2870  -11.8840  -21.9240 C   0  0  0  0  0  0  0  0  0  0  0  0
   -1.7120  -12.7550  -21.1560 O   0  0  0  0  0  0  0  0  0  0  0  0
    0.4800  -12.7840  -22.0570 H   0  0  0  0  0  0  0  0  0  0  0  0
   -1.8880  -10.4720  -21.8630 C   0  0  0  0  0  3  0  0  0  0  0  0
   -1.2610   -9.7300  -20.6690 C   0  0  0  0  0  2  0  0  0  0  0  0
   -1.9550   -8.3950  -20.4060 C   0  0  0  0  0  2  0  0  0  0  0  0
   -1.9830   -7.5160  -21.6510 C   0  0  0  0  0  2  0  0  0  0  0  0
   -2.5780   -8.2550  -22.8480 C   0  0  0  0  0  2  0  0  0  0  0  0
   -1.8600   -9.5840  -23.1030 C   0  0  0  0  0  2  0  0  0  0  0  0
  1 14  1  0  0  0  0
  1 11  1  0  0  0  0
  2  1  2  0  0  0  0
  3  2  1  0  0  0  0
  3  4  2  0  0  0  0
  4  5  1  0  0  0  0
  5 11  2  0  0  0  0
  5  6  1  0  0  0  0
  6  8  2  0  0  0  0
  7  6  1  0  0  0  0
  7 18  1  0  0  0  0
  8  9  1  0  0  0  0
 10  9  2  0  0  0  0
 11 10  1  0  0  0  0
 12  7  1  0  0  0  0
 13 16  1  0  0  0  0
 13 14  1  0  0  0  0
 14 15  2  0  0  0  0
 17 13  1  0  0  0  0
 18 19  1  0  0  0  0
 19 24  1  0  0  0  0
 20 21  1  0  0  0  0
 20 19  2  0  0  0  0
 21 22  2  0  0  0  0
 22 23  1  0  0  0  0
 23 25  1  0  0  0  0
 24 23  2  0  0  0  0
 25 28  1  0  0  0  0
 25 26  1  0  0  0  0
 26 29  1  0  0  0  0
 26 27  2  0  0  0  0
 29 30  1  0  0  0  0
 30 31  1  0  0  0  0
 32 31  1  0  0  0  0
 33 32  1  0  0  0  0
 34 33  1  0  0  0  0
 34 29  1  0  0  0  0
M  END
>  <minimizedAffinity>
-9.00847816

$$$$
