
 OpenBabel10152420033D

 34 37  0  0  0  0  0  0  0  0999 V2000
   -1.9100   -7.4630  -22.5350 C   0  0  0  0  0  0  0  0  0  0  0  0
   -1.4830   -6.2900  -21.8910 C   0  0  0  0  0  3  0  0  0  0  0  0
   -0.7310   -5.3650  -22.5940 C   0  0  0  0  0  3  0  0  0  0  0  0
   -0.4160   -5.6200  -23.9260 C   0  0  0  0  0  3  0  0  0  0  0  0
   -0.8590   -6.8000  -24.5850 C   0  0  0  0  0  0  0  0  0  0  0  0
   -0.5780   -7.1110  -25.9340 C   0  0  0  0  0  0  0  0  0  0  0  0
    0.1930   -6.2510  -26.7090 N   0  0  0  0  0  0  0  0  0  0  0  0
   -0.9830   -8.2600  -26.4950 N   0  0  0  0  0  0  0  0  0  0  0  0
   -1.7140   -9.0790  -25.7380 C   0  0  0  0  0  3  0  0  0  0  0  0
   -2.0660   -8.8670  -24.4670 N   0  0  0  0  0  0  0  0  0  0  0  0
   -1.6210   -7.7460  -23.8770 C   0  0  0  0  0  0  0  0  0  0  0  0
    0.0680   -5.2620  -26.5610 H   0  0  0  0  0  0  0  0  0  0  0  0
   -1.9900   -9.5970  -21.4230 N   0  0  0  0  0  0  0  0  0  0  0  0
   -2.6570   -8.4400  -21.7190 C   0  0  0  0  0  0  0  0  0  0  0  0
   -3.8190   -8.2560  -21.3860 O   0  0  0  0  0  0  0  0  0  0  0  0
   -2.4800  -10.2870  -20.8690 H   0  0  0  0  0  0  0  0  0  0  0  0
   -1.0250   -9.7610  -21.6680 H   0  0  0  0  0  0  0  0  0  0  0  0
    0.6650   -6.6550  -28.0210 C   0  0  0  0  0  2  0  0  0  0  0  0
    2.0890   -7.1740  -28.0360 C   0  0  0  0  0  0  0  0  0  0  0  0
    2.9810   -6.6850  -29.0040 C   0  0  0  0  0  3  0  0  0  0  0  0
    4.2870   -7.1680  -29.0810 C   0  0  0  0  0  3  0  0  0  0  0  0
    4.7180   -8.1660  -28.2050 C   0  0  0  0  0  3  0  0  0  0  0  0
    3.8390   -8.6990  -27.2670 C   0  0  0  0  0  0  0  0  0  0  0  0
    2.5390   -8.1850  -27.1700 C   0  0  0  0  0  3  0  0  0  0  0  0
    4.2370   -9.6370  -26.3030 N   0  0  0  0  0  0  0  0  0  0  0  0
    3.7330  -10.8680  -25.9990 C   0  0  0  0  0  0  0  0  0  0  0  0
    4.5360  -11.7850  -25.7860 O   0  0  0  0  0  0  0  0  0  0  0  0
    5.1850   -9.5120  -25.9660 H   0  0  0  0  0  0  0  0  0  0  0  0
    2.2690  -11.0380  -25.5660 C   0  0  0  0  0  3  0  0  0  0  0  0
    1.6570  -12.1990  -26.3700 C   0  0  0  0  0  2  0  0  0  0  0  0
    0.1480  -12.3000  -26.1570 C   0  0  0  0  0  2  0  0  0  0  0  0
   -0.2100  -12.4010  -24.6790 C   0  0  0  0  0  2  0  0  0  0  0  0
    0.4170  -11.2680  -23.8690 C   0  0  0  0  0  2  0  0  0  0  0  0
    1.9310  -11.1910  -24.0860 C   0  0  0  0  0  2  0  0  0  0  0  0
  1  2  1  0  0  0  0
  1 14  1  0  0  0  0
  3  2  2  0  0  0  0
  4  3  1  0  0  0  0
  5  4  2  0  0  0  0
  5 11  1  0  0  0  0
  6  5  1  0  0  0  0
  7 12  1  0  0  0  0
  7  6  1  0  0  0  0
  8  6  2  0  0  0  0
  8  9  1  0  0  0  0
  9 10  2  0  0  0  0
 10 11  1  0  0  0  0
 11  1  2  0  0  0  0
 13 16  1  0  0  0  0
 14 13  1  0  0  0  0
 14 15  2  0  0  0  0
 17 13  1  0  0  0  0
 18  7  1  0  0  0  0
 19 18  1  0  0  0  0
 19 24  1  0  0  0  0
 20 19  2  0  0  0  0
 21 20  1  0  0  0  0
 21 22  2  0  0  0  0
 22 23  1  0  0  0  0
 23 24  2  0  0  0  0
 23 25  1  0  0  0  0
 25 26  1  0  0  0  0
 25 28  1  0  0  0  0
 26 27  2  0  0  0  0
 26 29  1  0  0  0  0
 29 34  1  0  0  0  0
 30 31  1  0  0  0  0
 30 29  1  0  0  0  0
 31 32  1  0  0  0  0
 32 33  1  0  0  0  0
 34 33  1  0  0  0  0
M  END
>  <minimizedAffinity>
-8.52985668

$$$$
