
 OpenBabel10152420033D

 34 37  0  0  0  0  0  0  0  0999 V2000
   -2.0490   -9.5970  -21.3900 C   0  0  0  0  0  0  0  0  0  0  0  0
   -1.9810  -10.5970  -20.4060 C   0  0  0  0  0  3  0  0  0  0  0  0
   -1.3330  -11.7870  -20.6900 C   0  0  0  0  0  3  0  0  0  0  0  0
   -0.7630  -11.9640  -21.9480 C   0  0  0  0  0  3  0  0  0  0  0  0
   -0.8180  -10.9480  -22.9420 C   0  0  0  0  0  0  0  0  0  0  0  0
   -0.2540  -11.0660  -24.2320 C   0  0  0  0  0  0  0  0  0  0  0  0
    0.3920  -12.2370  -24.6130 N   0  0  0  0  0  0  0  0  0  0  0  0
   -0.3730  -10.0940  -25.1490 N   0  0  0  0  0  0  0  0  0  0  0  0
   -1.0030   -8.9810  -24.7720 C   0  0  0  0  0  3  0  0  0  0  0  0
   -1.5410   -8.7510  -23.5710 N   0  0  0  0  0  0  0  0  0  0  0  0
   -1.4770   -9.7380  -22.6620 C   0  0  0  0  0  0  0  0  0  0  0  0
    0.9380  -12.7110  -23.9110 H   0  0  0  0  0  0  0  0  0  0  0  0
   -3.5470   -7.8380  -22.0650 N   0  0  0  0  0  0  0  0  0  0  0  0
   -2.8030   -8.3750  -21.0510 C   0  0  0  0  0  0  0  0  0  0  0  0
   -2.7140   -7.8390  -19.9560 O   0  0  0  0  0  0  0  0  0  0  0  0
   -4.0710   -6.9970  -21.8620 H   0  0  0  0  0  0  0  0  0  0  0  0
   -3.6520   -8.2740  -22.9700 H   0  0  0  0  0  0  0  0  0  0  0  0
    0.7870  -12.4530  -25.9930 C   0  0  0  0  0  2  0  0  0  0  0  0
    2.1540  -11.9020  -26.3420 C   0  0  0  0  0  0  0  0  0  0  0  0
    3.2770  -12.3790  -25.6480 C   0  0  0  0  0  3  0  0  0  0  0  0
    4.5490  -11.8670  -25.9080 C   0  0  0  0  0  3  0  0  0  0  0  0
    4.7170  -10.8530  -26.8520 C   0  0  0  0  0  3  0  0  0  0  0  0
    3.6130  -10.3330  -27.5220 C   0  0  0  0  0  0  0  0  0  0  0  0
    2.3440  -10.8750  -27.2830 C   0  0  0  0  0  3  0  0  0  0  0  0
    3.7280   -9.3790  -28.5430 N   0  0  0  0  0  0  0  0  0  0  0  0
    3.9180   -8.0290  -28.4820 C   0  0  0  0  0  0  0  0  0  0  0  0
    4.7220   -7.5220  -29.2740 O   0  0  0  0  0  0  0  0  0  0  0  0
    3.9720   -9.7640  -29.4480 H   0  0  0  0  0  0  0  0  0  0  0  0
    2.9220   -7.1230  -27.7420 C   0  0  0  0  0  3  0  0  0  0  0  0
    2.1120   -6.3360  -28.7890 C   0  0  0  0  0  2  0  0  0  0  0  0
    1.2480   -5.2580  -28.1400 C   0  0  0  0  0  2  0  0  0  0  0  0
    0.3410   -5.8340  -27.0570 C   0  0  0  0  0  2  0  0  0  0  0  0
    1.1330   -6.6400  -26.0300 C   0  0  0  0  0  2  0  0  0  0  0  0
    1.9840   -7.7230  -26.6990 C   0  0  0  0  0  2  0  0  0  0  0  0
  1 14  1  0  0  0  0
  1  2  1  0  0  0  0
  3  2  2  0  0  0  0
  4  3  1  0  0  0  0
  5 11  1  0  0  0  0
  5  4  2  0  0  0  0
  6  5  1  0  0  0  0
  7  6  1  0  0  0  0
  7 12  1  0  0  0  0
  8  9  1  0  0  0  0
  8  6  2  0  0  0  0
  9 10  2  0  0  0  0
 10 11  1  0  0  0  0
 11  1  2  0  0  0  0
 13 16  1  0  0  0  0
 13 14  1  0  0  0  0
 14 15  2  0  0  0  0
 17 13  1  0  0  0  0
 18  7  1  0  0  0  0
 19 18  1  0  0  0  0
 19 20  1  0  0  0  0
 21 20  2  0  0  0  0
 22 21  1  0  0  0  0
 23 24  1  0  0  0  0
 23 22  2  0  0  0  0
 24 19  2  0  0  0  0
 25 26  1  0  0  0  0
 25 23  1  0  0  0  0
 26 29  1  0  0  0  0
 27 26  2  0  0  0  0
 28 25  1  0  0  0  0
 29 34  1  0  0  0  0
 30 31  1  0  0  0  0
 30 29  1  0  0  0  0
 31 32  1  0  0  0  0
 32 33  1  0  0  0  0
 34 33  1  0  0  0  0
M  END
>  <minimizedAffinity>
-8.94543076

$$$$
