
 OpenBabel10152420033D

 34 37  0  0  0  0  0  0  0  0999 V2000
   -0.0920   -4.3100  -27.0870 C   0  0  0  0  0  0  0  0  0  0  0  0
    0.3010   -3.9190  -28.3780 C   0  0  0  0  0  3  0  0  0  0  0  0
    1.2700   -4.6490  -29.0440 C   0  0  0  0  0  3  0  0  0  0  0  0
    1.8340   -5.7570  -28.4160 C   0  0  0  0  0  3  0  0  0  0  0  0
    1.4280   -6.1640  -27.1150 C   0  0  0  0  0  0  0  0  0  0  0  0
    1.9560   -7.2810  -26.4300 C   0  0  0  0  0  0  0  0  0  0  0  0
    2.9530   -8.0560  -27.0130 N   0  0  0  0  0  0  0  0  0  0  0  0
    1.5700   -7.5960  -25.1850 N   0  0  0  0  0  0  0  0  0  0  0  0
    0.6200   -6.8390  -24.6360 C   0  0  0  0  0  3  0  0  0  0  0  0
    0.0290   -5.7850  -25.2060 N   0  0  0  0  0  0  0  0  0  0  0  0
    0.4460   -5.4260  -26.4310 C   0  0  0  0  0  0  0  0  0  0  0  0
    2.8970   -8.2080  -28.0070 H   0  0  0  0  0  0  0  0  0  0  0  0
   -0.6300   -2.7860  -25.3040 N   0  0  0  0  0  0  0  0  0  0  0  0
   -1.0850   -3.4600  -26.4040 C   0  0  0  0  0  0  0  0  0  0  0  0
   -2.2550   -3.4130  -26.7570 O   0  0  0  0  0  0  0  0  0  0  0  0
   -1.2910   -2.1990  -24.8120 H   0  0  0  0  0  0  0  0  0  0  0  0
    0.3340   -2.7920  -25.0070 H   0  0  0  0  0  0  0  0  0  0  0  0
    3.6510   -9.0700  -26.2430 C   0  0  0  0  0  2  0  0  0  0  0  0
    2.9540  -10.4150  -26.2090 C   0  0  0  0  0  0  0  0  0  0  0  0
    3.7180  -11.5820  -26.3760 C   0  0  0  0  0  3  0  0  0  0  0  0
    3.1100  -12.8370  -26.3950 C   0  0  0  0  0  3  0  0  0  0  0  0
    1.7240  -12.9470  -26.2710 C   0  0  0  0  0  3  0  0  0  0  0  0
    0.9410  -11.8020  -26.1500 C   0  0  0  0  0  0  0  0  0  0  0  0
    1.5600  -10.5470  -26.0940 C   0  0  0  0  0  3  0  0  0  0  0  0
   -0.4440  -11.8520  -25.9320 N   0  0  0  0  0  0  0  0  0  0  0  0
   -1.2750  -10.9760  -25.2960 C   0  0  0  0  0  0  0  0  0  0  0  0
   -2.3670  -10.7300  -25.8220 O   0  0  0  0  0  0  0  0  0  0  0  0
   -0.9420  -12.4770  -26.5540 H   0  0  0  0  0  0  0  0  0  0  0  0
   -1.0520  -10.6020  -23.8220 C   0  0  0  0  0  3  0  0  0  0  0  0
   -1.8520   -9.3220  -23.5210 C   0  0  0  0  0  2  0  0  0  0  0  0
   -1.5200   -8.7610  -22.1400 C   0  0  0  0  0  2  0  0  0  0  0  0
   -1.7090   -9.8040  -21.0440 C   0  0  0  0  0  2  0  0  0  0  0  0
   -0.9420  -11.0880  -21.3500 C   0  0  0  0  0  2  0  0  0  0  0  0
   -1.2970  -11.6410  -22.7330 C   0  0  0  0  0  2  0  0  0  0  0  0
  1 11  1  0  0  0  0
  1 14  1  0  0  0  0
  2  1  2  0  0  0  0
  3  4  2  0  0  0  0
  3  2  1  0  0  0  0
  4  5  1  0  0  0  0
  5 11  2  0  0  0  0
  5  6  1  0  0  0  0
  6  8  2  0  0  0  0
  7  6  1  0  0  0  0
  7 18  1  0  0  0  0
  8  9  1  0  0  0  0
 10  9  2  0  0  0  0
 11 10  1  0  0  0  0
 12  7  1  0  0  0  0
 13 17  1  0  0  0  0
 13 16  1  0  0  0  0
 14 13  1  0  0  0  0
 15 14  2  0  0  0  0
 18 19  1  0  0  0  0
 19 24  1  0  0  0  0
 20 19  2  0  0  0  0
 21 20  1  0  0  0  0
 21 22  2  0  0  0  0
 22 23  1  0  0  0  0
 23 24  2  0  0  0  0
 23 25  1  0  0  0  0
 25 26  1  0  0  0  0
 26 29  1  0  0  0  0
 27 26  2  0  0  0  0
 28 25  1  0  0  0  0
 29 30  1  0  0  0  0
 29 34  1  0  0  0  0
 30 31  1  0  0  0  0
 31 32  1  0  0  0  0
 33 32  1  0  0  0  0
 34 33  1  0  0  0  0
M  END
>  <minimizedAffinity>
-7.69112492

$$$$
