
 OpenBabel10152420033D

 34 37  0  0  0  0  0  0  0  0999 V2000
   -3.2030   -8.2490  -22.5470 C   0  0  0  0  0  0  0  0  0  0  0  0
   -2.9800   -7.9150  -21.2010 C   0  0  0  0  0  3  0  0  0  0  0  0
   -1.9160   -8.4890  -20.5250 C   0  0  0  0  0  3  0  0  0  0  0  0
   -1.0910   -9.3860  -21.1990 C   0  0  0  0  0  3  0  0  0  0  0  0
   -1.3060   -9.7150  -22.5660 C   0  0  0  0  0  0  0  0  0  0  0  0
   -0.5010  -10.6100  -23.3040 C   0  0  0  0  0  0  0  0  0  0  0  0
    0.5740  -11.2540  -22.6990 N   0  0  0  0  0  0  0  0  0  0  0  0
   -0.7740  -10.9210  -24.5800 N   0  0  0  0  0  0  0  0  0  0  0  0
   -1.8120  -10.3030  -25.1450 C   0  0  0  0  0  3  0  0  0  0  0  0
   -2.6150   -9.4170  -24.5510 N   0  0  0  0  0  0  0  0  0  0  0  0
   -2.3850   -9.1380  -23.2570 C   0  0  0  0  0  0  0  0  0  0  0  0
    1.1060  -10.7260  -22.0250 H   0  0  0  0  0  0  0  0  0  0  0  0
   -5.4590   -7.4280  -22.3790 N   0  0  0  0  0  0  0  0  0  0  0  0
   -4.3860   -7.6520  -23.1960 C   0  0  0  0  0  0  0  0  0  0  0  0
   -4.4280   -7.4360  -24.3990 O   0  0  0  0  0  0  0  0  0  0  0  0
   -6.2860   -7.0240  -22.7980 H   0  0  0  0  0  0  0  0  0  0  0  0
   -5.4400   -7.5780  -21.3810 H   0  0  0  0  0  0  0  0  0  0  0  0
    1.2750  -12.3290  -23.3780 C   0  0  0  0  0  2  0  0  0  0  0  0
    1.6160  -12.0330  -24.8240 C   0  0  0  0  0  0  0  0  0  0  0  0
    1.2380  -12.9530  -25.8150 C   0  0  0  0  0  3  0  0  0  0  0  0
    1.5710  -12.7400  -27.1530 C   0  0  0  0  0  3  0  0  0  0  0  0
    2.3080  -11.6140  -27.5210 C   0  0  0  0  0  3  0  0  0  0  0  0
    2.7340  -10.7100  -26.5510 C   0  0  0  0  0  0  0  0  0  0  0  0
    2.3650  -10.9100  -25.2140 C   0  0  0  0  0  3  0  0  0  0  0  0
    3.3980   -9.5160  -26.8680 N   0  0  0  0  0  0  0  0  0  0  0  0
    3.1910   -8.2400  -26.4310 C   0  0  0  0  0  0  0  0  0  0  0  0
    4.1830   -7.5570  -26.1490 O   0  0  0  0  0  0  0  0  0  0  0  0
    4.3230   -9.6450  -27.2620 H   0  0  0  0  0  0  0  0  0  0  0  0
    1.8360   -7.5450  -26.6360 C   0  0  0  0  0  3  0  0  0  0  0  0
    1.2360   -7.2370  -25.2520 C   0  0  0  0  0  2  0  0  0  0  0  0
   -0.2040   -6.7390  -25.3590 C   0  0  0  0  0  2  0  0  0  0  0  0
   -0.3210   -5.5400  -26.2930 C   0  0  0  0  0  2  0  0  0  0  0  0
    0.2980   -5.8280  -27.6590 C   0  0  0  0  0  2  0  0  0  0  0  0
    1.7450   -6.3140  -27.5310 C   0  0  0  0  0  2  0  0  0  0  0  0
  1  2  1  0  0  0  0
  2  3  2  0  0  0  0
  4  3  1  0  0  0  0
  5  4  2  0  0  0  0
  6  7  1  0  0  0  0
  6  5  1  0  0  0  0
  7 12  1  0  0  0  0
  8  6  2  0  0  0  0
  9  8  1  0  0  0  0
  9 10  2  0  0  0  0
 10 11  1  0  0  0  0
 11  5  1  0  0  0  0
 11  1  2  0  0  0  0
 13 17  1  0  0  0  0
 14  1  1  0  0  0  0
 14 13  1  0  0  0  0
 15 14  2  0  0  0  0
 16 13  1  0  0  0  0
 18  7  1  0  0  0  0
 19 18  1  0  0  0  0
 20 19  2  0  0  0  0
 21 20  1  0  0  0  0
 22 21  2  0  0  0  0
 22 23  1  0  0  0  0
 23 24  2  0  0  0  0
 24 19  1  0  0  0  0
 25 23  1  0  0  0  0
 25 26  1  0  0  0  0
 26 27  2  0  0  0  0
 28 25  1  0  0  0  0
 29 26  1  0  0  0  0
 29 30  1  0  0  0  0
 31 30  1  0  0  0  0
 32 31  1  0  0  0  0
 33 34  1  0  0  0  0
 33 32  1  0  0  0  0
 34 29  1  0  0  0  0
M  END
>  <minimizedAffinity>
-6.69169283

$$$$
