
 OpenBabel10152420033D

 34 37  0  0  0  0  0  0  0  0999 V2000
    3.2460  -11.9670  -26.5100 C   0  0  0  0  0  0  0  0  0  0  0  0
    4.2910  -12.3960  -25.6750 C   0  0  0  0  0  3  0  0  0  0  0  0
    4.0300  -12.6620  -24.3410 C   0  0  0  0  0  3  0  0  0  0  0  0
    2.7350  -12.4970  -23.8590 C   0  0  0  0  0  3  0  0  0  0  0  0
    1.6710  -12.0760  -24.7050 C   0  0  0  0  0  0  0  0  0  0  0  0
    0.3370  -11.8970  -24.2770 C   0  0  0  0  0  0  0  0  0  0  0  0
   -0.0110  -12.1160  -22.9480 N   0  0  0  0  0  0  0  0  0  0  0  0
   -0.6200  -11.4550  -25.1060 N   0  0  0  0  0  0  0  0  0  0  0  0
   -0.2700  -11.2420  -26.3750 C   0  0  0  0  0  3  0  0  0  0  0  0
    0.9490  -11.4120  -26.8920 N   0  0  0  0  0  0  0  0  0  0  0  0
    1.9290  -11.8020  -26.0600 C   0  0  0  0  0  0  0  0  0  0  0  0
    0.4460  -12.8770  -22.4720 H   0  0  0  0  0  0  0  0  0  0  0  0
    3.1900  -12.5510  -28.8440 N   0  0  0  0  0  0  0  0  0  0  0  0
    3.5960  -11.6430  -27.9060 C   0  0  0  0  0  0  0  0  0  0  0  0
    4.2650  -10.6610  -28.1980 O   0  0  0  0  0  0  0  0  0  0  0  0
    3.4210  -12.3570  -29.8090 H   0  0  0  0  0  0  0  0  0  0  0  0
    2.6200  -13.3560  -28.6290 H   0  0  0  0  0  0  0  0  0  0  0  0
   -1.3200  -11.7340  -22.4500 C   0  0  0  0  0  2  0  0  0  0  0  0
   -1.4510  -10.2640  -22.1070 C   0  0  0  0  0  0  0  0  0  0  0  0
   -1.6400   -9.8930  -20.7670 C   0  0  0  0  0  3  0  0  0  0  0  0
   -1.8090   -8.5530  -20.4130 C   0  0  0  0  0  3  0  0  0  0  0  0
   -1.8130   -7.5640  -21.3970 C   0  0  0  0  0  3  0  0  0  0  0  0
   -1.6720   -7.9110  -22.7380 C   0  0  0  0  0  0  0  0  0  0  0  0
   -1.4670   -9.2540  -23.0840 C   0  0  0  0  0  3  0  0  0  0  0  0
   -1.5790   -6.9580  -23.7610 N   0  0  0  0  0  0  0  0  0  0  0  0
   -1.2620   -7.0980  -25.0810 C   0  0  0  0  0  0  0  0  0  0  0  0
   -1.9330   -6.4670  -25.9070 O   0  0  0  0  0  0  0  0  0  0  0  0
   -2.0690   -6.0910  -23.5710 H   0  0  0  0  0  0  0  0  0  0  0  0
    0.0850   -7.6980  -25.5110 C   0  0  0  0  0  3  0  0  0  0  0  0
    0.5470   -6.9830  -26.7940 C   0  0  0  0  0  2  0  0  0  0  0  0
    1.7700   -7.6600  -27.4090 C   0  0  0  0  0  2  0  0  0  0  0  0
    2.9100   -7.7870  -26.4050 C   0  0  0  0  0  2  0  0  0  0  0  0
    2.4540   -8.4700  -25.1180 C   0  0  0  0  0  2  0  0  0  0  0  0
    1.2350   -7.7700  -24.5110 C   0  0  0  0  0  2  0  0  0  0  0  0
  1 11  2  0  0  0  0
  1  2  1  0  0  0  0
  2  3  2  0  0  0  0
  3  4  1  0  0  0  0
  5  6  1  0  0  0  0
  5  4  2  0  0  0  0
  6  7  1  0  0  0  0
  7 12  1  0  0  0  0
  7 18  1  0  0  0  0
  8  6  2  0  0  0  0
  9  8  1  0  0  0  0
 10  9  2  0  0  0  0
 10 11  1  0  0  0  0
 11  5  1  0  0  0  0
 13 17  1  0  0  0  0
 13 14  1  0  0  0  0
 14  1  1  0  0  0  0
 15 14  2  0  0  0  0
 16 13  1  0  0  0  0
 18 19  1  0  0  0  0
 19 20  1  0  0  0  0
 20 21  2  0  0  0  0
 22 21  1  0  0  0  0
 23 22  2  0  0  0  0
 24 23  1  0  0  0  0
 24 19  2  0  0  0  0
 25 28  1  0  0  0  0
 25 23  1  0  0  0  0
 26 25  1  0  0  0  0
 27 26  2  0  0  0  0
 29 26  1  0  0  0  0
 29 34  1  0  0  0  0
 30 29  1  0  0  0  0
 31 30  1  0  0  0  0
 31 32  1  0  0  0  0
 32 33  1  0  0  0  0
 33 34  1  0  0  0  0
M  END
>  <minimizedAffinity>
-8.12997341

$$$$
