
 OpenBabel11232419063D

 41 46  0  0  1  0  0  0  0  0999 V2000
   36.7990   45.1460   17.5410 C   0  0  0  0  0  0  0  0  0  0  0  0
   37.4690   44.9190   18.7310 N   0  0  0  0  0  0  0  0  0  0  0  0
   38.6560   45.4600   18.5840 C   0  0  0  0  0  0  0  0  0  0  0  0
   38.7860   46.0130   17.3440 N   0  0  0  0  0  0  0  0  0  0  0  0
   37.6020   45.8590   16.6560 C   0  0  0  0  0  0  0  0  0  0  0  0
   39.9790   46.7400   16.9520 C   0  0  0  0  0  2  0  0  0  0  0  0
   41.1590   46.3540   17.6910 O   0  0  0  0  0  0  0  0  0  0  0  0
   40.9830   46.0040   19.0060 C   0  0  0  0  0  0  0  0  0  0  0  0
   42.1010   46.0600   19.8330 C   0  0  0  0  0  3  0  0  0  0  0  0
   41.9940   45.6860   21.1770 C   0  0  0  0  0  3  0  0  0  0  0  0
   40.7650   45.2470   21.6920 C   0  0  0  0  0  0  0  0  0  0  0  0
   39.6530   45.1580   20.8430 C   0  0  0  0  0  3  0  0  0  0  0  0
   39.7630   45.5380   19.5060 C   0  0  0  0  0  0  0  0  0  0  0  0
   32.6660   43.9350   17.0100 C   0  0  0  0  0  0  0  0  0  0  0  0
   33.0720   44.9030   17.9560 C   0  0  0  0  0  3  0  0  0  0  0  0
   34.4140   45.2700   18.1210 C   0  0  0  0  0  3  0  0  0  0  0  0
   35.4300   44.6710   17.3700 C   0  0  0  0  0  0  0  0  0  0  0  0
   35.0610   43.6780   16.4650 C   0  0  0  0  0  3  0  0  0  0  0  0
   33.7130   43.3210   16.2930 C   0  0  0  0  0  3  0  0  0  0  0  0
   29.2770   40.6630   17.0860 C   0  0  0  0  0  1  0  0  0  0  0  0
   30.5000   41.5640   17.1130 C   0  0  1  0  0  0  0  0  0  0  0  0
   30.6750   42.4350   15.8400 C   0  0  0  0  0  2  0  0  0  0  0  0
   31.1230   43.6050   16.7670 C   0  0  1  0  0  0  0  0  0  0  0  0
   30.3400   42.8890   17.9090 C   0  0  0  0  0  2  0  0  0  0  0  0
   30.4700   44.8700   16.3440 N   0  0  0  0  0  4  0  0  0  0  0  0
   30.5090   45.5820   17.0830 H   0  0  0  0  0  0  0  0  0  0  0  0
   30.9630   45.2720   15.5340 H   0  0  0  0  0  0  0  0  0  0  0  0
   29.4850   44.7520   16.0800 H   0  0  0  0  0  0  0  0  0  0  0  0
   31.6690   40.7930   17.4460 O   0  0  0  0  0  0  0  0  0  0  0  0
   31.4570   40.2920   18.2570 H   0  0  0  0  0  0  0  0  0  0  0  0
   37.4020   46.3760   15.3120 C   0  0  0  0  0  0  0  0  0  0  0  0
   37.3020   47.7540   15.0920 C   0  0  0  0  0  3  0  0  0  0  0  0
   37.0810   48.2430   13.8040 C   0  0  0  0  0  3  0  0  0  0  0  0
   36.9640   47.3580   12.7310 C   0  0  0  0  0  3  0  0  0  0  0  0
   37.0650   45.9850   12.9440 C   0  0  0  0  0  3  0  0  0  0  0  0
   37.2780   45.4930   14.2320 C   0  0  0  0  0  3  0  0  0  0  0  0
   40.5910   44.8410   23.1130 C   0  0  0  0  0  0  0  0  0  0  0  0
   40.3320   43.5260   23.3760 N   0  0  0  0  0  0  0  0  0  0  0  0
   40.7050   45.6490   24.0280 O   0  0  0  0  0  0  0  0  0  0  0  0
   40.2230   43.2650   24.3480 H   0  0  0  0  0  0  0  0  0  0  0  0
   40.3100   42.7920   22.6840 H   0  0  0  0  0  0  0  0  0  0  0  0
  1  2  1  0  0  0  0
  3  2  2  0  0  0  0
  3 13  1  0  0  0  0
  4  3  1  0  0  0  0
  5  4  1  0  0  0  0
  5  1  2  0  0  0  0
  6  4  1  0  0  0  0
  6  7  1  0  0  0  0
  7  8  1  0  0  0  0
  8 13  2  0  0  0  0
  8  9  1  0  0  0  0
  9 10  2  0  0  0  0
 10 11  1  0  0  0  0
 11 37  1  0  0  0  0
 12 11  2  0  0  0  0
 13 12  1  0  0  0  0
 14 15  1  0  0  0  0
 15 16  2  0  0  0  0
 17  1  1  0  0  0  0
 17 16  1  0  0  0  0
 18 17  2  0  0  0  0
 19 18  1  0  0  0  0
 19 14  2  0  0  0  0
 21 20  1  6  0  0  0
 21 29  1  0  0  0  0
 21 24  1  0  0  0  0
 22 23  1  0  0  0  0
 22 21  1  0  0  0  0
 23 25  1  6  0  0  0
 23 14  1  0  0  0  0
 23 24  1  0  0  0  0
 25 26  1  0  0  0  0
 27 25  1  0  0  0  0
 28 25  1  0  0  0  0
 29 30  1  0  0  0  0
 31  5  1  0  0  0  0
 32 31  1  0  0  0  0
 33 32  2  0  0  0  0
 34 35  2  0  0  0  0
 34 33  1  0  0  0  0
 35 36  1  0  0  0  0
 36 31  2  0  0  0  0
 37 38  1  0  0  0  0
 37 39  2  0  0  0  0
 38 40  1  0  0  0  0
 41 38  1  0  0  0  0
M  END
>  <minimizedAffinity>
-12.5406227

$$$$

 OpenBabel11232419063D

 41 46  0  0  1  0  0  0  0  0999 V2000
   36.9650   44.5020   19.2270 C   0  0  0  0  0  0  0  0  0  0  0  0
   37.9110   45.2970   18.6020 N   0  0  0  0  0  0  0  0  0  0  0  0
   37.4490   45.5220   17.3940 C   0  0  0  0  0  0  0  0  0  0  0  0
   36.2530   44.8950   17.2070 N   0  0  0  0  0  0  0  0  0  0  0  0
   35.8940   44.2540   18.3730 C   0  0  0  0  0  0  0  0  0  0  0  0
   35.4950   45.0440   15.9790 C   0  0  0  0  0  2  0  0  0  0  0  0
   36.3090   45.3890   14.8370 O   0  0  0  0  0  0  0  0  0  0  0  0
   37.3890   46.2020   15.0660 C   0  0  0  0  0  0  0  0  0  0  0  0
   37.9090   46.8910   13.9730 C   0  0  0  0  0  3  0  0  0  0  0  0
   39.0310   47.7120   14.1350 C   0  0  0  0  0  3  0  0  0  0  0  0
   39.6380   47.8380   15.3930 C   0  0  0  0  0  0  0  0  0  0  0  0
   39.1310   47.1120   16.4800 C   0  0  0  0  0  3  0  0  0  0  0  0
   38.0090   46.2990   16.3150 C   0  0  0  0  0  0  0  0  0  0  0  0
   37.5280   43.4040   23.3860 C   0  0  0  0  0  0  0  0  0  0  0  0
   38.1760   44.5040   22.7830 C   0  0  0  0  0  3  0  0  0  0  0  0
   37.9910   44.8350   21.4350 C   0  0  0  0  0  3  0  0  0  0  0  0
   37.1690   44.0660   20.6040 C   0  0  0  0  0  0  0  0  0  0  0  0
   36.5570   42.9460   21.1620 C   0  0  0  0  0  3  0  0  0  0  0  0
   36.7350   42.6250   22.5190 C   0  0  0  0  0  3  0  0  0  0  0  0
   37.0870   45.0670   27.7730 C   0  0  0  0  0  1  0  0  0  0  0  0
   37.1750   44.7220   26.2960 C   0  0  1  0  0  0  0  0  0  0  0  0
   38.5040   44.0340   25.8830 C   0  0  0  0  0  2  0  0  0  0  0  0
   37.6720   43.1060   24.9480 C   0  0  1  0  0  0  0  0  0  0  0  0
   36.4520   43.4160   25.8670 C   0  0  0  0  0  2  0  0  0  0  0  0
   38.1350   41.7010   25.0810 N   0  0  0  0  0  4  0  0  0  0  0  0
   37.4410   41.0370   24.7140 H   0  0  0  0  0  0  0  0  0  0  0  0
   38.9910   41.5530   24.5280 H   0  0  0  0  0  0  0  0  0  0  0  0
   38.3400   41.4280   26.0500 H   0  0  0  0  0  0  0  0  0  0  0  0
   36.8580   45.8800   25.5030 O   0  0  0  0  0  0  0  0  0  0  0  0
   36.0090   46.2290   25.8360 H   0  0  0  0  0  0  0  0  0  0  0  0
   34.6470   43.5200   18.5130 C   0  0  0  0  0  0  0  0  0  0  0  0
   34.4870   42.2720   17.9020 C   0  0  0  0  0  3  0  0  0  0  0  0
   33.2770   41.5860   18.0160 C   0  0  0  0  0  3  0  0  0  0  0  0
   32.2250   42.1410   18.7450 C   0  0  0  0  0  3  0  0  0  0  0  0
   32.3790   43.3840   19.3590 C   0  0  0  0  0  3  0  0  0  0  0  0
   33.5840   44.0750   19.2390 C   0  0  0  0  0  3  0  0  0  0  0  0
   40.8290   48.6990   15.6260 C   0  0  0  0  0  0  0  0  0  0  0  0
   41.1510   49.6180   14.6690 N   0  0  0  0  0  0  0  0  0  0  0  0
   41.4880   48.6140   16.6560 O   0  0  0  0  0  0  0  0  0  0  0  0
   41.9610   50.2010   14.8460 H   0  0  0  0  0  0  0  0  0  0  0  0
   40.6080   49.8040   13.8400 H   0  0  0  0  0  0  0  0  0  0  0  0
  1 17  1  0  0  0  0
  2  1  1  0  0  0  0
  3  2  2  0  0  0  0
  4  3  1  0  0  0  0
  4  5  1  0  0  0  0
  5 31  1  0  0  0  0
  5  1  2  0  0  0  0
  6  4  1  0  0  0  0
  7  8  1  0  0  0  0
  7  6  1  0  0  0  0
  8 13  1  0  0  0  0
  9 10  1  0  0  0  0
  9  8  2  0  0  0  0
 10 11  2  0  0  0  0
 11 37  1  0  0  0  0
 11 12  1  0  0  0  0
 13 12  2  0  0  0  0
 13  3  1  0  0  0  0
 14 23  1  0  0  0  0
 15 14  1  0  0  0  0
 16 15  2  0  0  0  0
 17 18  2  0  0  0  0
 17 16  1  0  0  0  0
 18 19  1  0  0  0  0
 19 14  2  0  0  0  0
 21 20  1  1  0  0  0
 22 21  1  0  0  0  0
 23 25  1  1  0  0  0
 23 24  1  0  0  0  0
 23 22  1  0  0  0  0
 24 21  1  0  0  0  0
 25 28  1  0  0  0  0
 26 25  1  0  0  0  0
 27 25  1  0  0  0  0
 29 30  1  0  0  0  0
 29 21  1  0  0  0  0
 31 36  1  0  0  0  0
 32 33  1  0  0  0  0
 32 31  2  0  0  0  0
 33 34  2  0  0  0  0
 34 35  1  0  0  0  0
 36 35  2  0  0  0  0
 37 39  2  0  0  0  0
 38 40  1  0  0  0  0
 38 37  1  0  0  0  0
 41 38  1  0  0  0  0
M  END
>  <minimizedAffinity>
-12.4794416

$$$$

 OpenBabel11232419063D

 41 46  0  0  1  0  0  0  0  0999 V2000
   34.9140   42.7110   19.3490 C   0  0  0  0  0  0  0  0  0  0  0  0
   33.8850   41.8170   19.5930 N   0  0  0  0  0  0  0  0  0  0  0  0
   33.0740   41.9140   18.5660 C   0  0  0  0  0  0  0  0  0  0  0  0
   33.5270   42.8430   17.6760 N   0  0  0  0  0  0  0  0  0  0  0  0
   34.7220   43.3550   18.1300 C   0  0  0  0  0  0  0  0  0  0  0  0
   32.8490   43.0910   16.4170 C   0  0  0  0  0  2  0  0  0  0  0  0
   31.4470   42.7440   16.4380 O   0  0  0  0  0  0  0  0  0  0  0  0
   31.0860   41.6600   17.1970 C   0  0  0  0  0  0  0  0  0  0  0  0
   29.8700   41.0510   16.8970 C   0  0  0  0  0  3  0  0  0  0  0  0
   29.4310   39.9600   17.6550 C   0  0  0  0  0  3  0  0  0  0  0  0
   30.2060   39.4830   18.7220 C   0  0  0  0  0  0  0  0  0  0  0  0
   31.4110   40.1250   19.0410 C   0  0  0  0  0  3  0  0  0  0  0  0
   31.8480   41.2090   18.2790 C   0  0  0  0  0  0  0  0  0  0  0  0
   38.0860   43.3250   22.2440 C   0  0  0  0  0  0  0  0  0  0  0  0
   37.8120   44.2300   21.1950 C   0  0  0  0  0  3  0  0  0  0  0  0
   36.7910   44.0070   20.2620 C   0  0  0  0  0  3  0  0  0  0  0  0
   36.0040   42.8520   20.3080 C   0  0  0  0  0  0  0  0  0  0  0  0
   36.2870   41.9190   21.3030 C   0  0  0  0  0  3  0  0  0  0  0  0
   37.3030   42.1530   22.2450 C   0  0  0  0  0  3  0  0  0  0  0  0
   39.0500   45.4680   26.3280 C   0  0  0  0  0  1  0  0  0  0  0  0
   38.5490   44.8610   25.0280 C   0  0  1  0  0  0  0  0  0  0  0  0
   39.4820   45.1080   23.8120 C   0  0  0  0  0  2  0  0  0  0  0  0
   39.1860   43.6480   23.3560 C   0  0  1  0  0  0  0  0  0  0  0  0
   38.8310   43.3440   24.8430 C   0  0  0  0  0  2  0  0  0  0  0  0
   40.4430   42.9820   22.9290 N   0  0  0  0  0  4  0  0  0  0  0  0
   40.3390   41.9600   22.9010 H   0  0  0  0  0  0  0  0  0  0  0  0
   40.6930   43.2700   21.9730 H   0  0  0  0  0  0  0  0  0  0  0  0
   41.2430   43.1940   23.5360 H   0  0  0  0  0  0  0  0  0  0  0  0
   37.1850   45.2570   24.7960 O   0  0  0  0  0  0  0  0  0  0  0  0
   36.6880   45.0550   25.6110 H   0  0  0  0  0  0  0  0  0  0  0  0
   35.4850   44.3450   17.3860 C   0  0  0  0  0  0  0  0  0  0  0  0
   36.4990   43.9440   16.5100 C   0  0  0  0  0  3  0  0  0  0  0  0
   37.2480   44.9000   15.8210 C   0  0  0  0  0  3  0  0  0  0  0  0
   36.9830   46.2580   16.0010 C   0  0  0  0  0  3  0  0  0  0  0  0
   35.9710   46.6630   16.8710 C   0  0  0  0  0  3  0  0  0  0  0  0
   35.2270   45.7100   17.5670 C   0  0  0  0  0  3  0  0  0  0  0  0
   29.7920   38.3250   19.5600 C   0  0  0  0  0  0  0  0  0  0  0  0
   30.4620   38.1080   20.7290 N   0  0  0  0  0  0  0  0  0  0  0  0
   28.8570   37.6010   19.2330 O   0  0  0  0  0  0  0  0  0  0  0  0
   30.1630   37.3200   21.2910 H   0  0  0  0  0  0  0  0  0  0  0  0
   31.1800   38.7090   21.1040 H   0  0  0  0  0  0  0  0  0  0  0  0
  1  2  1  0  0  0  0
  1 17  1  0  0  0  0
  3  2  2  0  0  0  0
  4  5  1  0  0  0  0
  4  3  1  0  0  0  0
  5  1  2  0  0  0  0
  6  7  1  0  0  0  0
  6  4  1  0  0  0  0
  7  8  1  0  0  0  0
  8 13  1  0  0  0  0
  9  8  2  0  0  0  0
  9 10  1  0  0  0  0
 10 11  2  0  0  0  0
 11 12  1  0  0  0  0
 11 37  1  0  0  0  0
 13  3  1  0  0  0  0
 13 12  2  0  0  0  0
 14 19  1  0  0  0  0
 14 23  1  0  0  0  0
 15 14  2  0  0  0  0
 16 17  2  0  0  0  0
 16 15  1  0  0  0  0
 17 18  1  0  0  0  0
 18 19  2  0  0  0  0
 21 20  1  1  0  0  0
 22 21  1  0  0  0  0
 23 25  1  6  0  0  0
 23 22  1  0  0  0  0
 23 24  1  0  0  0  0
 24 21  1  0  0  0  0
 25 28  1  0  0  0  0
 26 25  1  0  0  0  0
 27 25  1  0  0  0  0
 29 21  1  0  0  0  0
 29 30  1  0  0  0  0
 31 36  1  0  0  0  0
 31  5  1  0  0  0  0
 32 31  2  0  0  0  0
 33 34  2  0  0  0  0
 33 32  1  0  0  0  0
 34 35  1  0  0  0  0
 35 36  2  0  0  0  0
 37 38  1  0  0  0  0
 38 41  1  0  0  0  0
 38 40  1  0  0  0  0
 39 37  2  0  0  0  0
M  END
>  <minimizedAffinity>
-12.1508608

$$$$

 OpenBabel11232419063D

 41 46  0  0  1  0  0  0  0  0999 V2000
   35.3000   44.1910   18.1980 C   0  0  0  0  0  0  0  0  0  0  0  0
   35.6130   43.8650   19.5060 N   0  0  0  0  0  0  0  0  0  0  0  0
   36.8540   44.2510   19.6860 C   0  0  0  0  0  0  0  0  0  0  0  0
   37.3610   44.8000   18.5450 N   0  0  0  0  0  0  0  0  0  0  0  0
   36.3820   44.8070   17.5760 C   0  0  0  0  0  0  0  0  0  0  0  0
   38.6930   45.3730   18.4980 C   0  0  0  0  0  2  0  0  0  0  0  0
   39.5910   44.8290   19.4920 O   0  0  0  0  0  0  0  0  0  0  0  0
   39.0450   44.4880   20.7030 C   0  0  0  0  0  0  0  0  0  0  0  0
   39.9140   44.3890   21.7860 C   0  0  0  0  0  3  0  0  0  0  0  0
   39.4230   44.0140   23.0420 C   0  0  0  0  0  3  0  0  0  0  0  0
   38.0600   43.7300   23.2120 C   0  0  0  0  0  0  0  0  0  0  0  0
   37.1980   43.7950   22.1080 C   0  0  0  0  0  3  0  0  0  0  0  0
   37.6910   44.1760   20.8590 C   0  0  0  0  0  0  0  0  0  0  0  0
   31.2930   43.2670   16.8160 C   0  0  0  0  0  0  0  0  0  0  0  0
   32.0650   42.3780   17.5960 C   0  0  0  0  0  3  0  0  0  0  0  0
   33.3630   42.6900   18.0210 C   0  0  0  0  0  3  0  0  0  0  0  0
   33.9730   43.8980   17.6670 C   0  0  0  0  0  0  0  0  0  0  0  0
   33.2500   44.7710   16.8570 C   0  0  0  0  0  3  0  0  0  0  0  0
   31.9440   44.4600   16.4430 C   0  0  0  0  0  3  0  0  0  0  0  0
   27.6590   40.3050   17.2990 C   0  0  0  0  0  1  0  0  0  0  0  0
   28.9380   41.1250   17.2600 C   0  0  1  0  0  0  0  0  0  0  0  0
   29.3730   41.5530   15.8330 C   0  0  0  0  0  2  0  0  0  0  0  0
   29.7790   42.9350   16.4290 C   0  0  1  0  0  0  0  0  0  0  0  0
   28.7780   42.6360   17.5850 C   0  0  0  0  0  2  0  0  0  0  0  0
   29.3070   44.0310   15.5440 N   0  0  0  0  0  4  0  0  0  0  0  0
   29.2980   44.9350   16.0330 H   0  0  0  0  0  0  0  0  0  0  0  0
   29.9470   44.1450   14.7450 H   0  0  0  0  0  0  0  0  0  0  0  0
   28.3650   43.8740   15.1670 H   0  0  0  0  0  0  0  0  0  0  0  0
   29.9740   40.4520   17.9980 O   0  0  0  0  0  0  0  0  0  0  0  0
   29.6030   40.2340   18.8740 H   0  0  0  0  0  0  0  0  0  0  0  0
   36.5950   45.3630   16.2490 C   0  0  0  0  0  0  0  0  0  0  0  0
   36.6330   46.7490   16.0610 C   0  0  0  0  0  3  0  0  0  0  0  0
   36.8080   47.2770   14.7810 C   0  0  0  0  0  3  0  0  0  0  0  0
   36.9520   46.4230   13.6860 C   0  0  0  0  0  3  0  0  0  0  0  0
   36.9180   45.0420   13.8680 C   0  0  0  0  0  3  0  0  0  0  0  0
   36.7350   44.5120   15.1460 C   0  0  0  0  0  3  0  0  0  0  0  0
   37.4810   43.3310   24.5230 C   0  0  0  0  0  0  0  0  0  0  0  0
   37.3470   44.2930   25.4830 N   0  0  0  0  0  0  0  0  0  0  0  0
   37.1060   42.1830   24.7340 O   0  0  0  0  0  0  0  0  0  0  0  0
   36.9450   44.0060   26.3670 H   0  0  0  0  0  0  0  0  0  0  0  0
   37.5520   45.2720   25.3520 H   0  0  0  0  0  0  0  0  0  0  0  0
  1  2  1  0  0  0  0
  2  3  2  0  0  0  0
  3 13  1  0  0  0  0
  4  3  1  0  0  0  0
  5  1  2  0  0  0  0
  5  4  1  0  0  0  0
  6  4  1  0  0  0  0
  6  7  1  0  0  0  0
  7  8  1  0  0  0  0
  8 13  2  0  0  0  0
  8  9  1  0  0  0  0
  9 10  2  0  0  0  0
 10 11  1  0  0  0  0
 11 37  1  0  0  0  0
 12 11  2  0  0  0  0
 13 12  1  0  0  0  0
 14 15  1  0  0  0  0
 15 16  2  0  0  0  0
 17 16  1  0  0  0  0
 17  1  1  0  0  0  0
 18 17  2  0  0  0  0
 19 14  2  0  0  0  0
 19 18  1  0  0  0  0
 21 20  1  1  0  0  0
 21 24  1  0  0  0  0
 21 29  1  0  0  0  0
 22 23  1  0  0  0  0
 22 21  1  0  0  0  0
 23 25  1  6  0  0  0
 23 14  1  0  0  0  0
 23 24  1  0  0  0  0
 25 26  1  0  0  0  0
 27 25  1  0  0  0  0
 28 25  1  0  0  0  0
 29 30  1  0  0  0  0
 31  5  1  0  0  0  0
 32 31  1  0  0  0  0
 33 32  2  0  0  0  0
 34 35  2  0  0  0  0
 34 33  1  0  0  0  0
 35 36  1  0  0  0  0
 36 31  2  0  0  0  0
 37 39  2  0  0  0  0
 37 38  1  0  0  0  0
 38 40  1  0  0  0  0
 41 38  1  0  0  0  0
M  END
>  <minimizedAffinity>
-11.5506554

$$$$

 OpenBabel11232419063D

 41 46  0  0  1  0  0  0  0  0999 V2000
   36.7030   44.3850   18.3410 C   0  0  0  0  0  0  0  0  0  0  0  0
   35.6450   43.5590   18.6790 N   0  0  0  0  0  0  0  0  0  0  0  0
   34.7740   43.6740   17.7040 C   0  0  0  0  0  0  0  0  0  0  0  0
   35.2180   44.5500   16.7580 N   0  0  0  0  0  0  0  0  0  0  0  0
   36.4680   45.0040   17.1160 C   0  0  0  0  0  0  0  0  0  0  0  0
   34.4730   44.8010   15.5380 C   0  0  0  0  0  2  0  0  0  0  0  0
   33.0580   44.5360   15.6610 O   0  0  0  0  0  0  0  0  0  0  0  0
   32.6880   43.4960   16.4760 C   0  0  0  0  0  0  0  0  0  0  0  0
   31.4230   42.9500   16.2750 C   0  0  0  0  0  3  0  0  0  0  0  0
   30.9750   41.9080   17.0940 C   0  0  0  0  0  3  0  0  0  0  0  0
   31.7920   41.4170   18.1230 C   0  0  0  0  0  0  0  0  0  0  0  0
   33.0490   41.9970   18.3430 C   0  0  0  0  0  3  0  0  0  0  0  0
   33.4950   43.0320   17.5190 C   0  0  0  0  0  0  0  0  0  0  0  0
   40.0960   44.5040   21.0420 C   0  0  0  0  0  0  0  0  0  0  0  0
   38.7740   44.2560   21.4730 C   0  0  0  0  0  3  0  0  0  0  0  0
   37.6900   44.2340   20.5860 C   0  0  0  0  0  3  0  0  0  0  0  0
   37.8620   44.4890   19.2220 C   0  0  0  0  0  0  0  0  0  0  0  0
   39.1490   44.7850   18.7790 C   0  0  0  0  0  3  0  0  0  0  0  0
   40.2360   44.7930   19.6700 C   0  0  0  0  0  3  0  0  0  0  0  0
   42.2010   46.3220   24.8470 C   0  0  0  0  0  1  0  0  0  0  0  0
   41.3830   45.8900   23.6400 C   0  0  1  0  0  0  0  0  0  0  0  0
   42.2220   45.6650   22.3540 C   0  0  0  0  0  2  0  0  0  0  0  0
   41.3300   44.4230   22.0530 C   0  0  1  0  0  0  0  0  0  0  0  0
   41.0220   44.3800   23.5800 C   0  0  0  0  0  2  0  0  0  0  0  0
   42.1740   43.2830   21.6160 N   0  0  0  0  0  4  0  0  0  0  0  0
   41.6710   42.3900   21.6880 H   0  0  0  0  0  0  0  0  0  0  0  0
   42.4290   43.3870   20.6240 H   0  0  0  0  0  0  0  0  0  0  0  0
   43.0450   43.1900   22.1520 H   0  0  0  0  0  0  0  0  0  0  0  0
   40.2740   46.7870   23.4540 O   0  0  0  0  0  0  0  0  0  0  0  0
   39.8140   46.8530   24.3130 H   0  0  0  0  0  0  0  0  0  0  0  0
   37.2330   45.9270   16.2940 C   0  0  0  0  0  0  0  0  0  0  0  0
   36.8330   47.2620   16.1680 C   0  0  0  0  0  3  0  0  0  0  0  0
   37.5560   48.1350   15.3540 C   0  0  0  0  0  3  0  0  0  0  0  0
   38.6830   47.6810   14.6680 C   0  0  0  0  0  3  0  0  0  0  0  0
   39.0880   46.3530   14.7920 C   0  0  0  0  0  3  0  0  0  0  0  0
   38.3630   45.4760   15.5990 C   0  0  0  0  0  3  0  0  0  0  0  0
   31.3710   40.3090   19.0220 C   0  0  0  0  0  0  0  0  0  0  0  0
   30.2480   39.6070   18.6900 N   0  0  0  0  0  0  0  0  0  0  0  0
   32.0230   40.0080   20.0160 O   0  0  0  0  0  0  0  0  0  0  0  0
   29.9780   38.8510   19.3080 H   0  0  0  0  0  0  0  0  0  0  0  0
   29.7110   39.7400   17.8460 H   0  0  0  0  0  0  0  0  0  0  0  0
  1  2  1  0  0  0  0
  1 17  1  0  0  0  0
  3  2  2  0  0  0  0
  4  5  1  0  0  0  0
  4  3  1  0  0  0  0
  5  1  2  0  0  0  0
  6  7  1  0  0  0  0
  6  4  1  0  0  0  0
  7  8  1  0  0  0  0
  8 13  1  0  0  0  0
  9  8  2  0  0  0  0
  9 10  1  0  0  0  0
 10 11  2  0  0  0  0
 11 12  1  0  0  0  0
 11 37  1  0  0  0  0
 13  3  1  0  0  0  0
 13 12  2  0  0  0  0
 14 15  1  0  0  0  0
 14 23  1  0  0  0  0
 16 15  2  0  0  0  0
 17 16  1  0  0  0  0
 18 17  2  0  0  0  0
 18 19  1  0  0  0  0
 19 14  2  0  0  0  0
 21 20  1  1  0  0  0
 22 21  1  0  0  0  0
 23 25  1  6  0  0  0
 23 22  1  0  0  0  0
 23 24  1  0  0  0  0
 24 21  1  0  0  0  0
 25 26  1  0  0  0  0
 25 28  1  0  0  0  0
 27 25  1  0  0  0  0
 29 21  1  0  0  0  0
 29 30  1  0  0  0  0
 31  5  1  0  0  0  0
 32 31  1  0  0  0  0
 33 32  2  0  0  0  0
 34 35  2  0  0  0  0
 34 33  1  0  0  0  0
 35 36  1  0  0  0  0
 36 31  2  0  0  0  0
 37 39  2  0  0  0  0
 38 37  1  0  0  0  0
 38 40  1  0  0  0  0
 41 38  1  0  0  0  0
M  END
>  <minimizedAffinity>
-11.4998465

$$$$

 OpenBabel11232419063D

 41 46  0  0  1  0  0  0  0  0999 V2000
   36.2520   43.9560   19.5130 C   0  0  0  0  0  0  0  0  0  0  0  0
   34.9610   43.5070   19.2950 N   0  0  0  0  0  0  0  0  0  0  0  0
   34.6550   43.8720   18.0720 C   0  0  0  0  0  0  0  0  0  0  0  0
   35.6870   44.5500   17.4960 N   0  0  0  0  0  0  0  0  0  0  0  0
   36.7430   44.5980   18.3790 C   0  0  0  0  0  0  0  0  0  0  0  0
   35.6320   45.0010   16.1170 C   0  0  0  0  0  2  0  0  0  0  0  0
   34.2870   45.1920   15.6270 O   0  0  0  0  0  0  0  0  0  0  0  0
   33.3260   44.3330   16.0950 C   0  0  0  0  0  0  0  0  0  0  0  0
   32.1640   44.2050   15.3370 C   0  0  0  0  0  3  0  0  0  0  0  0
   31.1330   43.3680   15.7780 C   0  0  0  0  0  3  0  0  0  0  0  0
   31.2610   42.6630   16.9850 C   0  0  0  0  0  0  0  0  0  0  0  0
   32.4180   42.8270   17.7600 C   0  0  0  0  0  3  0  0  0  0  0  0
   33.4460   43.6580   17.3130 C   0  0  0  0  0  0  0  0  0  0  0  0
   38.1360   43.4120   23.3830 C   0  0  0  0  0  0  0  0  0  0  0  0
   38.3460   44.5510   22.5750 C   0  0  0  0  0  3  0  0  0  0  0  0
   37.7380   44.7030   21.3220 C   0  0  0  0  0  3  0  0  0  0  0  0
   36.9080   43.7090   20.7920 C   0  0  0  0  0  0  0  0  0  0  0  0
   36.7240   42.5530   21.5480 C   0  0  0  0  0  3  0  0  0  0  0  0
   37.3250   42.4110   22.8100 C   0  0  0  0  0  3  0  0  0  0  0  0
   37.3930   43.8480   28.0160 C   0  0  0  0  0  1  0  0  0  0  0  0
   37.4370   43.7750   26.4980 C   0  0  1  0  0  0  0  0  0  0  0  0
   38.6620   44.4860   25.8640 C   0  0  0  0  0  2  0  0  0  0  0  0
   38.7560   43.3060   24.8500 C   0  0  1  0  0  0  0  0  0  0  0  0
   37.9920   42.4500   25.9060 C   0  0  0  0  0  2  0  0  0  0  0  0
   40.1700   42.8790   24.6950 N   0  0  0  0  0  4  0  0  0  0  0  0
   40.2380   41.9440   24.2740 H   0  0  0  0  0  0  0  0  0  0  0  0
   40.6670   43.5160   24.0570 H   0  0  0  0  0  0  0  0  0  0  0  0
   40.6900   42.8580   25.5800 H   0  0  0  0  0  0  0  0  0  0  0  0
   36.1770   44.2030   25.9510 O   0  0  0  0  0  0  0  0  0  0  0  0
   35.4810   43.6940   26.4090 H   0  0  0  0  0  0  0  0  0  0  0  0
   38.0140   45.2230   18.0500 C   0  0  0  0  0  0  0  0  0  0  0  0
   39.2040   44.7430   18.6090 C   0  0  0  0  0  3  0  0  0  0  0  0
   40.4180   45.3650   18.3120 C   0  0  0  0  0  3  0  0  0  0  0  0
   40.4480   46.4650   17.4530 C   0  0  0  0  0  3  0  0  0  0  0  0
   39.2660   46.9450   16.8910 C   0  0  0  0  0  3  0  0  0  0  0  0
   38.0510   46.3300   17.1930 C   0  0  0  0  0  3  0  0  0  0  0  0
   30.2000   41.7570   17.5000 C   0  0  0  0  0  0  0  0  0  0  0  0
   30.5770   40.5280   17.9620 N   0  0  0  0  0  0  0  0  0  0  0  0
   29.0260   42.1060   17.5420 O   0  0  0  0  0  0  0  0  0  0  0  0
   29.8430   39.9260   18.3170 H   0  0  0  0  0  0  0  0  0  0  0  0
   31.5300   40.2070   18.0400 H   0  0  0  0  0  0  0  0  0  0  0  0
  1 17  1  0  0  0  0
  2  1  1  0  0  0  0
  3  2  2  0  0  0  0
  4  3  1  0  0  0  0
  4  5  1  0  0  0  0
  5  1  2  0  0  0  0
  6  4  1  0  0  0  0
  7  8  1  0  0  0  0
  7  6  1  0  0  0  0
  8 13  1  0  0  0  0
  9 10  1  0  0  0  0
  9  8  2  0  0  0  0
 10 11  2  0  0  0  0
 11 37  1  0  0  0  0
 11 12  1  0  0  0  0
 13 12  2  0  0  0  0
 13  3  1  0  0  0  0
 14 23  1  0  0  0  0
 15 14  2  0  0  0  0
 16 15  1  0  0  0  0
 17 16  2  0  0  0  0
 17 18  1  0  0  0  0
 18 19  2  0  0  0  0
 19 14  1  0  0  0  0
 21 20  1  1  0  0  0
 22 21  1  0  0  0  0
 23 25  1  6  0  0  0
 23 22  1  0  0  0  0
 23 24  1  0  0  0  0
 24 21  1  0  0  0  0
 25 28  1  0  0  0  0
 26 25  1  0  0  0  0
 27 25  1  0  0  0  0
 29 30  1  0  0  0  0
 29 21  1  0  0  0  0
 31  5  1  0  0  0  0
 31 32  1  0  0  0  0
 33 32  2  0  0  0  0
 34 33  1  0  0  0  0
 35 36  1  0  0  0  0
 35 34  2  0  0  0  0
 36 31  2  0  0  0  0
 37 39  2  0  0  0  0
 37 38  1  0  0  0  0
 38 41  1  0  0  0  0
 38 40  1  0  0  0  0
M  END
>  <minimizedAffinity>
-11.4087372

$$$$

 OpenBabel11232419063D

 41 46  0  0  1  0  0  0  0  0999 V2000
   36.6630   43.9110   20.4490 C   0  0  0  0  0  0  0  0  0  0  0  0
   35.3910   43.6180   19.9880 N   0  0  0  0  0  0  0  0  0  0  0  0
   35.3540   44.0370   18.7450 C   0  0  0  0  0  0  0  0  0  0  0  0
   36.5420   44.6020   18.3880 N   0  0  0  0  0  0  0  0  0  0  0  0
   37.4190   44.5120   19.4470 C   0  0  0  0  0  0  0  0  0  0  0  0
   36.7880   45.0800   17.0400 C   0  0  0  0  0  2  0  0  0  0  0  0
   35.5840   45.4340   16.3250 O   0  0  0  0  0  0  0  0  0  0  0  0
   34.4650   44.6840   16.5810 C   0  0  0  0  0  0  0  0  0  0  0  0
   33.4530   44.7040   15.6240 C   0  0  0  0  0  3  0  0  0  0  0  0
   32.2730   43.9840   15.8410 C   0  0  0  0  0  3  0  0  0  0  0  0
   32.1020   43.2480   17.0230 C   0  0  0  0  0  0  0  0  0  0  0  0
   33.1090   43.2640   17.9980 C   0  0  0  0  0  3  0  0  0  0  0  0
   34.2870   43.9780   17.7740 C   0  0  0  0  0  0  0  0  0  0  0  0
   37.6990   43.0660   24.5760 C   0  0  0  0  0  0  0  0  0  0  0  0
   37.9740   44.3000   23.9480 C   0  0  0  0  0  3  0  0  0  0  0  0
   37.6430   44.5490   22.6100 C   0  0  0  0  0  3  0  0  0  0  0  0
   37.0440   43.5670   21.8140 C   0  0  0  0  0  0  0  0  0  0  0  0
   36.8070   42.3240   22.3960 C   0  0  0  0  0  3  0  0  0  0  0  0
   37.1280   42.0820   23.7420 C   0  0  0  0  0  3  0  0  0  0  0  0
   40.9600   42.5140   27.9330 C   0  0  0  0  0  1  0  0  0  0  0  0
   40.0680   42.6960   26.7160 C   0  0  1  0  0  0  0  0  0  0  0  0
   38.9020   41.6750   26.6270 C   0  0  0  0  0  2  0  0  0  0  0  0
   37.9920   42.8380   26.1290 C   0  0  1  0  0  0  0  0  0  0  0  0
   38.9880   43.8070   26.8340 C   0  0  0  0  0  2  0  0  0  0  0  0
   36.6760   42.7850   26.8150 N   0  0  0  0  0  4  0  0  0  0  0  0
   36.1710   43.6770   26.7350 H   0  0  0  0  0  0  0  0  0  0  0  0
   36.0730   42.0750   26.3770 H   0  0  0  0  0  0  0  0  0  0  0  0
   36.7450   42.5590   27.8140 H   0  0  0  0  0  0  0  0  0  0  0  0
   40.8720   42.7550   25.5240 O   0  0  0  0  0  0  0  0  0  0  0  0
   41.5640   43.4250   25.6810 H   0  0  0  0  0  0  0  0  0  0  0  0
   38.7900   44.9920   19.3740 C   0  0  0  0  0  0  0  0  0  0  0  0
   39.1650   45.9140   18.3910 C   0  0  0  0  0  3  0  0  0  0  0  0
   40.4890   46.3480   18.3090 C   0  0  0  0  0  3  0  0  0  0  0  0
   41.4410   45.8670   19.2090 C   0  0  0  0  0  3  0  0  0  0  0  0
   41.0710   44.9500   20.1920 C   0  0  0  0  0  3  0  0  0  0  0  0
   39.7500   44.5090   20.2720 C   0  0  0  0  0  3  0  0  0  0  0  0
   30.8710   42.4610   17.3060 C   0  0  0  0  0  0  0  0  0  0  0  0
   30.9920   41.1070   17.4280 N   0  0  0  0  0  0  0  0  0  0  0  0
   29.7840   43.0070   17.4580 O   0  0  0  0  0  0  0  0  0  0  0  0
   30.1460   40.5870   17.6280 H   0  0  0  0  0  0  0  0  0  0  0  0
   31.8630   40.6000   17.4030 H   0  0  0  0  0  0  0  0  0  0  0  0
  1 17  1  0  0  0  0
  2  1  1  0  0  0  0
  3  2  2  0  0  0  0
  4  3  1  0  0  0  0
  4  5  1  0  0  0  0
  5  1  2  0  0  0  0
  6  4  1  0  0  0  0
  7  8  1  0  0  0  0
  7  6  1  0  0  0  0
  8 13  1  0  0  0  0
  9 10  1  0  0  0  0
  9  8  2  0  0  0  0
 10 11  2  0  0  0  0
 11 37  1  0  0  0  0
 11 12  1  0  0  0  0
 13 12  2  0  0  0  0
 13  3  1  0  0  0  0
 14 23  1  0  0  0  0
 15 14  1  0  0  0  0
 16 15  2  0  0  0  0
 17 18  2  0  0  0  0
 17 16  1  0  0  0  0
 18 19  1  0  0  0  0
 19 14  2  0  0  0  0
 21 24  1  0  0  0  0
 21 20  1  1  0  0  0
 22 21  1  0  0  0  0
 23 22  1  0  0  0  0
 23 25  1  1  0  0  0
 23 24  1  0  0  0  0
 25 28  1  0  0  0  0
 26 25  1  0  0  0  0
 27 25  1  0  0  0  0
 29 30  1  0  0  0  0
 29 21  1  0  0  0  0
 31  5  1  0  0  0  0
 31 36  1  0  0  0  0
 32 31  2  0  0  0  0
 33 32  1  0  0  0  0
 33 34  2  0  0  0  0
 34 35  1  0  0  0  0
 35 36  2  0  0  0  0
 37 38  1  0  0  0  0
 37 39  2  0  0  0  0
 38 40  1  0  0  0  0
 41 38  1  0  0  0  0
M  END
>  <minimizedAffinity>
-11.2047453

$$$$

 OpenBabel11232419063D

 41 46  0  0  1  0  0  0  0  0999 V2000
   36.2530   44.5620   18.4850 C   0  0  0  0  0  0  0  0  0  0  0  0
   36.8760   45.4340   17.6080 N   0  0  0  0  0  0  0  0  0  0  0  0
   38.0720   45.6480   18.1040 C   0  0  0  0  0  0  0  0  0  0  0  0
   38.2440   44.9620   19.2700 N   0  0  0  0  0  0  0  0  0  0  0  0
   37.1080   44.2280   19.5320 C   0  0  0  0  0  0  0  0  0  0  0  0
   39.5070   44.9700   19.9840 C   0  0  0  0  0  2  0  0  0  0  0  0
   40.3150   46.1370   19.7140 O   0  0  0  0  0  0  0  0  0  0  0  0
   40.2530   46.6570   18.4460 C   0  0  0  0  0  0  0  0  0  0  0  0
   41.3090   47.4680   18.0390 C   0  0  0  0  0  3  0  0  0  0  0  0
   41.2890   48.0540   16.7680 C   0  0  0  0  0  3  0  0  0  0  0  0
   40.2050   47.8340   15.9060 C   0  0  0  0  0  0  0  0  0  0  0  0
   39.1280   47.0470   16.3370 C   0  0  0  0  0  3  0  0  0  0  0  0
   39.1550   46.4590   17.6030 C   0  0  0  0  0  0  0  0  0  0  0  0
   32.2840   43.0490   17.6020 C   0  0  0  0  0  0  0  0  0  0  0  0
   33.2740   43.2430   16.6140 C   0  0  0  0  0  3  0  0  0  0  0  0
   34.5460   43.7450   16.9170 C   0  0  0  0  0  3  0  0  0  0  0  0
   34.8910   44.1090   18.2230 C   0  0  0  0  0  0  0  0  0  0  0  0
   33.9160   43.9730   19.2080 C   0  0  0  0  0  3  0  0  0  0  0  0
   32.6450   43.4570   18.9020 C   0  0  0  0  0  3  0  0  0  0  0  0
   27.9270   43.6850   15.9230 C   0  0  0  0  0  1  0  0  0  0  0  0
   29.3560   43.6850   16.4410 C   0  0  1  0  0  0  0  0  0  0  0  0
   29.5380   42.9590   17.8000 C   0  0  0  0  0  2  0  0  0  0  0  0
   30.8770   42.3800   17.2510 C   0  0  1  0  0  0  0  0  0  0  0  0
   30.2940   42.6110   15.8240 C   0  0  0  0  0  2  0  0  0  0  0  0
   30.9860   40.9380   17.5890 N   0  0  0  0  0  4  0  0  0  0  0  0
   31.6920   40.4660   17.0110 H   0  0  0  0  0  0  0  0  0  0  0  0
   31.2920   40.8220   18.5650 H   0  0  0  0  0  0  0  0  0  0  0  0
   30.1030   40.4250   17.4780 H   0  0  0  0  0  0  0  0  0  0  0  0
   29.8800   45.0250   16.4300 O   0  0  0  0  0  0  0  0  0  0  0  0
   29.7220   45.3860   15.5370 H   0  0  0  0  0  0  0  0  0  0  0  0
   36.9850   43.3560   20.6890 C   0  0  0  0  0  0  0  0  0  0  0  0
   36.5480   42.0360   20.5360 C   0  0  0  0  0  3  0  0  0  0  0  0
   36.4050   41.2130   21.6540 C   0  0  0  0  0  3  0  0  0  0  0  0
   36.7030   41.7030   22.9260 C   0  0  0  0  0  3  0  0  0  0  0  0
   37.1420   43.0160   23.0840 C   0  0  0  0  0  3  0  0  0  0  0  0
   37.2780   43.8440   21.9690 C   0  0  0  0  0  3  0  0  0  0  0  0
   40.1310   48.4270   14.5430 C   0  0  0  0  0  0  0  0  0  0  0  0
   41.1240   49.2850   14.1640 N   0  0  0  0  0  0  0  0  0  0  0  0
   39.2280   48.1360   13.7670 O   0  0  0  0  0  0  0  0  0  0  0  0
   41.0620   49.6740   13.2310 H   0  0  0  0  0  0  0  0  0  0  0  0
   41.9400   49.5030   14.7140 H   0  0  0  0  0  0  0  0  0  0  0  0
  1  5  2  0  0  0  0
  2  3  2  0  0  0  0
  2  1  1  0  0  0  0
  3  4  1  0  0  0  0
  4  5  1  0  0  0  0
  4  6  1  0  0  0  0
  5 31  1  0  0  0  0
  7  6  1  0  0  0  0
  8  7  1  0  0  0  0
  9  8  1  0  0  0  0
 10  9  2  0  0  0  0
 11 12  2  0  0  0  0
 11 10  1  0  0  0  0
 12 13  1  0  0  0  0
 13  3  1  0  0  0  0
 13  8  2  0  0  0  0
 14 19  1  0  0  0  0
 15 16  1  0  0  0  0
 15 14  2  0  0  0  0
 16 17  2  0  0  0  0
 17  1  1  0  0  0  0
 17 18  1  0  0  0  0
 19 18  2  0  0  0  0
 21 20  1  6  0  0  0
 21 22  1  0  0  0  0
 23 25  1  1  0  0  0
 23 14  1  0  0  0  0
 23 22  1  0  0  0  0
 24 21  1  0  0  0  0
 24 23  1  0  0  0  0
 25 27  1  0  0  0  0
 26 25  1  0  0  0  0
 28 25  1  0  0  0  0
 29 21  1  0  0  0  0
 30 29  1  0  0  0  0
 31 36  1  0  0  0  0
 32 31  2  0  0  0  0
 32 33  1  0  0  0  0
 33 34  2  0  0  0  0
 34 35  1  0  0  0  0
 36 35  2  0  0  0  0
 37 11  1  0  0  0  0
 38 37  1  0  0  0  0
 38 41  1  0  0  0  0
 39 37  2  0  0  0  0
 40 38  1  0  0  0  0
M  END
>  <minimizedAffinity>
-11.157979

$$$$

 OpenBabel11232419063D

 41 46  0  0  1  0  0  0  0  0999 V2000
   35.8870   44.2520   19.1170 C   0  0  0  0  0  0  0  0  0  0  0  0
   36.2180   43.8950   20.4130 N   0  0  0  0  0  0  0  0  0  0  0  0
   37.5020   44.1360   20.5350 C   0  0  0  0  0  0  0  0  0  0  0  0
   38.0180   44.6210   19.3700 N   0  0  0  0  0  0  0  0  0  0  0  0
   37.0050   44.7390   18.4440 C   0  0  0  0  0  0  0  0  0  0  0  0
   39.4040   45.0370   19.2610 C   0  0  0  0  0  2  0  0  0  0  0  0
   40.2760   44.3950   20.2180 O   0  0  0  0  0  0  0  0  0  0  0  0
   39.7480   44.1210   21.4540 C   0  0  0  0  0  0  0  0  0  0  0  0
   40.6470   43.9250   22.4990 C   0  0  0  0  0  3  0  0  0  0  0  0
   40.1730   43.6120   23.7780 C   0  0  0  0  0  3  0  0  0  0  0  0
   38.7950   43.4860   24.0090 C   0  0  0  0  0  0  0  0  0  0  0  0
   37.8990   43.6480   22.9430 C   0  0  0  0  0  3  0  0  0  0  0  0
   38.3760   43.9670   21.6710 C   0  0  0  0  0  0  0  0  0  0  0  0
   31.8770   43.8200   17.5190 C   0  0  0  0  0  0  0  0  0  0  0  0
   32.8010   44.7720   17.0370 C   0  0  0  0  0  3  0  0  0  0  0  0
   34.0880   44.9050   17.5760 C   0  0  0  0  0  3  0  0  0  0  0  0
   34.5130   44.1120   18.6460 C   0  0  0  0  0  0  0  0  0  0  0  0
   33.6030   43.1980   19.1720 C   0  0  0  0  0  3  0  0  0  0  0  0
   32.3180   43.0590   18.6210 C   0  0  0  0  0  3  0  0  0  0  0  0
   28.6640   40.7530   15.9440 C   0  0  0  0  0  1  0  0  0  0  0  0
   29.8180   41.5750   16.4950 C   0  0  1  0  0  0  0  0  0  0  0  0
   30.2830   42.7220   15.5590 C   0  0  0  0  0  2  0  0  0  0  0  0
   30.4540   43.6150   16.8240 C   0  0  1  0  0  0  0  0  0  0  0  0
   29.4280   42.6730   17.5240 C   0  0  0  0  0  2  0  0  0  0  0  0
   29.8950   44.9680   16.5730 N   0  0  0  0  0  4  0  0  0  0  0  0
   29.7280   45.4780   17.4500 H   0  0  0  0  0  0  0  0  0  0  0  0
   30.5650   45.5360   16.0360 H   0  0  0  0  0  0  0  0  0  0  0  0
   29.0110   44.9540   16.0510 H   0  0  0  0  0  0  0  0  0  0  0  0
   30.8840   40.7040   16.9110 O   0  0  0  0  0  0  0  0  0  0  0  0
   30.4890   40.0300   17.4960 H   0  0  0  0  0  0  0  0  0  0  0  0
   37.2210   45.2640   17.1060 C   0  0  0  0  0  0  0  0  0  0  0  0
   37.1800   46.6430   16.8720 C   0  0  0  0  0  3  0  0  0  0  0  0
   37.3590   47.1390   15.5800 C   0  0  0  0  0  3  0  0  0  0  0  0
   37.5860   46.2620   14.5190 C   0  0  0  0  0  3  0  0  0  0  0  0
   37.6310   44.8870   14.7460 C   0  0  0  0  0  3  0  0  0  0  0  0
   37.4430   44.3880   16.0350 C   0  0  0  0  0  3  0  0  0  0  0  0
   38.2330   43.1580   25.3470 C   0  0  0  0  0  0  0  0  0  0  0  0
   38.4650   44.0320   26.3700 N   0  0  0  0  0  0  0  0  0  0  0  0
   37.5550   42.1530   25.5270 O   0  0  0  0  0  0  0  0  0  0  0  0
   38.0700   43.7980   27.2730 H   0  0  0  0  0  0  0  0  0  0  0  0
   38.9370   44.9190   26.2770 H   0  0  0  0  0  0  0  0  0  0  0  0
  1  2  1  0  0  0  0
  2  3  2  0  0  0  0
  3 13  1  0  0  0  0
  4  3  1  0  0  0  0
  5  1  2  0  0  0  0
  5  4  1  0  0  0  0
  6  4  1  0  0  0  0
  6  7  1  0  0  0  0
  7  8  1  0  0  0  0
  8 13  2  0  0  0  0
  8  9  1  0  0  0  0
  9 10  2  0  0  0  0
 10 11  1  0  0  0  0
 11 37  1  0  0  0  0
 12 11  2  0  0  0  0
 13 12  1  0  0  0  0
 14 19  1  0  0  0  0
 15 14  2  0  0  0  0
 15 16  1  0  0  0  0
 16 17  2  0  0  0  0
 17  1  1  0  0  0  0
 17 18  1  0  0  0  0
 19 18  2  0  0  0  0
 21 20  1  6  0  0  0
 21 29  1  0  0  0  0
 21 24  1  0  0  0  0
 22 21  1  0  0  0  0
 22 23  1  0  0  0  0
 23 25  1  6  0  0  0
 23 14  1  0  0  0  0
 23 24  1  0  0  0  0
 25 26  1  0  0  0  0
 27 25  1  0  0  0  0
 28 25  1  0  0  0  0
 29 30  1  0  0  0  0
 31  5  1  0  0  0  0
 32 31  1  0  0  0  0
 33 32  2  0  0  0  0
 34 35  2  0  0  0  0
 34 33  1  0  0  0  0
 35 36  1  0  0  0  0
 36 31  2  0  0  0  0
 37 39  2  0  0  0  0
 37 38  1  0  0  0  0
 38 40  1  0  0  0  0
 41 38  1  0  0  0  0
M  END
>  <minimizedAffinity>
-10.5404263

$$$$
