
 OpenBabel11232419063D

 41 46  0  0  1  0  0  0  0  0999 V2000
   35.3000   44.1910   18.1980 C   0  0  0  0  0  0  0  0  0  0  0  0
   35.6130   43.8650   19.5060 N   0  0  0  0  0  0  0  0  0  0  0  0
   36.8540   44.2510   19.6860 C   0  0  0  0  0  0  0  0  0  0  0  0
   37.3610   44.8000   18.5450 N   0  0  0  0  0  0  0  0  0  0  0  0
   36.3820   44.8070   17.5760 C   0  0  0  0  0  0  0  0  0  0  0  0
   38.6930   45.3730   18.4980 C   0  0  0  0  0  2  0  0  0  0  0  0
   39.5910   44.8290   19.4920 O   0  0  0  0  0  0  0  0  0  0  0  0
   39.0450   44.4880   20.7030 C   0  0  0  0  0  0  0  0  0  0  0  0
   39.9140   44.3890   21.7860 C   0  0  0  0  0  3  0  0  0  0  0  0
   39.4230   44.0140   23.0420 C   0  0  0  0  0  3  0  0  0  0  0  0
   38.0600   43.7300   23.2120 C   0  0  0  0  0  0  0  0  0  0  0  0
   37.1980   43.7950   22.1080 C   0  0  0  0  0  3  0  0  0  0  0  0
   37.6910   44.1760   20.8590 C   0  0  0  0  0  0  0  0  0  0  0  0
   31.2930   43.2670   16.8160 C   0  0  0  0  0  0  0  0  0  0  0  0
   32.0650   42.3780   17.5960 C   0  0  0  0  0  3  0  0  0  0  0  0
   33.3630   42.6900   18.0210 C   0  0  0  0  0  3  0  0  0  0  0  0
   33.9730   43.8980   17.6670 C   0  0  0  0  0  0  0  0  0  0  0  0
   33.2500   44.7710   16.8570 C   0  0  0  0  0  3  0  0  0  0  0  0
   31.9440   44.4600   16.4430 C   0  0  0  0  0  3  0  0  0  0  0  0
   27.6590   40.3050   17.2990 C   0  0  0  0  0  1  0  0  0  0  0  0
   28.9380   41.1250   17.2600 C   0  0  1  0  0  0  0  0  0  0  0  0
   29.3730   41.5530   15.8330 C   0  0  0  0  0  2  0  0  0  0  0  0
   29.7790   42.9350   16.4290 C   0  0  1  0  0  0  0  0  0  0  0  0
   28.7780   42.6360   17.5850 C   0  0  0  0  0  2  0  0  0  0  0  0
   29.3070   44.0310   15.5440 N   0  0  0  0  0  4  0  0  0  0  0  0
   29.2980   44.9350   16.0330 H   0  0  0  0  0  0  0  0  0  0  0  0
   29.9470   44.1450   14.7450 H   0  0  0  0  0  0  0  0  0  0  0  0
   28.3650   43.8740   15.1670 H   0  0  0  0  0  0  0  0  0  0  0  0
   29.9740   40.4520   17.9980 O   0  0  0  0  0  0  0  0  0  0  0  0
   29.6030   40.2340   18.8740 H   0  0  0  0  0  0  0  0  0  0  0  0
   36.5950   45.3630   16.2490 C   0  0  0  0  0  0  0  0  0  0  0  0
   36.6330   46.7490   16.0610 C   0  0  0  0  0  3  0  0  0  0  0  0
   36.8080   47.2770   14.7810 C   0  0  0  0  0  3  0  0  0  0  0  0
   36.9520   46.4230   13.6860 C   0  0  0  0  0  3  0  0  0  0  0  0
   36.9180   45.0420   13.8680 C   0  0  0  0  0  3  0  0  0  0  0  0
   36.7350   44.5120   15.1460 C   0  0  0  0  0  3  0  0  0  0  0  0
   37.4810   43.3310   24.5230 C   0  0  0  0  0  0  0  0  0  0  0  0
   37.3470   44.2930   25.4830 N   0  0  0  0  0  0  0  0  0  0  0  0
   37.1060   42.1830   24.7340 O   0  0  0  0  0  0  0  0  0  0  0  0
   36.9450   44.0060   26.3670 H   0  0  0  0  0  0  0  0  0  0  0  0
   37.5520   45.2720   25.3520 H   0  0  0  0  0  0  0  0  0  0  0  0
  1  2  1  0  0  0  0
  2  3  2  0  0  0  0
  3 13  1  0  0  0  0
  4  3  1  0  0  0  0
  5  1  2  0  0  0  0
  5  4  1  0  0  0  0
  6  4  1  0  0  0  0
  6  7  1  0  0  0  0
  7  8  1  0  0  0  0
  8 13  2  0  0  0  0
  8  9  1  0  0  0  0
  9 10  2  0  0  0  0
 10 11  1  0  0  0  0
 11 37  1  0  0  0  0
 12 11  2  0  0  0  0
 13 12  1  0  0  0  0
 14 15  1  0  0  0  0
 15 16  2  0  0  0  0
 17 16  1  0  0  0  0
 17  1  1  0  0  0  0
 18 17  2  0  0  0  0
 19 14  2  0  0  0  0
 19 18  1  0  0  0  0
 21 20  1  1  0  0  0
 21 24  1  0  0  0  0
 21 29  1  0  0  0  0
 22 23  1  0  0  0  0
 22 21  1  0  0  0  0
 23 25  1  6  0  0  0
 23 14  1  0  0  0  0
 23 24  1  0  0  0  0
 25 26  1  0  0  0  0
 27 25  1  0  0  0  0
 28 25  1  0  0  0  0
 29 30  1  0  0  0  0
 31  5  1  0  0  0  0
 32 31  1  0  0  0  0
 33 32  2  0  0  0  0
 34 35  2  0  0  0  0
 34 33  1  0  0  0  0
 35 36  1  0  0  0  0
 36 31  2  0  0  0  0
 37 39  2  0  0  0  0
 37 38  1  0  0  0  0
 38 40  1  0  0  0  0
 41 38  1  0  0  0  0
M  END
>  <minimizedAffinity>
-11.5506554

$$$$
