
 OpenBabel11232419063D

 41 46  0  0  1  0  0  0  0  0999 V2000
   36.7030   44.3850   18.3410 C   0  0  0  0  0  0  0  0  0  0  0  0
   35.6450   43.5590   18.6790 N   0  0  0  0  0  0  0  0  0  0  0  0
   34.7740   43.6740   17.7040 C   0  0  0  0  0  0  0  0  0  0  0  0
   35.2180   44.5500   16.7580 N   0  0  0  0  0  0  0  0  0  0  0  0
   36.4680   45.0040   17.1160 C   0  0  0  0  0  0  0  0  0  0  0  0
   34.4730   44.8010   15.5380 C   0  0  0  0  0  2  0  0  0  0  0  0
   33.0580   44.5360   15.6610 O   0  0  0  0  0  0  0  0  0  0  0  0
   32.6880   43.4960   16.4760 C   0  0  0  0  0  0  0  0  0  0  0  0
   31.4230   42.9500   16.2750 C   0  0  0  0  0  3  0  0  0  0  0  0
   30.9750   41.9080   17.0940 C   0  0  0  0  0  3  0  0  0  0  0  0
   31.7920   41.4170   18.1230 C   0  0  0  0  0  0  0  0  0  0  0  0
   33.0490   41.9970   18.3430 C   0  0  0  0  0  3  0  0  0  0  0  0
   33.4950   43.0320   17.5190 C   0  0  0  0  0  0  0  0  0  0  0  0
   40.0960   44.5040   21.0420 C   0  0  0  0  0  0  0  0  0  0  0  0
   38.7740   44.2560   21.4730 C   0  0  0  0  0  3  0  0  0  0  0  0
   37.6900   44.2340   20.5860 C   0  0  0  0  0  3  0  0  0  0  0  0
   37.8620   44.4890   19.2220 C   0  0  0  0  0  0  0  0  0  0  0  0
   39.1490   44.7850   18.7790 C   0  0  0  0  0  3  0  0  0  0  0  0
   40.2360   44.7930   19.6700 C   0  0  0  0  0  3  0  0  0  0  0  0
   42.2010   46.3220   24.8470 C   0  0  0  0  0  1  0  0  0  0  0  0
   41.3830   45.8900   23.6400 C   0  0  1  0  0  0  0  0  0  0  0  0
   42.2220   45.6650   22.3540 C   0  0  0  0  0  2  0  0  0  0  0  0
   41.3300   44.4230   22.0530 C   0  0  1  0  0  0  0  0  0  0  0  0
   41.0220   44.3800   23.5800 C   0  0  0  0  0  2  0  0  0  0  0  0
   42.1740   43.2830   21.6160 N   0  0  0  0  0  4  0  0  0  0  0  0
   41.6710   42.3900   21.6880 H   0  0  0  0  0  0  0  0  0  0  0  0
   42.4290   43.3870   20.6240 H   0  0  0  0  0  0  0  0  0  0  0  0
   43.0450   43.1900   22.1520 H   0  0  0  0  0  0  0  0  0  0  0  0
   40.2740   46.7870   23.4540 O   0  0  0  0  0  0  0  0  0  0  0  0
   39.8140   46.8530   24.3130 H   0  0  0  0  0  0  0  0  0  0  0  0
   37.2330   45.9270   16.2940 C   0  0  0  0  0  0  0  0  0  0  0  0
   36.8330   47.2620   16.1680 C   0  0  0  0  0  3  0  0  0  0  0  0
   37.5560   48.1350   15.3540 C   0  0  0  0  0  3  0  0  0  0  0  0
   38.6830   47.6810   14.6680 C   0  0  0  0  0  3  0  0  0  0  0  0
   39.0880   46.3530   14.7920 C   0  0  0  0  0  3  0  0  0  0  0  0
   38.3630   45.4760   15.5990 C   0  0  0  0  0  3  0  0  0  0  0  0
   31.3710   40.3090   19.0220 C   0  0  0  0  0  0  0  0  0  0  0  0
   30.2480   39.6070   18.6900 N   0  0  0  0  0  0  0  0  0  0  0  0
   32.0230   40.0080   20.0160 O   0  0  0  0  0  0  0  0  0  0  0  0
   29.9780   38.8510   19.3080 H   0  0  0  0  0  0  0  0  0  0  0  0
   29.7110   39.7400   17.8460 H   0  0  0  0  0  0  0  0  0  0  0  0
  1  2  1  0  0  0  0
  1 17  1  0  0  0  0
  3  2  2  0  0  0  0
  4  5  1  0  0  0  0
  4  3  1  0  0  0  0
  5  1  2  0  0  0  0
  6  7  1  0  0  0  0
  6  4  1  0  0  0  0
  7  8  1  0  0  0  0
  8 13  1  0  0  0  0
  9  8  2  0  0  0  0
  9 10  1  0  0  0  0
 10 11  2  0  0  0  0
 11 12  1  0  0  0  0
 11 37  1  0  0  0  0
 13  3  1  0  0  0  0
 13 12  2  0  0  0  0
 14 15  1  0  0  0  0
 14 23  1  0  0  0  0
 16 15  2  0  0  0  0
 17 16  1  0  0  0  0
 18 17  2  0  0  0  0
 18 19  1  0  0  0  0
 19 14  2  0  0  0  0
 21 20  1  1  0  0  0
 22 21  1  0  0  0  0
 23 25  1  6  0  0  0
 23 22  1  0  0  0  0
 23 24  1  0  0  0  0
 24 21  1  0  0  0  0
 25 26  1  0  0  0  0
 25 28  1  0  0  0  0
 27 25  1  0  0  0  0
 29 21  1  0  0  0  0
 29 30  1  0  0  0  0
 31  5  1  0  0  0  0
 32 31  1  0  0  0  0
 33 32  2  0  0  0  0
 34 35  2  0  0  0  0
 34 33  1  0  0  0  0
 35 36  1  0  0  0  0
 36 31  2  0  0  0  0
 37 39  2  0  0  0  0
 38 37  1  0  0  0  0
 38 40  1  0  0  0  0
 41 38  1  0  0  0  0
M  END
>  <minimizedAffinity>
-11.4998465

$$$$
