
 OpenBabel11232419063D

 41 46  0  0  1  0  0  0  0  0999 V2000
   35.8870   44.2520   19.1170 C   0  0  0  0  0  0  0  0  0  0  0  0
   36.2180   43.8950   20.4130 N   0  0  0  0  0  0  0  0  0  0  0  0
   37.5020   44.1360   20.5350 C   0  0  0  0  0  0  0  0  0  0  0  0
   38.0180   44.6210   19.3700 N   0  0  0  0  0  0  0  0  0  0  0  0
   37.0050   44.7390   18.4440 C   0  0  0  0  0  0  0  0  0  0  0  0
   39.4040   45.0370   19.2610 C   0  0  0  0  0  2  0  0  0  0  0  0
   40.2760   44.3950   20.2180 O   0  0  0  0  0  0  0  0  0  0  0  0
   39.7480   44.1210   21.4540 C   0  0  0  0  0  0  0  0  0  0  0  0
   40.6470   43.9250   22.4990 C   0  0  0  0  0  3  0  0  0  0  0  0
   40.1730   43.6120   23.7780 C   0  0  0  0  0  3  0  0  0  0  0  0
   38.7950   43.4860   24.0090 C   0  0  0  0  0  0  0  0  0  0  0  0
   37.8990   43.6480   22.9430 C   0  0  0  0  0  3  0  0  0  0  0  0
   38.3760   43.9670   21.6710 C   0  0  0  0  0  0  0  0  0  0  0  0
   31.8770   43.8200   17.5190 C   0  0  0  0  0  0  0  0  0  0  0  0
   32.8010   44.7720   17.0370 C   0  0  0  0  0  3  0  0  0  0  0  0
   34.0880   44.9050   17.5760 C   0  0  0  0  0  3  0  0  0  0  0  0
   34.5130   44.1120   18.6460 C   0  0  0  0  0  0  0  0  0  0  0  0
   33.6030   43.1980   19.1720 C   0  0  0  0  0  3  0  0  0  0  0  0
   32.3180   43.0590   18.6210 C   0  0  0  0  0  3  0  0  0  0  0  0
   28.6640   40.7530   15.9440 C   0  0  0  0  0  1  0  0  0  0  0  0
   29.8180   41.5750   16.4950 C   0  0  1  0  0  0  0  0  0  0  0  0
   30.2830   42.7220   15.5590 C   0  0  0  0  0  2  0  0  0  0  0  0
   30.4540   43.6150   16.8240 C   0  0  1  0  0  0  0  0  0  0  0  0
   29.4280   42.6730   17.5240 C   0  0  0  0  0  2  0  0  0  0  0  0
   29.8950   44.9680   16.5730 N   0  0  0  0  0  4  0  0  0  0  0  0
   29.7280   45.4780   17.4500 H   0  0  0  0  0  0  0  0  0  0  0  0
   30.5650   45.5360   16.0360 H   0  0  0  0  0  0  0  0  0  0  0  0
   29.0110   44.9540   16.0510 H   0  0  0  0  0  0  0  0  0  0  0  0
   30.8840   40.7040   16.9110 O   0  0  0  0  0  0  0  0  0  0  0  0
   30.4890   40.0300   17.4960 H   0  0  0  0  0  0  0  0  0  0  0  0
   37.2210   45.2640   17.1060 C   0  0  0  0  0  0  0  0  0  0  0  0
   37.1800   46.6430   16.8720 C   0  0  0  0  0  3  0  0  0  0  0  0
   37.3590   47.1390   15.5800 C   0  0  0  0  0  3  0  0  0  0  0  0
   37.5860   46.2620   14.5190 C   0  0  0  0  0  3  0  0  0  0  0  0
   37.6310   44.8870   14.7460 C   0  0  0  0  0  3  0  0  0  0  0  0
   37.4430   44.3880   16.0350 C   0  0  0  0  0  3  0  0  0  0  0  0
   38.2330   43.1580   25.3470 C   0  0  0  0  0  0  0  0  0  0  0  0
   38.4650   44.0320   26.3700 N   0  0  0  0  0  0  0  0  0  0  0  0
   37.5550   42.1530   25.5270 O   0  0  0  0  0  0  0  0  0  0  0  0
   38.0700   43.7980   27.2730 H   0  0  0  0  0  0  0  0  0  0  0  0
   38.9370   44.9190   26.2770 H   0  0  0  0  0  0  0  0  0  0  0  0
  1  2  1  0  0  0  0
  2  3  2  0  0  0  0
  3 13  1  0  0  0  0
  4  3  1  0  0  0  0
  5  1  2  0  0  0  0
  5  4  1  0  0  0  0
  6  4  1  0  0  0  0
  6  7  1  0  0  0  0
  7  8  1  0  0  0  0
  8 13  2  0  0  0  0
  8  9  1  0  0  0  0
  9 10  2  0  0  0  0
 10 11  1  0  0  0  0
 11 37  1  0  0  0  0
 12 11  2  0  0  0  0
 13 12  1  0  0  0  0
 14 19  1  0  0  0  0
 15 14  2  0  0  0  0
 15 16  1  0  0  0  0
 16 17  2  0  0  0  0
 17  1  1  0  0  0  0
 17 18  1  0  0  0  0
 19 18  2  0  0  0  0
 21 20  1  6  0  0  0
 21 29  1  0  0  0  0
 21 24  1  0  0  0  0
 22 21  1  0  0  0  0
 22 23  1  0  0  0  0
 23 25  1  6  0  0  0
 23 14  1  0  0  0  0
 23 24  1  0  0  0  0
 25 26  1  0  0  0  0
 27 25  1  0  0  0  0
 28 25  1  0  0  0  0
 29 30  1  0  0  0  0
 31  5  1  0  0  0  0
 32 31  1  0  0  0  0
 33 32  2  0  0  0  0
 34 35  2  0  0  0  0
 34 33  1  0  0  0  0
 35 36  1  0  0  0  0
 36 31  2  0  0  0  0
 37 39  2  0  0  0  0
 37 38  1  0  0  0  0
 38 40  1  0  0  0  0
 41 38  1  0  0  0  0
M  END
>  <minimizedAffinity>
-10.5404263

$$$$
