
 OpenBabel11232419063D

 41 46  0  0  1  0  0  0  0  0999 V2000
   34.9140   42.7110   19.3490 C   0  0  0  0  0  0  0  0  0  0  0  0
   33.8850   41.8170   19.5930 N   0  0  0  0  0  0  0  0  0  0  0  0
   33.0740   41.9140   18.5660 C   0  0  0  0  0  0  0  0  0  0  0  0
   33.5270   42.8430   17.6760 N   0  0  0  0  0  0  0  0  0  0  0  0
   34.7220   43.3550   18.1300 C   0  0  0  0  0  0  0  0  0  0  0  0
   32.8490   43.0910   16.4170 C   0  0  0  0  0  2  0  0  0  0  0  0
   31.4470   42.7440   16.4380 O   0  0  0  0  0  0  0  0  0  0  0  0
   31.0860   41.6600   17.1970 C   0  0  0  0  0  0  0  0  0  0  0  0
   29.8700   41.0510   16.8970 C   0  0  0  0  0  3  0  0  0  0  0  0
   29.4310   39.9600   17.6550 C   0  0  0  0  0  3  0  0  0  0  0  0
   30.2060   39.4830   18.7220 C   0  0  0  0  0  0  0  0  0  0  0  0
   31.4110   40.1250   19.0410 C   0  0  0  0  0  3  0  0  0  0  0  0
   31.8480   41.2090   18.2790 C   0  0  0  0  0  0  0  0  0  0  0  0
   38.0860   43.3250   22.2440 C   0  0  0  0  0  0  0  0  0  0  0  0
   37.8120   44.2300   21.1950 C   0  0  0  0  0  3  0  0  0  0  0  0
   36.7910   44.0070   20.2620 C   0  0  0  0  0  3  0  0  0  0  0  0
   36.0040   42.8520   20.3080 C   0  0  0  0  0  0  0  0  0  0  0  0
   36.2870   41.9190   21.3030 C   0  0  0  0  0  3  0  0  0  0  0  0
   37.3030   42.1530   22.2450 C   0  0  0  0  0  3  0  0  0  0  0  0
   39.0500   45.4680   26.3280 C   0  0  0  0  0  1  0  0  0  0  0  0
   38.5490   44.8610   25.0280 C   0  0  1  0  0  0  0  0  0  0  0  0
   39.4820   45.1080   23.8120 C   0  0  0  0  0  2  0  0  0  0  0  0
   39.1860   43.6480   23.3560 C   0  0  1  0  0  0  0  0  0  0  0  0
   38.8310   43.3440   24.8430 C   0  0  0  0  0  2  0  0  0  0  0  0
   40.4430   42.9820   22.9290 N   0  0  0  0  0  4  0  0  0  0  0  0
   40.3390   41.9600   22.9010 H   0  0  0  0  0  0  0  0  0  0  0  0
   40.6930   43.2700   21.9730 H   0  0  0  0  0  0  0  0  0  0  0  0
   41.2430   43.1940   23.5360 H   0  0  0  0  0  0  0  0  0  0  0  0
   37.1850   45.2570   24.7960 O   0  0  0  0  0  0  0  0  0  0  0  0
   36.6880   45.0550   25.6110 H   0  0  0  0  0  0  0  0  0  0  0  0
   35.4850   44.3450   17.3860 C   0  0  0  0  0  0  0  0  0  0  0  0
   36.4990   43.9440   16.5100 C   0  0  0  0  0  3  0  0  0  0  0  0
   37.2480   44.9000   15.8210 C   0  0  0  0  0  3  0  0  0  0  0  0
   36.9830   46.2580   16.0010 C   0  0  0  0  0  3  0  0  0  0  0  0
   35.9710   46.6630   16.8710 C   0  0  0  0  0  3  0  0  0  0  0  0
   35.2270   45.7100   17.5670 C   0  0  0  0  0  3  0  0  0  0  0  0
   29.7920   38.3250   19.5600 C   0  0  0  0  0  0  0  0  0  0  0  0
   30.4620   38.1080   20.7290 N   0  0  0  0  0  0  0  0  0  0  0  0
   28.8570   37.6010   19.2330 O   0  0  0  0  0  0  0  0  0  0  0  0
   30.1630   37.3200   21.2910 H   0  0  0  0  0  0  0  0  0  0  0  0
   31.1800   38.7090   21.1040 H   0  0  0  0  0  0  0  0  0  0  0  0
  1  2  1  0  0  0  0
  1 17  1  0  0  0  0
  3  2  2  0  0  0  0
  4  5  1  0  0  0  0
  4  3  1  0  0  0  0
  5  1  2  0  0  0  0
  6  7  1  0  0  0  0
  6  4  1  0  0  0  0
  7  8  1  0  0  0  0
  8 13  1  0  0  0  0
  9  8  2  0  0  0  0
  9 10  1  0  0  0  0
 10 11  2  0  0  0  0
 11 12  1  0  0  0  0
 11 37  1  0  0  0  0
 13  3  1  0  0  0  0
 13 12  2  0  0  0  0
 14 19  1  0  0  0  0
 14 23  1  0  0  0  0
 15 14  2  0  0  0  0
 16 17  2  0  0  0  0
 16 15  1  0  0  0  0
 17 18  1  0  0  0  0
 18 19  2  0  0  0  0
 21 20  1  1  0  0  0
 22 21  1  0  0  0  0
 23 25  1  6  0  0  0
 23 22  1  0  0  0  0
 23 24  1  0  0  0  0
 24 21  1  0  0  0  0
 25 28  1  0  0  0  0
 26 25  1  0  0  0  0
 27 25  1  0  0  0  0
 29 21  1  0  0  0  0
 29 30  1  0  0  0  0
 31 36  1  0  0  0  0
 31  5  1  0  0  0  0
 32 31  2  0  0  0  0
 33 34  2  0  0  0  0
 33 32  1  0  0  0  0
 34 35  1  0  0  0  0
 35 36  2  0  0  0  0
 37 38  1  0  0  0  0
 38 41  1  0  0  0  0
 38 40  1  0  0  0  0
 39 37  2  0  0  0  0
M  END
>  <minimizedAffinity>
-12.1508608

$$$$
