
 OpenBabel11232419063D

 41 46  0  0  1  0  0  0  0  0999 V2000
   36.9650   44.5020   19.2270 C   0  0  0  0  0  0  0  0  0  0  0  0
   37.9110   45.2970   18.6020 N   0  0  0  0  0  0  0  0  0  0  0  0
   37.4490   45.5220   17.3940 C   0  0  0  0  0  0  0  0  0  0  0  0
   36.2530   44.8950   17.2070 N   0  0  0  0  0  0  0  0  0  0  0  0
   35.8940   44.2540   18.3730 C   0  0  0  0  0  0  0  0  0  0  0  0
   35.4950   45.0440   15.9790 C   0  0  0  0  0  2  0  0  0  0  0  0
   36.3090   45.3890   14.8370 O   0  0  0  0  0  0  0  0  0  0  0  0
   37.3890   46.2020   15.0660 C   0  0  0  0  0  0  0  0  0  0  0  0
   37.9090   46.8910   13.9730 C   0  0  0  0  0  3  0  0  0  0  0  0
   39.0310   47.7120   14.1350 C   0  0  0  0  0  3  0  0  0  0  0  0
   39.6380   47.8380   15.3930 C   0  0  0  0  0  0  0  0  0  0  0  0
   39.1310   47.1120   16.4800 C   0  0  0  0  0  3  0  0  0  0  0  0
   38.0090   46.2990   16.3150 C   0  0  0  0  0  0  0  0  0  0  0  0
   37.5280   43.4040   23.3860 C   0  0  0  0  0  0  0  0  0  0  0  0
   38.1760   44.5040   22.7830 C   0  0  0  0  0  3  0  0  0  0  0  0
   37.9910   44.8350   21.4350 C   0  0  0  0  0  3  0  0  0  0  0  0
   37.1690   44.0660   20.6040 C   0  0  0  0  0  0  0  0  0  0  0  0
   36.5570   42.9460   21.1620 C   0  0  0  0  0  3  0  0  0  0  0  0
   36.7350   42.6250   22.5190 C   0  0  0  0  0  3  0  0  0  0  0  0
   37.0870   45.0670   27.7730 C   0  0  0  0  0  1  0  0  0  0  0  0
   37.1750   44.7220   26.2960 C   0  0  1  0  0  0  0  0  0  0  0  0
   38.5040   44.0340   25.8830 C   0  0  0  0  0  2  0  0  0  0  0  0
   37.6720   43.1060   24.9480 C   0  0  1  0  0  0  0  0  0  0  0  0
   36.4520   43.4160   25.8670 C   0  0  0  0  0  2  0  0  0  0  0  0
   38.1350   41.7010   25.0810 N   0  0  0  0  0  4  0  0  0  0  0  0
   37.4410   41.0370   24.7140 H   0  0  0  0  0  0  0  0  0  0  0  0
   38.9910   41.5530   24.5280 H   0  0  0  0  0  0  0  0  0  0  0  0
   38.3400   41.4280   26.0500 H   0  0  0  0  0  0  0  0  0  0  0  0
   36.8580   45.8800   25.5030 O   0  0  0  0  0  0  0  0  0  0  0  0
   36.0090   46.2290   25.8360 H   0  0  0  0  0  0  0  0  0  0  0  0
   34.6470   43.5200   18.5130 C   0  0  0  0  0  0  0  0  0  0  0  0
   34.4870   42.2720   17.9020 C   0  0  0  0  0  3  0  0  0  0  0  0
   33.2770   41.5860   18.0160 C   0  0  0  0  0  3  0  0  0  0  0  0
   32.2250   42.1410   18.7450 C   0  0  0  0  0  3  0  0  0  0  0  0
   32.3790   43.3840   19.3590 C   0  0  0  0  0  3  0  0  0  0  0  0
   33.5840   44.0750   19.2390 C   0  0  0  0  0  3  0  0  0  0  0  0
   40.8290   48.6990   15.6260 C   0  0  0  0  0  0  0  0  0  0  0  0
   41.1510   49.6180   14.6690 N   0  0  0  0  0  0  0  0  0  0  0  0
   41.4880   48.6140   16.6560 O   0  0  0  0  0  0  0  0  0  0  0  0
   41.9610   50.2010   14.8460 H   0  0  0  0  0  0  0  0  0  0  0  0
   40.6080   49.8040   13.8400 H   0  0  0  0  0  0  0  0  0  0  0  0
  1 17  1  0  0  0  0
  2  1  1  0  0  0  0
  3  2  2  0  0  0  0
  4  3  1  0  0  0  0
  4  5  1  0  0  0  0
  5 31  1  0  0  0  0
  5  1  2  0  0  0  0
  6  4  1  0  0  0  0
  7  8  1  0  0  0  0
  7  6  1  0  0  0  0
  8 13  1  0  0  0  0
  9 10  1  0  0  0  0
  9  8  2  0  0  0  0
 10 11  2  0  0  0  0
 11 37  1  0  0  0  0
 11 12  1  0  0  0  0
 13 12  2  0  0  0  0
 13  3  1  0  0  0  0
 14 23  1  0  0  0  0
 15 14  1  0  0  0  0
 16 15  2  0  0  0  0
 17 18  2  0  0  0  0
 17 16  1  0  0  0  0
 18 19  1  0  0  0  0
 19 14  2  0  0  0  0
 21 20  1  1  0  0  0
 22 21  1  0  0  0  0
 23 25  1  1  0  0  0
 23 24  1  0  0  0  0
 23 22  1  0  0  0  0
 24 21  1  0  0  0  0
 25 28  1  0  0  0  0
 26 25  1  0  0  0  0
 27 25  1  0  0  0  0
 29 30  1  0  0  0  0
 29 21  1  0  0  0  0
 31 36  1  0  0  0  0
 32 33  1  0  0  0  0
 32 31  2  0  0  0  0
 33 34  2  0  0  0  0
 34 35  1  0  0  0  0
 36 35  2  0  0  0  0
 37 39  2  0  0  0  0
 38 40  1  0  0  0  0
 38 37  1  0  0  0  0
 41 38  1  0  0  0  0
M  END
>  <minimizedAffinity>
-12.4794416

$$$$
