
 OpenBabel11232419063D

 41 46  0  0  1  0  0  0  0  0999 V2000
   36.2530   44.5620   18.4850 C   0  0  0  0  0  0  0  0  0  0  0  0
   36.8760   45.4340   17.6080 N   0  0  0  0  0  0  0  0  0  0  0  0
   38.0720   45.6480   18.1040 C   0  0  0  0  0  0  0  0  0  0  0  0
   38.2440   44.9620   19.2700 N   0  0  0  0  0  0  0  0  0  0  0  0
   37.1080   44.2280   19.5320 C   0  0  0  0  0  0  0  0  0  0  0  0
   39.5070   44.9700   19.9840 C   0  0  0  0  0  2  0  0  0  0  0  0
   40.3150   46.1370   19.7140 O   0  0  0  0  0  0  0  0  0  0  0  0
   40.2530   46.6570   18.4460 C   0  0  0  0  0  0  0  0  0  0  0  0
   41.3090   47.4680   18.0390 C   0  0  0  0  0  3  0  0  0  0  0  0
   41.2890   48.0540   16.7680 C   0  0  0  0  0  3  0  0  0  0  0  0
   40.2050   47.8340   15.9060 C   0  0  0  0  0  0  0  0  0  0  0  0
   39.1280   47.0470   16.3370 C   0  0  0  0  0  3  0  0  0  0  0  0
   39.1550   46.4590   17.6030 C   0  0  0  0  0  0  0  0  0  0  0  0
   32.2840   43.0490   17.6020 C   0  0  0  0  0  0  0  0  0  0  0  0
   33.2740   43.2430   16.6140 C   0  0  0  0  0  3  0  0  0  0  0  0
   34.5460   43.7450   16.9170 C   0  0  0  0  0  3  0  0  0  0  0  0
   34.8910   44.1090   18.2230 C   0  0  0  0  0  0  0  0  0  0  0  0
   33.9160   43.9730   19.2080 C   0  0  0  0  0  3  0  0  0  0  0  0
   32.6450   43.4570   18.9020 C   0  0  0  0  0  3  0  0  0  0  0  0
   27.9270   43.6850   15.9230 C   0  0  0  0  0  1  0  0  0  0  0  0
   29.3560   43.6850   16.4410 C   0  0  1  0  0  0  0  0  0  0  0  0
   29.5380   42.9590   17.8000 C   0  0  0  0  0  2  0  0  0  0  0  0
   30.8770   42.3800   17.2510 C   0  0  1  0  0  0  0  0  0  0  0  0
   30.2940   42.6110   15.8240 C   0  0  0  0  0  2  0  0  0  0  0  0
   30.9860   40.9380   17.5890 N   0  0  0  0  0  4  0  0  0  0  0  0
   31.6920   40.4660   17.0110 H   0  0  0  0  0  0  0  0  0  0  0  0
   31.2920   40.8220   18.5650 H   0  0  0  0  0  0  0  0  0  0  0  0
   30.1030   40.4250   17.4780 H   0  0  0  0  0  0  0  0  0  0  0  0
   29.8800   45.0250   16.4300 O   0  0  0  0  0  0  0  0  0  0  0  0
   29.7220   45.3860   15.5370 H   0  0  0  0  0  0  0  0  0  0  0  0
   36.9850   43.3560   20.6890 C   0  0  0  0  0  0  0  0  0  0  0  0
   36.5480   42.0360   20.5360 C   0  0  0  0  0  3  0  0  0  0  0  0
   36.4050   41.2130   21.6540 C   0  0  0  0  0  3  0  0  0  0  0  0
   36.7030   41.7030   22.9260 C   0  0  0  0  0  3  0  0  0  0  0  0
   37.1420   43.0160   23.0840 C   0  0  0  0  0  3  0  0  0  0  0  0
   37.2780   43.8440   21.9690 C   0  0  0  0  0  3  0  0  0  0  0  0
   40.1310   48.4270   14.5430 C   0  0  0  0  0  0  0  0  0  0  0  0
   41.1240   49.2850   14.1640 N   0  0  0  0  0  0  0  0  0  0  0  0
   39.2280   48.1360   13.7670 O   0  0  0  0  0  0  0  0  0  0  0  0
   41.0620   49.6740   13.2310 H   0  0  0  0  0  0  0  0  0  0  0  0
   41.9400   49.5030   14.7140 H   0  0  0  0  0  0  0  0  0  0  0  0
  1  5  2  0  0  0  0
  2  3  2  0  0  0  0
  2  1  1  0  0  0  0
  3  4  1  0  0  0  0
  4  5  1  0  0  0  0
  4  6  1  0  0  0  0
  5 31  1  0  0  0  0
  7  6  1  0  0  0  0
  8  7  1  0  0  0  0
  9  8  1  0  0  0  0
 10  9  2  0  0  0  0
 11 12  2  0  0  0  0
 11 10  1  0  0  0  0
 12 13  1  0  0  0  0
 13  3  1  0  0  0  0
 13  8  2  0  0  0  0
 14 19  1  0  0  0  0
 15 16  1  0  0  0  0
 15 14  2  0  0  0  0
 16 17  2  0  0  0  0
 17  1  1  0  0  0  0
 17 18  1  0  0  0  0
 19 18  2  0  0  0  0
 21 20  1  6  0  0  0
 21 22  1  0  0  0  0
 23 25  1  1  0  0  0
 23 14  1  0  0  0  0
 23 22  1  0  0  0  0
 24 21  1  0  0  0  0
 24 23  1  0  0  0  0
 25 27  1  0  0  0  0
 26 25  1  0  0  0  0
 28 25  1  0  0  0  0
 29 21  1  0  0  0  0
 30 29  1  0  0  0  0
 31 36  1  0  0  0  0
 32 31  2  0  0  0  0
 32 33  1  0  0  0  0
 33 34  2  0  0  0  0
 34 35  1  0  0  0  0
 36 35  2  0  0  0  0
 37 11  1  0  0  0  0
 38 37  1  0  0  0  0
 38 41  1  0  0  0  0
 39 37  2  0  0  0  0
 40 38  1  0  0  0  0
M  END
>  <minimizedAffinity>
-11.157979

$$$$
