
 OpenBabel10152419283D

 34 37  0  0  0  0  0  0  0  0999 V2000
    5.6540  -10.5400    8.0610 C   0  0  0  0  0  0  0  0  0  0  0  0
    4.3830  -11.1230    8.1780 C   0  0  0  0  0  3  0  0  0  0  0  0
    3.7770  -11.1960    9.4210 C   0  0  0  0  0  3  0  0  0  0  0  0
    4.4510  -10.6970   10.5320 C   0  0  0  0  0  3  0  0  0  0  0  0
    5.7490  -10.1240   10.4230 C   0  0  0  0  0  0  0  0  0  0  0  0
    6.4970   -9.6270   11.5140 C   0  0  0  0  0  0  0  0  0  0  0  0
    5.9690   -9.6570   12.8010 N   0  0  0  0  0  0  0  0  0  0  0  0
    7.6980   -9.0520   11.3460 N   0  0  0  0  0  0  0  0  0  0  0  0
    8.1680   -8.9840   10.1000 C   0  0  0  0  0  3  0  0  0  0  0  0
    7.5570   -9.4370    9.0060 N   0  0  0  0  0  0  0  0  0  0  0  0
    6.3580  -10.0260    9.1590 C   0  0  0  0  0  0  0  0  0  0  0  0
    5.3680  -10.4370   13.0200 H   0  0  0  0  0  0  0  0  0  0  0  0
    6.3300  -11.7120    6.0700 N   0  0  0  0  0  0  0  0  0  0  0  0
    6.2600  -10.5070    6.7150 C   0  0  0  0  0  0  0  0  0  0  0  0
    6.7270   -9.4860    6.2300 O   0  0  0  0  0  0  0  0  0  0  0  0
    6.7420  -11.7210    5.1460 H   0  0  0  0  0  0  0  0  0  0  0  0
    5.9290  -12.5630    6.4360 H   0  0  0  0  0  0  0  0  0  0  0  0
    6.7280   -9.1400   13.9230 C   0  0  0  0  0  2  0  0  0  0  0  0
    8.1560   -9.6240   13.8160 C   0  0  0  0  0  0  0  0  0  0  0  0
    9.2240   -8.7270   13.7290 C   0  0  0  0  0  3  0  0  0  0  0  0
   10.5280   -9.2050   13.6060 C   0  0  0  0  0  3  0  0  0  0  0  0
   10.7790  -10.5810   13.5550 C   0  0  0  0  0  3  0  0  0  0  0  0
    9.7270  -11.4920   13.6170 C   0  0  0  0  0  0  0  0  0  0  0  0
    8.4230  -11.0020   13.7660 C   0  0  0  0  0  3  0  0  0  0  0  0
    9.8640  -12.8900   13.5950 N   0  0  0  0  0  0  0  0  0  0  0  0
    9.1280  -13.9160   13.0830 C   0  0  0  0  0  0  0  0  0  0  0  0
    9.6560  -15.0330   13.0950 O   0  0  0  0  0  0  0  0  0  0  0  0
   10.6840  -13.2560   14.0660 H   0  0  0  0  0  0  0  0  0  0  0  0
    7.6880  -13.7310   12.6070 C   0  0  0  0  0  3  0  0  0  0  0  0
    7.5800  -14.0040   11.0920 C   0  0  0  0  0  2  0  0  0  0  0  0
    6.1440  -13.8840   10.5910 C   0  0  0  0  0  2  0  0  0  0  0  0
    5.2010  -14.7960   11.3690 C   0  0  0  0  0  2  0  0  0  0  0  0
    5.3000  -14.5500   12.8700 C   0  0  0  0  0  2  0  0  0  0  0  0
    6.7380  -14.6690   13.3670 C   0  0  0  0  0  2  0  0  0  0  0  0
  1  2  2  0  0  0  0
  1 11  1  0  0  0  0
  2  3  1  0  0  0  0
  3  4  2  0  0  0  0
  5  4  1  0  0  0  0
  5  6  1  0  0  0  0
  6  7  1  0  0  0  0
  7 12  1  0  0  0  0
  7 18  1  0  0  0  0
  8  6  2  0  0  0  0
  9  8  1  0  0  0  0
 10 11  1  0  0  0  0
 10  9  2  0  0  0  0
 11  5  2  0  0  0  0
 13 17  1  0  0  0  0
 13 14  1  0  0  0  0
 14  1  1  0  0  0  0
 15 14  2  0  0  0  0
 16 13  1  0  0  0  0
 19 18  1  0  0  0  0
 20 19  2  0  0  0  0
 21 20  1  0  0  0  0
 22 21  2  0  0  0  0
 22 23  1  0  0  0  0
 23 24  2  0  0  0  0
 24 19  1  0  0  0  0
 25 23  1  0  0  0  0
 25 28  1  0  0  0  0
 26 27  2  0  0  0  0
 26 25  1  0  0  0  0
 29 26  1  0  0  0  0
 29 34  1  0  0  0  0
 30 29  1  0  0  0  0
 31 30  1  0  0  0  0
 31 32  1  0  0  0  0
 32 33  1  0  0  0  0
 33 34  1  0  0  0  0
M  END
>  <minimizedAffinity>
16.4839897

$$$$
