
 OpenBabel10152419283D

 34 37  0  0  0  0  0  0  0  0999 V2000
    4.6450  -10.3290    9.0710 C   0  0  0  0  0  0  0  0  0  0  0  0
    3.5130  -10.1450    9.8790 C   0  0  0  0  0  3  0  0  0  0  0  0
    3.3360  -10.9430   10.9980 C   0  0  0  0  0  3  0  0  0  0  0  0
    4.2840  -11.9200   11.2870 C   0  0  0  0  0  3  0  0  0  0  0  0
    5.4230  -12.1260   10.4590 C   0  0  0  0  0  0  0  0  0  0  0  0
    6.4040  -13.1180   10.6810 C   0  0  0  0  0  0  0  0  0  0  0  0
    6.3110  -13.9660   11.7800 N   0  0  0  0  0  0  0  0  0  0  0  0
    7.4840  -13.2350    9.8940 N   0  0  0  0  0  0  0  0  0  0  0  0
    7.5860  -12.3810    8.8740 C   0  0  0  0  0  3  0  0  0  0  0  0
    6.7120  -11.4250    8.5630 N   0  0  0  0  0  0  0  0  0  0  0  0
    5.6190  -11.3020    9.3360 C   0  0  0  0  0  0  0  0  0  0  0  0
    5.3800  -14.2190   12.0730 H   0  0  0  0  0  0  0  0  0  0  0  0
    6.0510   -9.1590    7.5060 N   0  0  0  0  0  0  0  0  0  0  0  0
    4.7710   -9.4640    7.8810 C   0  0  0  0  0  0  0  0  0  0  0  0
    3.8000   -8.9970    7.3040 O   0  0  0  0  0  0  0  0  0  0  0  0
    6.1690   -8.5660    6.6950 H   0  0  0  0  0  0  0  0  0  0  0  0
    6.8690   -9.5510    7.9490 H   0  0  0  0  0  0  0  0  0  0  0  0
    7.3200  -14.9800   12.0190 C   0  0  0  0  0  2  0  0  0  0  0  0
    8.5230  -14.3330   12.6660 C   0  0  0  0  0  0  0  0  0  0  0  0
    9.6540  -15.0780   13.0100 C   0  0  0  0  0  3  0  0  0  0  0  0
   10.7380  -14.4560   13.6290 C   0  0  0  0  0  3  0  0  0  0  0  0
   10.7000  -13.0880   13.9220 C   0  0  0  0  0  3  0  0  0  0  0  0
    9.5740  -12.3300   13.6080 C   0  0  0  0  0  0  0  0  0  0  0  0
    8.5000  -12.9600   12.9650 C   0  0  0  0  0  3  0  0  0  0  0  0
    9.4350  -10.9520   13.8380 N   0  0  0  0  0  0  0  0  0  0  0  0
    9.1360   -9.8770   13.0560 C   0  0  0  0  0  0  0  0  0  0  0  0
    8.9170   -8.8110   13.6450 O   0  0  0  0  0  0  0  0  0  0  0  0
    9.5950  -10.6500   14.7930 H   0  0  0  0  0  0  0  0  0  0  0  0
    9.1620   -9.9420   11.5300 C   0  0  0  0  0  3  0  0  0  0  0  0
    8.2660   -8.8420   10.9260 C   0  0  0  0  0  2  0  0  0  0  0  0
    8.3120   -8.8410    9.4010 C   0  0  0  0  0  2  0  0  0  0  0  0
    9.7410   -8.7130    8.8840 C   0  0  0  0  0  2  0  0  0  0  0  0
   10.6470   -9.7850    9.4780 C   0  0  0  0  0  2  0  0  0  0  0  0
   10.5970   -9.7840   11.0030 C   0  0  0  0  0  2  0  0  0  0  0  0
  1 11  2  0  0  0  0
  1  2  1  0  0  0  0
  2  3  2  0  0  0  0
  3  4  1  0  0  0  0
  5  6  1  0  0  0  0
  5  4  2  0  0  0  0
  6  7  1  0  0  0  0
  7 18  1  0  0  0  0
  7 12  1  0  0  0  0
  8  6  2  0  0  0  0
  9  8  1  0  0  0  0
 10  9  2  0  0  0  0
 10 11  1  0  0  0  0
 11  5  1  0  0  0  0
 13 14  1  0  0  0  0
 13 17  1  0  0  0  0
 14  1  1  0  0  0  0
 15 14  2  0  0  0  0
 16 13  1  0  0  0  0
 18 19  1  0  0  0  0
 19 24  2  0  0  0  0
 19 20  1  0  0  0  0
 20 21  2  0  0  0  0
 21 22  1  0  0  0  0
 23 25  1  0  0  0  0
 23 22  2  0  0  0  0
 24 23  1  0  0  0  0
 25 28  1  0  0  0  0
 26 27  2  0  0  0  0
 26 25  1  0  0  0  0
 29 26  1  0  0  0  0
 30 29  1  0  0  0  0
 31 30  1  0  0  0  0
 32 31  1  0  0  0  0
 32 33  1  0  0  0  0
 33 34  1  0  0  0  0
 34 29  1  0  0  0  0
M  END
>  <minimizedAffinity>
17.1231556

$$$$
