
 OpenBabel11232420263D

 39 44  0  0  1  0  0  0  0  0999 V2000
   -5.4200   -2.4120  -19.5160 C   0  0  0  0  0  0  0  0  0  0  0  0
   -6.5940   -2.8920  -20.0130 N   0  0  0  0  0  0  0  0  0  0  0  0
   -7.2240   -3.8770  -19.3410 C   0  0  0  0  0  0  0  0  0  0  0  0
   -8.4870   -4.3270  -19.9240 C   0  0  0  0  0  3  0  0  0  0  0  0
   -9.1970   -5.2970  -19.3360 C   0  0  0  0  0  3  0  0  0  0  0  0
   -8.7230   -5.9020  -18.1480 C   0  0  0  0  0  0  0  0  0  0  0  0
   -9.2450   -6.8590  -17.4180 N   0  0  0  0  0  0  0  0  0  0  0  0
   -8.3990   -7.1020  -16.3770 N   0  0  0  0  0  0  0  0  0  0  0  0
   -7.3610   -6.2890  -16.4750 C   0  0  0  0  0  0  0  0  0  0  0  0
   -7.5180   -5.4810  -17.5870 N   0  0  0  0  0  0  0  0  0  0  0  0
   -6.7370   -4.4440  -18.1650 C   0  0  0  0  0  0  0  0  0  0  0  0
   -5.5460   -3.9430  -17.6530 C   0  0  0  0  0  3  0  0  0  0  0  0
   -4.8570   -2.9040  -18.3210 C   0  0  0  0  0  0  0  0  0  0  0  0
   -3.6230   -2.3820  -17.7100 C   0  0  0  0  0  0  0  0  0  0  0  0
   -2.4440   -2.2660  -18.4660 C   0  0  0  0  0  3  0  0  0  0  0  0
   -1.2670   -1.7800  -17.8920 C   0  0  0  0  0  3  0  0  0  0  0  0
   -1.2500   -1.4080  -16.5500 C   0  0  0  0  0  3  0  0  0  0  0  0
   -2.4050   -1.5250  -15.7810 C   0  0  0  0  0  3  0  0  0  0  0  0
   -3.5830   -2.0110  -16.3560 C   0  0  0  0  0  3  0  0  0  0  0  0
   -3.7540    0.6890  -22.1240 C   0  0  0  0  0  0  0  0  0  0  0  0
   -5.1120    0.3190  -22.1420 C   0  0  0  0  0  3  0  0  0  0  0  0
   -5.6370   -0.6650  -21.2920 C   0  0  0  0  0  3  0  0  0  0  0  0
   -4.8360   -1.3480  -20.3670 C   0  0  0  0  0  0  0  0  0  0  0  0
   -3.4830   -0.9930  -20.3310 C   0  0  0  0  0  3  0  0  0  0  0  0
   -2.9660    0.0110  -21.1660 C   0  0  0  0  0  3  0  0  0  0  0  0
    0.1170    2.4680  -24.1580 C   0  0  0  0  0  1  0  0  0  0  0  0
   -0.9930    1.7580  -23.3980 C   0  0  2  0  0  0  0  0  0  0  0  0
   -2.2050    1.2960  -24.2550 C   0  0  0  0  0  2  0  0  0  0  0  0
   -3.1390    1.7900  -23.1120 C   0  0  2  0  0  0  0  0  0  0  0  0
   -1.9670    2.7160  -22.6630 C   0  0  0  0  0  2  0  0  0  0  0  0
   -4.2620    2.6190  -23.6230 N   0  0  0  0  0  4  0  0  0  0  0  0
   -3.9510    3.4320  -24.1660 H   0  0  0  0  0  0  0  0  0  0  0  0
   -4.8940    2.0770  -24.2230 H   0  0  0  0  0  0  0  0  0  0  0  0
   -4.8290    2.9720  -22.8390 H   0  0  0  0  0  0  0  0  0  0  0  0
   -0.4300    0.7430  -22.5470 O   0  0  0  0  0  0  0  0  0  0  0  0
    0.1810    0.2170  -23.0980 H   0  0  0  0  0  0  0  0  0  0  0  0
   -6.2260   -6.2940  -15.5340 C   0  0  0  0  0  3  0  0  0  0  0  0
   -5.2020   -7.0660  -15.9920 F   0  0  0  0  0  0  0  0  0  0  0  0
   -5.7170   -5.0440  -15.3580 F   0  0  0  0  0  0  0  0  0  0  0  0
  1 13  1  0  0  0  0
  2  1  2  0  0  0  0
  2  3  1  0  0  0  0
  3 11  2  0  0  0  0
  4  3  1  0  0  0  0
  4  5  2  0  0  0  0
  5  6  1  0  0  0  0
  6 10  1  0  0  0  0
  6  7  2  0  0  0  0
  7  8  1  0  0  0  0
  9  8  2  0  0  0  0
  9 37  1  0  0  0  0
 10  9  1  0  0  0  0
 11 12  1  0  0  0  0
 11 10  1  0  0  0  0
 13 14  1  0  0  0  0
 13 12  2  0  0  0  0
 14 19  1  0  0  0  0
 15 16  1  0  0  0  0
 15 14  2  0  0  0  0
 16 17  2  0  0  0  0
 17 18  1  0  0  0  0
 19 18  2  0  0  0  0
 20 25  1  0  0  0  0
 21 20  2  0  0  0  0
 21 22  1  0  0  0  0
 22 23  2  0  0  0  0
 23 24  1  0  0  0  0
 23  1  1  0  0  0  0
 25 24  2  0  0  0  0
 27 26  1  6  0  0  0
 27 30  1  0  0  0  0
 27 35  1  0  0  0  0
 28 27  1  0  0  0  0
 28 29  1  0  0  0  0
 29 31  1  6  0  0  0
 29 30  1  0  0  0  0
 29 20  1  0  0  0  0
 31 34  1  0  0  0  0
 32 31  1  0  0  0  0
 33 31  1  0  0  0  0
 36 35  1  0  0  0  0
 37 39  1  0  0  0  0
 38 37  1  0  0  0  0
M  END
>  <minimizedAffinity>
1.51244497

$$$$

 OpenBabel11232420263D

 39 44  0  0  1  0  0  0  0  0999 V2000
   -3.9930   -1.8800  -19.7780 C   0  0  0  0  0  0  0  0  0  0  0  0
   -4.0200   -2.0020  -21.1350 N   0  0  0  0  0  0  0  0  0  0  0  0
   -3.3430   -1.1020  -21.8770 C   0  0  0  0  0  0  0  0  0  0  0  0
   -3.4020   -1.3090  -23.3230 C   0  0  0  0  0  3  0  0  0  0  0  0
   -2.7620   -0.4760  -24.1530 C   0  0  0  0  0  3  0  0  0  0  0  0
   -2.0310    0.6180  -23.6340 C   0  0  0  0  0  0  0  0  0  0  0  0
   -1.3440    1.5480  -24.2550 N   0  0  0  0  0  0  0  0  0  0  0  0
   -0.8330    2.3910  -23.3130 N   0  0  0  0  0  0  0  0  0  0  0  0
   -1.2100    1.9710  -22.1180 C   0  0  0  0  0  0  0  0  0  0  0  0
   -1.9720    0.8240  -22.2570 N   0  0  0  0  0  0  0  0  0  0  0  0
   -2.6200   -0.0410  -21.3350 C   0  0  0  0  0  0  0  0  0  0  0  0
   -2.5840    0.0730  -19.9500 C   0  0  0  0  0  3  0  0  0  0  0  0
   -3.2720   -0.8540  -19.1340 C   0  0  0  0  0  0  0  0  0  0  0  0
   -3.1620   -0.7110  -17.6720 C   0  0  0  0  0  0  0  0  0  0  0  0
   -3.5640    0.4780  -17.0370 C   0  0  0  0  0  3  0  0  0  0  0  0
   -3.4550    0.6240  -15.6530 C   0  0  0  0  0  3  0  0  0  0  0  0
   -2.9370   -0.4130  -14.8820 C   0  0  0  0  0  3  0  0  0  0  0  0
   -2.5240   -1.5950  -15.4940 C   0  0  0  0  0  3  0  0  0  0  0  0
   -2.6340   -1.7430  -16.8790 C   0  0  0  0  0  3  0  0  0  0  0  0
   -6.4420   -4.8900  -17.7450 C   0  0  0  0  0  0  0  0  0  0  0  0
   -6.9730   -3.9550  -18.6540 C   0  0  0  0  0  3  0  0  0  0  0  0
   -6.1760   -3.0060  -19.3100 C   0  0  0  0  0  3  0  0  0  0  0  0
   -4.7940   -2.9260  -19.0980 C   0  0  0  0  0  0  0  0  0  0  0  0
   -4.2460   -3.8480  -18.2000 C   0  0  0  0  0  3  0  0  0  0  0  0
   -5.0420   -4.8150  -17.5640 C   0  0  0  0  0  3  0  0  0  0  0  0
   -7.1770   -7.3070  -13.7570 C   0  0  0  0  0  1  0  0  0  0  0  0
   -6.7620   -6.4490  -14.9420 C   0  0  2  0  0  0  0  0  0  0  0  0
   -7.8820   -5.5660  -15.5580 C   0  0  0  0  0  2  0  0  0  0  0  0
   -7.3480   -5.9590  -16.9680 C   0  0  2  0  0  0  0  0  0  0  0  0
   -6.7170   -7.2150  -16.2910 C   0  0  0  0  0  2  0  0  0  0  0  0
   -8.4390   -6.3810  -17.8850 N   0  0  0  0  0  4  0  0  0  0  0  0
   -8.9980   -7.1590  -17.5180 H   0  0  0  0  0  0  0  0  0  0  0  0
   -9.0870   -5.6110  -18.0870 H   0  0  0  0  0  0  0  0  0  0  0  0
   -8.0480   -6.6830  -18.7880 H   0  0  0  0  0  0  0  0  0  0  0  0
   -5.5410   -5.7520  -14.6340 O   0  0  0  0  0  0  0  0  0  0  0  0
   -5.6660   -5.3290  -13.7630 H   0  0  0  0  0  0  0  0  0  0  0  0
   -0.8660    2.6620  -20.8610 C   0  0  0  0  0  3  0  0  0  0  0  0
   -1.9310    2.7150  -20.0150 F   0  0  0  0  0  0  0  0  0  0  0  0
    0.1260    2.0160  -20.1910 F   0  0  0  0  0  0  0  0  0  0  0  0
  1 13  1  0  0  0  0
  1 23  1  0  0  0  0
  2  1  2  0  0  0  0
  3 11  2  0  0  0  0
  3  2  1  0  0  0  0
  4  3  1  0  0  0  0
  5  6  1  0  0  0  0
  5  4  2  0  0  0  0
  6 10  1  0  0  0  0
  7  6  2  0  0  0  0
  7  8  1  0  0  0  0
  8  9  2  0  0  0  0
  9 37  1  0  0  0  0
 10  9  1  0  0  0  0
 10 11  1  0  0  0  0
 11 12  1  0  0  0  0
 12 13  2  0  0  0  0
 13 14  1  0  0  0  0
 14 15  2  0  0  0  0
 14 19  1  0  0  0  0
 15 16  1  0  0  0  0
 16 17  2  0  0  0  0
 18 17  1  0  0  0  0
 19 18  2  0  0  0  0
 20 25  1  0  0  0  0
 20 29  1  0  0  0  0
 21 20  2  0  0  0  0
 22 23  2  0  0  0  0
 22 21  1  0  0  0  0
 23 24  1  0  0  0  0
 24 25  2  0  0  0  0
 27 35  1  0  0  0  0
 27 26  1  1  0  0  0
 28 27  1  0  0  0  0
 29 31  1  6  0  0  0
 29 30  1  0  0  0  0
 29 28  1  0  0  0  0
 30 27  1  0  0  0  0
 31 32  1  0  0  0  0
 33 31  1  0  0  0  0
 34 31  1  0  0  0  0
 35 36  1  0  0  0  0
 37 39  1  0  0  0  0
 37 38  1  0  0  0  0
M  END
>  <minimizedAffinity>
3.32402205

$$$$
