
 OpenBabel10152419413D

 39 42  0  0  1  0  0  0  0  0999 V2000
    2.7900  -11.4260  -25.8730 C   0  0  0  0  0  0  0  0  0  0  0  0
    2.8040  -11.6010  -24.4900 C   0  0  0  0  0  3  0  0  0  0  0  0
    1.7500  -12.2330  -23.8520 C   0  0  0  0  0  3  0  0  0  0  0  0
    0.5650  -12.4330  -24.5340 C   0  0  0  0  0  3  0  0  0  0  0  0
    0.3720  -11.8280  -25.7620 C   0  0  0  0  0  0  0  0  0  0  0  0
    1.5170  -11.4590  -26.4860 C   0  0  0  0  0  3  0  0  0  0  0  0
   -0.9020  -11.5680  -26.3040 N   0  0  0  0  0  0  0  0  0  0  0  0
   -1.8810  -10.6410  -25.9710 C   0  0  0  0  0  0  0  0  0  0  0  0
   -2.9710  -10.7480  -26.5380 O   0  0  0  0  0  0  0  0  0  0  0  0
   -1.1670  -12.0960  -27.1260 H   0  0  0  0  0  0  0  0  0  0  0  0
   -1.6630   -9.6170  -24.9800 C   0  0  2  0  0  3  0  0  0  0  0  0
   -1.3580   -9.6300  -23.6280 C   0  0  0  0  0  2  0  0  0  0  0  0
   -1.7240   -8.3370  -23.1630 C   0  0  1  0  0  3  0  0  0  0  0  0
   -1.8990   -7.5020  -24.1990 N   0  0  0  0  0  2  0  0  0  0  0  0
   -1.7540   -8.2860  -25.2810 N   0  0  0  0  0  0  0  0  0  0  0  0
   -1.8630   -7.8720  -26.2020 H   0  0  0  0  0  0  0  0  0  0  0  0
   -2.0840   -7.8900  -21.7490 C   0  0  0  0  0  0  0  0  0  0  0  0
   -3.5960   -8.0160  -21.4910 C   0  0  0  0  0  1  0  0  0  0  0  0
   -1.3360   -8.7830  -20.7280 C   0  0  0  0  0  1  0  0  0  0  0  0
   -1.6760   -6.4270  -21.4760 C   0  0  0  0  0  1  0  0  0  0  0  0
    3.8480  -11.9570  -28.1200 C   0  0  0  0  0  1  0  0  0  0  0  0
    4.0720  -11.3650  -26.7190 C   0  0  1  0  0  3  0  0  0  0  0  0
    4.7210  -10.0590  -26.9060 N   0  0  0  0  0  0  0  0  0  0  0  0
    5.6940  -10.1120  -27.2000 H   0  0  0  0  0  0  0  0  0  0  0  0
    4.2440   -8.8320  -27.2840 C   0  0  0  0  0  0  0  0  0  0  0  0
    4.6940   -8.5140  -28.5090 N   0  0  0  0  0  0  0  0  0  0  0  0
    4.0380   -7.5600  -29.1610 C   0  0  0  0  0  3  0  0  0  0  0  0
    2.9430   -6.9350  -28.7260 N   0  0  0  0  0  0  0  0  0  0  0  0
    2.5370   -7.1820  -27.4610 C   0  0  0  0  0  0  0  0  0  0  0  0
    1.3520   -6.6230  -26.9420 C   0  0  0  0  0  0  0  0  0  0  0  0
    0.9850   -6.8090  -25.5970 C   0  0  0  0  0  3  0  0  0  0  0  0
    1.7700   -7.5820  -24.7550 C   0  0  0  0  0  3  0  0  0  0  0  0
    2.8870   -8.2240  -25.2740 C   0  0  0  0  0  3  0  0  0  0  0  0
    3.2550   -8.0700  -26.6340 C   0  0  0  0  0  0  0  0  0  0  0  0
    0.3540   -5.8990  -27.7930 C   0  0  0  0  0  0  0  0  0  0  0  0
    0.8020   -4.9200  -28.6300 N   0  0  0  0  0  0  0  0  0  0  0  0
   -0.8330   -6.2070  -27.7940 O   0  0  0  0  0  0  0  0  0  0  0  0
    0.1450   -4.4500  -29.2340 H   0  0  0  0  0  0  0  0  0  0  0  0
    1.7740   -4.6230  -28.6140 H   0  0  0  0  0  0  0  0  0  0  0  0
  1  2  1  0  0  0  0
  2  3  2  0  0  0  0
  4  3  1  0  0  0  0
  5  4  2  0  0  0  0
  6  1  2  0  0  0  0
  6  5  1  0  0  0  0
  7  8  1  0  0  0  0
  7  5  1  0  0  0  0
  9  8  2  0  0  0  0
 10  7  1  0  0  0  0
 11  8  1  1  0  0  0
 11 12  1  0  0  0  0
 12 13  1  0  0  0  0
 13 17  1  6  0  0  0
 14 13  1  0  0  0  0
 15 11  1  0  0  0  0
 15 14  1  0  0  0  0
 16 15  1  0  0  0  0
 17 18  1  0  0  0  0
 17 20  1  0  0  0  0
 17 19  1  0  0  0  0
 22 21  1  6  0  0  0
 22  1  1  0  0  0  0
 23 22  1  0  0  0  0
 24 23  1  0  0  0  0
 25 23  1  0  0  0  0
 25 34  1  0  0  0  0
 26 25  2  0  0  0  0
 27 28  2  0  0  0  0
 27 26  1  0  0  0  0
 28 29  1  0  0  0  0
 29 30  2  0  0  0  0
 29 34  1  0  0  0  0
 30 31  1  0  0  0  0
 31 32  2  0  0  0  0
 33 32  1  0  0  0  0
 34 33  2  0  0  0  0
 35 30  1  0  0  0  0
 36 39  1  0  0  0  0
 36 35  1  0  0  0  0
 37 35  2  0  0  0  0
 38 36  1  0  0  0  0
M  END
>  <minimizedAffinity>
-6.81368017

$$$$
