
 OpenBabel10152419413D

 39 42  0  0  1  0  0  0  0  0999 V2000
    1.8470  -11.8950  -25.7930 C   0  0  0  0  0  0  0  0  0  0  0  0
    0.6930  -11.5540  -26.4990 C   0  0  0  0  0  3  0  0  0  0  0  0
   -0.4360  -11.1160  -25.8280 C   0  0  0  0  0  3  0  0  0  0  0  0
   -0.5210  -11.2850  -24.4590 C   0  0  0  0  0  3  0  0  0  0  0  0
    0.4170  -12.0630  -23.8060 C   0  0  0  0  0  0  0  0  0  0  0  0
    1.6610  -12.2380  -24.4340 C   0  0  0  0  0  3  0  0  0  0  0  0
    0.1790  -12.6800  -22.5630 N   0  0  0  0  0  0  0  0  0  0  0  0
   -0.4770  -12.2430  -21.4200 C   0  0  0  0  0  0  0  0  0  0  0  0
   -0.3970  -12.9590  -20.4180 O   0  0  0  0  0  0  0  0  0  0  0  0
    0.4800  -13.6420  -22.4630 H   0  0  0  0  0  0  0  0  0  0  0  0
   -1.1930  -10.9930  -21.3770 C   0  0  2  0  0  3  0  0  0  0  0  0
   -2.2350  -10.4500  -22.1120 C   0  0  0  0  0  2  0  0  0  0  0  0
   -2.1590   -9.0500  -21.8670 C   0  0  1  0  0  3  0  0  0  0  0  0
   -1.3740   -8.8060  -20.8060 N   0  0  0  0  0  2  0  0  0  0  0  0
   -0.8870  -10.0140  -20.4720 N   0  0  0  0  0  0  0  0  0  0  0  0
   -0.2410  -10.0810  -19.6910 H   0  0  0  0  0  0  0  0  0  0  0  0
   -2.6800   -7.8960  -22.7170 C   0  0  0  0  0  0  0  0  0  0  0  0
   -4.1670   -7.6210  -22.4360 C   0  0  0  0  0  1  0  0  0  0  0  0
   -1.8720   -6.6170  -22.3860 C   0  0  0  0  0  1  0  0  0  0  0  0
   -2.5240   -8.1670  -24.2280 C   0  0  0  0  0  1  0  0  0  0  0  0
    3.2460  -11.9290  -27.9130 C   0  0  0  0  0  1  0  0  0  0  0  0
    3.2580  -11.7540  -26.3850 C   0  0  1  0  0  3  0  0  0  0  0  0
    4.0130  -10.5240  -26.1030 N   0  0  0  0  0  0  0  0  0  0  0  0
    5.0040  -10.6700  -25.9260 H   0  0  0  0  0  0  0  0  0  0  0  0
    3.8550   -9.2260  -26.5120 C   0  0  0  0  0  0  0  0  0  0  0  0
    4.6720   -8.9610  -27.5440 N   0  0  0  0  0  0  0  0  0  0  0  0
    4.3790   -7.8960  -28.2830 C   0  0  0  0  0  3  0  0  0  0  0  0
    3.3170   -7.1050  -28.1190 N   0  0  0  0  0  0  0  0  0  0  0  0
    2.5430   -7.3090  -27.0300 C   0  0  0  0  0  0  0  0  0  0  0  0
    1.3620   -6.5710  -26.8140 C   0  0  0  0  0  0  0  0  0  0  0  0
    0.6120   -6.7230  -25.6340 C   0  0  0  0  0  3  0  0  0  0  0  0
    1.0020   -7.6360  -24.6650 C   0  0  0  0  0  3  0  0  0  0  0  0
    2.1050   -8.4440  -24.9060 C   0  0  0  0  0  3  0  0  0  0  0  0
    2.8560   -8.3240  -26.1020 C   0  0  0  0  0  0  0  0  0  0  0  0
    0.7640   -5.6700  -27.8510 C   0  0  0  0  0  0  0  0  0  0  0  0
    1.5880   -4.8160  -28.5230 N   0  0  0  0  0  0  0  0  0  0  0  0
   -0.4250   -5.7300  -28.1450 O   0  0  0  0  0  0  0  0  0  0  0  0
    1.2040   -4.2300  -29.2490 H   0  0  0  0  0  0  0  0  0  0  0  0
    2.5670   -4.7230  -28.2660 H   0  0  0  0  0  0  0  0  0  0  0  0
  1  6  1  0  0  0  0
  2  3  1  0  0  0  0
  2  1  2  0  0  0  0
  3  4  2  0  0  0  0
  4  5  1  0  0  0  0
  5  7  1  0  0  0  0
  6  5  2  0  0  0  0
  7 10  1  0  0  0  0
  7  8  1  0  0  0  0
  8  9  2  0  0  0  0
 11  8  1  6  0  0  0
 11 15  1  0  0  0  0
 12 13  1  0  0  0  0
 12 11  1  0  0  0  0
 13 17  1  6  0  0  0
 13 14  1  0  0  0  0
 14 15  1  0  0  0  0
 15 16  1  0  0  0  0
 17 18  1  0  0  0  0
 17 19  1  0  0  0  0
 20 17  1  0  0  0  0
 22 21  1  6  0  0  0
 22 23  1  0  0  0  0
 22  1  1  0  0  0  0
 23 24  1  0  0  0  0
 25 23  1  0  0  0  0
 25 34  1  0  0  0  0
 26 25  2  0  0  0  0
 27 28  2  0  0  0  0
 27 26  1  0  0  0  0
 28 29  1  0  0  0  0
 29 30  2  0  0  0  0
 29 34  1  0  0  0  0
 30 31  1  0  0  0  0
 31 32  2  0  0  0  0
 33 32  1  0  0  0  0
 34 33  2  0  0  0  0
 35 30  1  0  0  0  0
 36 39  1  0  0  0  0
 36 35  1  0  0  0  0
 37 35  2  0  0  0  0
 38 36  1  0  0  0  0
M  END
>  <minimizedAffinity>
-8.83366108

$$$$

 OpenBabel10152419413D

 39 42  0  0  1  0  0  0  0  0999 V2000
    1.5020  -11.3680  -25.7400 C   0  0  0  0  0  0  0  0  0  0  0  0
    0.8630  -12.5300  -25.3060 C   0  0  0  0  0  3  0  0  0  0  0  0
   -0.5150  -12.6430  -25.3830 C   0  0  0  0  0  3  0  0  0  0  0  0
   -1.2770  -11.5140  -25.6170 C   0  0  0  0  0  3  0  0  0  0  0  0
   -0.6830  -10.2660  -25.5700 C   0  0  0  0  0  0  0  0  0  0  0  0
    0.7030  -10.2030  -25.7790 C   0  0  0  0  0  3  0  0  0  0  0  0
   -1.3990   -9.0790  -25.3200 N   0  0  0  0  0  0  0  0  0  0  0  0
   -1.9820   -8.5720  -24.1660 C   0  0  0  0  0  0  0  0  0  0  0  0
   -2.6800   -7.5620  -24.2870 O   0  0  0  0  0  0  0  0  0  0  0  0
   -1.4770   -8.4200  -26.0850 H   0  0  0  0  0  0  0  0  0  0  0  0
   -1.8220   -9.2070  -22.8820 C   0  0  2  0  0  3  0  0  0  0  0  0
   -0.9450  -10.1530  -22.3740 C   0  0  0  0  0  2  0  0  0  0  0  0
   -1.5970  -10.6660  -21.2180 C   0  0  1  0  0  3  0  0  0  0  0  0
   -2.6070   -9.8590  -20.8570 N   0  0  0  0  0  2  0  0  0  0  0  0
   -2.6500   -8.9310  -21.8290 N   0  0  0  0  0  0  0  0  0  0  0  0
   -3.3600   -8.2070  -21.7810 H   0  0  0  0  0  0  0  0  0  0  0  0
   -1.4010  -12.0090  -20.5210 C   0  0  0  0  0  0  0  0  0  0  0  0
   -2.7510  -12.6690  -20.1910 C   0  0  0  0  0  1  0  0  0  0  0  0
   -0.6060  -12.9540  -21.4540 C   0  0  0  0  0  1  0  0  0  0  0  0
   -0.6050  -11.8740  -19.2060 C   0  0  0  0  0  1  0  0  0  0  0  0
    2.9550  -11.7610  -27.7860 C   0  0  0  0  0  1  0  0  0  0  0  0
    2.9330  -11.3640  -26.3010 C   0  0  1  0  0  3  0  0  0  0  0  0
    3.7260  -10.1310  -26.1770 N   0  0  0  0  0  0  0  0  0  0  0  0
    4.7210  -10.2840  -26.0340 H   0  0  0  0  0  0  0  0  0  0  0  0
    3.5750   -8.8760  -26.7050 C   0  0  0  0  0  0  0  0  0  0  0  0
    4.2450   -8.7740  -27.8640 N   0  0  0  0  0  0  0  0  0  0  0  0
    3.9010   -7.7760  -28.6710 C   0  0  0  0  0  3  0  0  0  0  0  0
    2.9140   -6.9050  -28.4510 N   0  0  0  0  0  0  0  0  0  0  0  0
    2.2980   -6.9420  -27.2490 C   0  0  0  0  0  0  0  0  0  0  0  0
    1.1990   -6.1110  -26.9560 C   0  0  0  0  0  0  0  0  0  0  0  0
    0.6210   -6.0890  -25.6740 C   0  0  0  0  0  3  0  0  0  0  0  0
    1.1020   -6.9180  -24.6720 C   0  0  0  0  0  3  0  0  0  0  0  0
    2.1170   -7.8180  -24.9700 C   0  0  0  0  0  3  0  0  0  0  0  0
    2.6920   -7.8730  -26.2650 C   0  0  0  0  0  0  0  0  0  0  0  0
    0.5020   -5.2870  -27.9960 C   0  0  0  0  0  0  0  0  0  0  0  0
    1.2520   -4.4650  -28.7840 N   0  0  0  0  0  0  0  0  0  0  0  0
   -0.7060   -5.3830  -28.1880 O   0  0  0  0  0  0  0  0  0  0  0  0
    0.7990   -3.9320  -29.5110 H   0  0  0  0  0  0  0  0  0  0  0  0
    2.2460   -4.3410  -28.6130 H   0  0  0  0  0  0  0  0  0  0  0  0
  1  2  1  0  0  0  0
  3  2  2  0  0  0  0
  4  5  2  0  0  0  0
  4  3  1  0  0  0  0
  5  7  1  0  0  0  0
  6  1  2  0  0  0  0
  6  5  1  0  0  0  0
  7  8  1  0  0  0  0
  9  8  2  0  0  0  0
 10  7  1  0  0  0  0
 11  8  1  6  0  0  0
 11 12  1  0  0  0  0
 11 15  1  0  0  0  0
 12 13  1  0  0  0  0
 13 14  1  0  0  0  0
 13 17  1  6  0  0  0
 15 16  1  0  0  0  0
 15 14  1  0  0  0  0
 17 18  1  0  0  0  0
 17 20  1  0  0  0  0
 19 17  1  0  0  0  0
 22 21  1  6  0  0  0
 22 23  1  0  0  0  0
 22  1  1  0  0  0  0
 23 24  1  0  0  0  0
 25 34  1  0  0  0  0
 25 23  1  0  0  0  0
 26 25  2  0  0  0  0
 27 28  2  0  0  0  0
 27 26  1  0  0  0  0
 28 29  1  0  0  0  0
 29 30  2  0  0  0  0
 29 34  1  0  0  0  0
 30 31  1  0  0  0  0
 31 32  2  0  0  0  0
 33 32  1  0  0  0  0
 34 33  2  0  0  0  0
 35 30  1  0  0  0  0
 36 39  1  0  0  0  0
 36 35  1  0  0  0  0
 37 35  2  0  0  0  0
 38 36  1  0  0  0  0
M  END
>  <minimizedAffinity>
-8.48052788

$$$$

 OpenBabel10152419413D

 39 42  0  0  1  0  0  0  0  0999 V2000
   -0.0580   -6.0730  -25.3520 C   0  0  0  0  0  0  0  0  0  0  0  0
   -1.0740   -5.6340  -26.2000 C   0  0  0  0  0  3  0  0  0  0  0  0
   -1.0360   -5.9310  -27.5530 C   0  0  0  0  0  3  0  0  0  0  0  0
    0.1340   -6.4080  -28.1110 C   0  0  0  0  0  3  0  0  0  0  0  0
    1.3020   -6.3910  -27.3700 C   0  0  0  0  0  0  0  0  0  0  0  0
    1.1780   -6.3690  -25.9720 C   0  0  0  0  0  3  0  0  0  0  0  0
    2.5860   -6.3920  -27.9490 N   0  0  0  0  0  0  0  0  0  0  0  0
    3.6500   -7.2770  -27.8470 C   0  0  0  0  0  0  0  0  0  0  0  0
    4.7180   -6.9340  -28.3620 O   0  0  0  0  0  0  0  0  0  0  0  0
    2.7890   -5.6550  -28.6140 H   0  0  0  0  0  0  0  0  0  0  0  0
    3.5430   -8.5290  -27.1410 C   0  0  2  0  0  3  0  0  0  0  0  0
    3.6580   -9.8600  -27.5100 C   0  0  0  0  0  2  0  0  0  0  0  0
    3.0050  -10.5810  -26.4720 C   0  0  1  0  0  3  0  0  0  0  0  0
    2.8260   -9.7930  -25.4000 N   0  0  0  0  0  2  0  0  0  0  0  0
    3.2560   -8.5850  -25.8050 N   0  0  0  0  0  0  0  0  0  0  0  0
    3.2020   -7.8050  -25.1560 H   0  0  0  0  0  0  0  0  0  0  0  0
    2.3800  -11.9720  -26.5130 C   0  0  0  0  0  0  0  0  0  0  0  0
    2.6860  -12.7610  -25.2280 C   0  0  0  0  0  1  0  0  0  0  0  0
    0.8440  -11.8350  -26.6510 C   0  0  0  0  0  1  0  0  0  0  0  0
    2.8830  -12.8030  -27.7120 C   0  0  0  0  0  1  0  0  0  0  0  0
   -0.8430   -5.1560  -23.1180 C   0  0  0  0  0  1  0  0  0  0  0  0
   -0.2880   -6.3810  -23.8650 C   0  0  1  0  0  3  0  0  0  0  0  0
   -1.1490   -7.5210  -23.5140 N   0  0  0  0  0  0  0  0  0  0  0  0
   -1.4270   -8.0960  -24.3060 H   0  0  0  0  0  0  0  0  0  0  0  0
   -1.2490   -8.2940  -22.3880 C   0  0  0  0  0  0  0  0  0  0  0  0
   -1.8990   -7.6270  -21.4210 N   0  0  0  0  0  0  0  0  0  0  0  0
   -2.4010   -8.3500  -20.4260 C   0  0  0  0  0  3  0  0  0  0  0  0
   -2.3610   -9.6810  -20.3360 N   0  0  0  0  0  0  0  0  0  0  0  0
   -1.6310  -10.3520  -21.2550 C   0  0  0  0  0  0  0  0  0  0  0  0
   -1.5910  -11.7600  -21.2810 C   0  0  0  0  0  0  0  0  0  0  0  0
   -0.7570  -12.4500  -22.1800 C   0  0  0  0  0  3  0  0  0  0  0  0
    0.0240  -11.7530  -23.0900 C   0  0  0  0  0  3  0  0  0  0  0  0
   -0.0790  -10.3700  -23.1480 C   0  0  0  0  0  3  0  0  0  0  0  0
   -0.9360   -9.6610  -22.2690 C   0  0  0  0  0  0  0  0  0  0  0  0
   -2.4980  -12.6160  -20.4510 C   0  0  0  0  0  0  0  0  0  0  0  0
   -2.0980  -12.9570  -19.1930 N   0  0  0  0  0  0  0  0  0  0  0  0
   -3.6040  -12.9590  -20.8550 O   0  0  0  0  0  0  0  0  0  0  0  0
   -2.7150  -13.5030  -18.6110 H   0  0  0  0  0  0  0  0  0  0  0  0
   -1.1700  -12.7170  -18.8560 H   0  0  0  0  0  0  0  0  0  0  0  0
  1 22  1  0  0  0  0
  2  1  2  0  0  0  0
  3  2  1  0  0  0  0
  4  3  2  0  0  0  0
  4  5  1  0  0  0  0
  5  6  2  0  0  0  0
  6  1  1  0  0  0  0
  7  8  1  0  0  0  0
  7  5  1  0  0  0  0
  9  8  2  0  0  0  0
 10  7  1  0  0  0  0
 11  8  1  6  0  0  0
 11 15  1  0  0  0  0
 12 11  1  0  0  0  0
 12 13  1  0  0  0  0
 13 17  1  6  0  0  0
 13 14  1  0  0  0  0
 15 14  1  0  0  0  0
 15 16  1  0  0  0  0
 17 18  1  0  0  0  0
 19 17  1  0  0  0  0
 20 17  1  0  0  0  0
 22 23  1  0  0  0  0
 22 21  1  1  0  0  0
 23 25  1  0  0  0  0
 24 23  1  0  0  0  0
 25 34  2  0  0  0  0
 25 26  1  0  0  0  0
 26 27  2  0  0  0  0
 27 28  1  0  0  0  0
 29 28  2  0  0  0  0
 30 29  1  0  0  0  0
 30 35  1  0  0  0  0
 31 30  2  0  0  0  0
 32 31  1  0  0  0  0
 33 32  2  0  0  0  0
 33 34  1  0  0  0  0
 34 29  1  0  0  0  0
 35 36  1  0  0  0  0
 36 39  1  0  0  0  0
 36 38  1  0  0  0  0
 37 35  2  0  0  0  0
M  END
>  <minimizedAffinity>
-8.20054436

$$$$

 OpenBabel10152419413D

 39 42  0  0  1  0  0  0  0  0999 V2000
    2.6720  -10.9230  -25.2030 C   0  0  0  0  0  0  0  0  0  0  0  0
    2.4040   -9.9560  -24.2350 C   0  0  0  0  0  3  0  0  0  0  0  0
    2.0270   -8.6760  -24.6070 C   0  0  0  0  0  3  0  0  0  0  0  0
    2.1910   -8.2740  -25.9190 C   0  0  0  0  0  3  0  0  0  0  0  0
    2.9090   -9.0690  -26.7930 C   0  0  0  0  0  0  0  0  0  0  0  0
    3.0160  -10.4350  -26.4840 C   0  0  0  0  0  3  0  0  0  0  0  0
    3.5300   -8.5740  -27.9560 N   0  0  0  0  0  0  0  0  0  0  0  0
    3.3350   -7.4110  -28.6890 C   0  0  0  0  0  0  0  0  0  0  0  0
    3.9370   -7.3160  -29.7620 O   0  0  0  0  0  0  0  0  0  0  0  0
    4.3070   -9.1090  -28.3250 H   0  0  0  0  0  0  0  0  0  0  0  0
    2.4430   -6.3670  -28.2500 C   0  0  2  0  0  3  0  0  0  0  0  0
    1.9060   -6.0070  -27.0250 C   0  0  0  0  0  2  0  0  0  0  0  0
    0.7800   -5.2000  -27.3460 C   0  0  1  0  0  3  0  0  0  0  0  0
    0.8360   -4.8130  -28.6300 N   0  0  0  0  0  2  0  0  0  0  0  0
    1.9110   -5.4550  -29.1200 N   0  0  0  0  0  0  0  0  0  0  0  0
    2.1500   -5.3300  -30.0990 H   0  0  0  0  0  0  0  0  0  0  0  0
   -0.4640   -4.9090  -26.5120 C   0  0  0  0  0  0  0  0  0  0  0  0
   -0.7760   -3.4030  -26.4800 C   0  0  0  0  0  1  0  0  0  0  0  0
   -1.6750   -5.6490  -27.1310 C   0  0  0  0  0  1  0  0  0  0  0  0
   -0.3170   -5.3950  -25.0550 C   0  0  0  0  0  1  0  0  0  0  0  0
    3.3860  -12.9590  -23.8630 C   0  0  0  0  0  1  0  0  0  0  0  0
    2.4550  -12.4250  -24.9630 C   0  0  1  0  0  3  0  0  0  0  0  0
    1.0980  -12.8890  -24.6360 N   0  0  0  0  0  0  0  0  0  0  0  0
    1.0370  -13.8770  -24.4040 H   0  0  0  0  0  0  0  0  0  0  0  0
    0.0170  -12.2660  -24.0700 C   0  0  0  0  0  0  0  0  0  0  0  0
   -0.1650  -12.7010  -22.8120 N   0  0  0  0  0  0  0  0  0  0  0  0
   -0.9130  -11.9430  -22.0170 C   0  0  0  0  0  3  0  0  0  0  0  0
   -1.4480  -10.7660  -22.3460 N   0  0  0  0  0  0  0  0  0  0  0  0
   -1.3480  -10.3660  -23.6330 C   0  0  0  0  0  0  0  0  0  0  0  0
   -1.8190   -9.1070  -24.0550 C   0  0  0  0  0  0  0  0  0  0  0  0
   -1.7960   -8.7350  -25.4110 C   0  0  0  0  0  3  0  0  0  0  0  0
   -1.2720   -9.5930  -26.3660 C   0  0  0  0  0  3  0  0  0  0  0  0
   -0.7090  -10.7950  -25.9570 C   0  0  0  0  0  3  0  0  0  0  0  0
   -0.6990  -11.1730  -24.5910 C   0  0  0  0  0  0  0  0  0  0  0  0
   -2.2670   -8.0430  -23.0990 C   0  0  0  0  0  0  0  0  0  0  0  0
   -1.3720   -7.5720  -22.1850 N   0  0  0  0  0  0  0  0  0  0  0  0
   -3.3900   -7.5530  -23.1630 O   0  0  0  0  0  0  0  0  0  0  0  0
   -1.6500   -6.8310  -21.5590 H   0  0  0  0  0  0  0  0  0  0  0  0
   -0.4520   -7.9930  -22.0900 H   0  0  0  0  0  0  0  0  0  0  0  0
  1 22  1  0  0  0  0
  1  2  1  0  0  0  0
  3  2  2  0  0  0  0
  4  3  1  0  0  0  0
  5  6  1  0  0  0  0
  5  4  2  0  0  0  0
  6  1  2  0  0  0  0
  7  5  1  0  0  0  0
  8  7  1  0  0  0  0
  9  8  2  0  0  0  0
 10  7  1  0  0  0  0
 11  8  1  6  0  0  0
 11 12  1  0  0  0  0
 13 12  1  0  0  0  0
 13 17  1  6  0  0  0
 14 13  1  0  0  0  0
 15 14  1  0  0  0  0
 15 11  1  0  0  0  0
 16 15  1  0  0  0  0
 17 18  1  0  0  0  0
 17 20  1  0  0  0  0
 19 17  1  0  0  0  0
 22 23  1  0  0  0  0
 22 21  1  1  0  0  0
 23 24  1  0  0  0  0
 23 25  1  0  0  0  0
 25 26  1  0  0  0  0
 26 27  2  0  0  0  0
 28 27  1  0  0  0  0
 29 28  2  0  0  0  0
 30 29  1  0  0  0  0
 30 35  1  0  0  0  0
 31 30  2  0  0  0  0
 32 33  2  0  0  0  0
 32 31  1  0  0  0  0
 33 34  1  0  0  0  0
 34 25  2  0  0  0  0
 34 29  1  0  0  0  0
 35 36  1  0  0  0  0
 36 39  1  0  0  0  0
 36 38  1  0  0  0  0
 37 35  2  0  0  0  0
M  END
>  <minimizedAffinity>
-8.05523968

$$$$

 OpenBabel10152419413D

 39 42  0  0  1  0  0  0  0  0999 V2000
    2.2330   -6.7980  -27.5520 C   0  0  0  0  0  0  0  0  0  0  0  0
    2.8440   -7.1700  -26.3550 C   0  0  0  0  0  3  0  0  0  0  0  0
    4.1090   -7.7340  -26.3590 C   0  0  0  0  0  3  0  0  0  0  0  0
    4.6460   -8.1890  -27.5480 C   0  0  0  0  0  3  0  0  0  0  0  0
    3.8470   -8.2650  -28.6740 C   0  0  0  0  0  0  0  0  0  0  0  0
    2.7100   -7.4440  -28.7160 C   0  0  0  0  0  3  0  0  0  0  0  0
    4.1210   -9.1200  -29.7590 N   0  0  0  0  0  0  0  0  0  0  0  0
    4.1560  -10.5050  -29.8650 C   0  0  0  0  0  0  0  0  0  0  0  0
    4.5770  -10.9760  -30.9240 O   0  0  0  0  0  0  0  0  0  0  0  0
    4.2720   -8.6840  -30.6610 H   0  0  0  0  0  0  0  0  0  0  0  0
    3.7580  -11.3670  -28.7810 C   0  0  2  0  0  3  0  0  0  0  0  0
    2.6280  -11.4600  -27.9850 C   0  0  0  0  0  2  0  0  0  0  0  0
    3.0490  -12.1980  -26.8440 C   0  0  1  0  0  3  0  0  0  0  0  0
    4.2230  -12.8020  -27.0870 N   0  0  0  0  0  2  0  0  0  0  0  0
    4.5730  -12.3580  -28.3070 N   0  0  0  0  0  0  0  0  0  0  0  0
    5.4530  -12.6710  -28.7050 H   0  0  0  0  0  0  0  0  0  0  0  0
    2.4510  -12.2210  -25.4400 C   0  0  0  0  0  0  0  0  0  0  0  0
    1.1010  -12.9590  -25.4190 C   0  0  0  0  0  1  0  0  0  0  0  0
    3.4260  -12.9530  -24.4850 C   0  0  0  0  0  1  0  0  0  0  0  0
    2.2250  -10.8020  -24.8770 C   0  0  0  0  0  1  0  0  0  0  0  0
    0.7400   -5.4400  -29.0940 C   0  0  0  0  0  1  0  0  0  0  0  0
    1.2210   -5.6450  -27.6480 C   0  0  1  0  0  3  0  0  0  0  0  0
    0.0190   -5.7000  -26.8020 N   0  0  0  0  0  0  0  0  0  0  0  0
   -0.8450   -5.8730  -27.3110 H   0  0  0  0  0  0  0  0  0  0  0  0
   -0.1830   -6.0890  -25.5040 C   0  0  0  0  0  0  0  0  0  0  0  0
   -0.0930   -5.0300  -24.6830 N   0  0  0  0  0  0  0  0  0  0  0  0
   -0.6240   -5.1630  -23.4720 C   0  0  0  0  0  3  0  0  0  0  0  0
   -1.2840   -6.2340  -23.0270 N   0  0  0  0  0  0  0  0  0  0  0  0
   -1.3000   -7.3350  -23.8120 C   0  0  0  0  0  0  0  0  0  0  0  0
   -2.0320   -8.4850  -23.4570 C   0  0  0  0  0  0  0  0  0  0  0  0
   -1.9690   -9.6580  -24.2300 C   0  0  0  0  0  3  0  0  0  0  0  0
   -1.2060   -9.6970  -25.3880 C   0  0  0  0  0  3  0  0  0  0  0  0
   -0.5600   -8.5420  -25.8090 C   0  0  0  0  0  3  0  0  0  0  0  0
   -0.6360   -7.3430  -25.0560 C   0  0  0  0  0  0  0  0  0  0  0  0
   -3.0030   -8.5120  -22.3160 C   0  0  0  0  0  0  0  0  0  0  0  0
   -4.1190   -7.7330  -22.3940 N   0  0  0  0  0  0  0  0  0  0  0  0
   -2.8440   -9.2570  -21.3550 O   0  0  0  0  0  0  0  0  0  0  0  0
   -4.7990   -7.7700  -21.6490 H   0  0  0  0  0  0  0  0  0  0  0  0
   -4.2480   -7.0810  -23.1620 H   0  0  0  0  0  0  0  0  0  0  0  0
  1  2  1  0  0  0  0
  3  2  2  0  0  0  0
  4  3  1  0  0  0  0
  5  4  2  0  0  0  0
  6  5  1  0  0  0  0
  6  1  2  0  0  0  0
  7  5  1  0  0  0  0
  8  7  1  0  0  0  0
  9  8  2  0  0  0  0
 10  7  1  0  0  0  0
 11  8  1  1  0  0  0
 11 15  1  0  0  0  0
 11 12  1  0  0  0  0
 12 13  1  0  0  0  0
 13 17  1  1  0  0  0
 14 13  1  0  0  0  0
 15 14  1  0  0  0  0
 16 15  1  0  0  0  0
 17 18  1  0  0  0  0
 17 20  1  0  0  0  0
 17 19  1  0  0  0  0
 22 21  1  6  0  0  0
 22  1  1  0  0  0  0
 22 23  1  0  0  0  0
 23 25  1  0  0  0  0
 24 23  1  0  0  0  0
 25 34  2  0  0  0  0
 25 26  1  0  0  0  0
 26 27  2  0  0  0  0
 27 28  1  0  0  0  0
 29 30  1  0  0  0  0
 29 28  2  0  0  0  0
 30 35  1  0  0  0  0
 31 30  2  0  0  0  0
 32 31  1  0  0  0  0
 33 32  2  0  0  0  0
 33 34  1  0  0  0  0
 34 29  1  0  0  0  0
 35 37  2  0  0  0  0
 36 35  1  0  0  0  0
 36 38  1  0  0  0  0
 39 36  1  0  0  0  0
M  END
>  <minimizedAffinity>
-7.60738134

$$$$

 OpenBabel10152419413D

 39 42  0  0  1  0  0  0  0  0999 V2000
    2.7900  -11.4260  -25.8730 C   0  0  0  0  0  0  0  0  0  0  0  0
    2.8040  -11.6010  -24.4900 C   0  0  0  0  0  3  0  0  0  0  0  0
    1.7500  -12.2330  -23.8520 C   0  0  0  0  0  3  0  0  0  0  0  0
    0.5650  -12.4330  -24.5340 C   0  0  0  0  0  3  0  0  0  0  0  0
    0.3720  -11.8280  -25.7620 C   0  0  0  0  0  0  0  0  0  0  0  0
    1.5170  -11.4590  -26.4860 C   0  0  0  0  0  3  0  0  0  0  0  0
   -0.9020  -11.5680  -26.3040 N   0  0  0  0  0  0  0  0  0  0  0  0
   -1.8810  -10.6410  -25.9710 C   0  0  0  0  0  0  0  0  0  0  0  0
   -2.9710  -10.7480  -26.5380 O   0  0  0  0  0  0  0  0  0  0  0  0
   -1.1670  -12.0960  -27.1260 H   0  0  0  0  0  0  0  0  0  0  0  0
   -1.6630   -9.6170  -24.9800 C   0  0  2  0  0  3  0  0  0  0  0  0
   -1.3580   -9.6300  -23.6280 C   0  0  0  0  0  2  0  0  0  0  0  0
   -1.7240   -8.3370  -23.1630 C   0  0  1  0  0  3  0  0  0  0  0  0
   -1.8990   -7.5020  -24.1990 N   0  0  0  0  0  2  0  0  0  0  0  0
   -1.7540   -8.2860  -25.2810 N   0  0  0  0  0  0  0  0  0  0  0  0
   -1.8630   -7.8720  -26.2020 H   0  0  0  0  0  0  0  0  0  0  0  0
   -2.0840   -7.8900  -21.7490 C   0  0  0  0  0  0  0  0  0  0  0  0
   -3.5960   -8.0160  -21.4910 C   0  0  0  0  0  1  0  0  0  0  0  0
   -1.3360   -8.7830  -20.7280 C   0  0  0  0  0  1  0  0  0  0  0  0
   -1.6760   -6.4270  -21.4760 C   0  0  0  0  0  1  0  0  0  0  0  0
    3.8480  -11.9570  -28.1200 C   0  0  0  0  0  1  0  0  0  0  0  0
    4.0720  -11.3650  -26.7190 C   0  0  1  0  0  3  0  0  0  0  0  0
    4.7210  -10.0590  -26.9060 N   0  0  0  0  0  0  0  0  0  0  0  0
    5.6940  -10.1120  -27.2000 H   0  0  0  0  0  0  0  0  0  0  0  0
    4.2440   -8.8320  -27.2840 C   0  0  0  0  0  0  0  0  0  0  0  0
    4.6940   -8.5140  -28.5090 N   0  0  0  0  0  0  0  0  0  0  0  0
    4.0380   -7.5600  -29.1610 C   0  0  0  0  0  3  0  0  0  0  0  0
    2.9430   -6.9350  -28.7260 N   0  0  0  0  0  0  0  0  0  0  0  0
    2.5370   -7.1820  -27.4610 C   0  0  0  0  0  0  0  0  0  0  0  0
    1.3520   -6.6230  -26.9420 C   0  0  0  0  0  0  0  0  0  0  0  0
    0.9850   -6.8090  -25.5970 C   0  0  0  0  0  3  0  0  0  0  0  0
    1.7700   -7.5820  -24.7550 C   0  0  0  0  0  3  0  0  0  0  0  0
    2.8870   -8.2240  -25.2740 C   0  0  0  0  0  3  0  0  0  0  0  0
    3.2550   -8.0700  -26.6340 C   0  0  0  0  0  0  0  0  0  0  0  0
    0.3540   -5.8990  -27.7930 C   0  0  0  0  0  0  0  0  0  0  0  0
    0.8020   -4.9200  -28.6300 N   0  0  0  0  0  0  0  0  0  0  0  0
   -0.8330   -6.2070  -27.7940 O   0  0  0  0  0  0  0  0  0  0  0  0
    0.1450   -4.4500  -29.2340 H   0  0  0  0  0  0  0  0  0  0  0  0
    1.7740   -4.6230  -28.6140 H   0  0  0  0  0  0  0  0  0  0  0  0
  1  2  1  0  0  0  0
  2  3  2  0  0  0  0
  4  3  1  0  0  0  0
  5  4  2  0  0  0  0
  6  1  2  0  0  0  0
  6  5  1  0  0  0  0
  7  8  1  0  0  0  0
  7  5  1  0  0  0  0
  9  8  2  0  0  0  0
 10  7  1  0  0  0  0
 11  8  1  1  0  0  0
 11 12  1  0  0  0  0
 12 13  1  0  0  0  0
 13 17  1  6  0  0  0
 14 13  1  0  0  0  0
 15 11  1  0  0  0  0
 15 14  1  0  0  0  0
 16 15  1  0  0  0  0
 17 18  1  0  0  0  0
 17 20  1  0  0  0  0
 17 19  1  0  0  0  0
 22 21  1  6  0  0  0
 22  1  1  0  0  0  0
 23 22  1  0  0  0  0
 24 23  1  0  0  0  0
 25 23  1  0  0  0  0
 25 34  1  0  0  0  0
 26 25  2  0  0  0  0
 27 28  2  0  0  0  0
 27 26  1  0  0  0  0
 28 29  1  0  0  0  0
 29 30  2  0  0  0  0
 29 34  1  0  0  0  0
 30 31  1  0  0  0  0
 31 32  2  0  0  0  0
 33 32  1  0  0  0  0
 34 33  2  0  0  0  0
 35 30  1  0  0  0  0
 36 39  1  0  0  0  0
 36 35  1  0  0  0  0
 37 35  2  0  0  0  0
 38 36  1  0  0  0  0
M  END
>  <minimizedAffinity>
-6.81368017

$$$$

 OpenBabel10152419413D

 39 42  0  0  1  0  0  0  0  0999 V2000
    1.5140  -11.9920  -26.3080 C   0  0  0  0  0  0  0  0  0  0  0  0
    2.3110  -12.9570  -25.6950 C   0  0  0  0  0  3  0  0  0  0  0  0
    3.5530  -12.6200  -25.1820 C   0  0  0  0  0  3  0  0  0  0  0  0
    4.1220  -11.4090  -25.5250 C   0  0  0  0  0  3  0  0  0  0  0  0
    3.5510  -10.6420  -26.5240 C   0  0  0  0  0  0  0  0  0  0  0  0
    2.1920  -10.8540  -26.8030 C   0  0  0  0  0  3  0  0  0  0  0  0
    4.2650   -9.6790  -27.2630 N   0  0  0  0  0  0  0  0  0  0  0  0
    3.9330   -8.3990  -27.6870 C   0  0  0  0  0  0  0  0  0  0  0  0
    4.7190   -7.8410  -28.4560 O   0  0  0  0  0  0  0  0  0  0  0  0
    5.2240   -9.9020  -27.5020 H   0  0  0  0  0  0  0  0  0  0  0  0
    2.7080   -7.7530  -27.2870 C   0  0  2  0  0  3  0  0  0  0  0  0
    1.6860   -7.1120  -27.9700 C   0  0  0  0  0  2  0  0  0  0  0  0
    1.0320   -6.3230  -26.9830 C   0  0  1  0  0  3  0  0  0  0  0  0
    1.3950   -6.7200  -25.7540 N   0  0  0  0  0  2  0  0  0  0  0  0
    2.3350   -7.6560  -25.9750 N   0  0  0  0  0  0  0  0  0  0  0  0
    2.7800   -8.0990  -25.1770 H   0  0  0  0  0  0  0  0  0  0  0  0
    0.1820   -5.0690  -27.1640 C   0  0  0  0  0  0  0  0  0  0  0  0
    0.9310   -3.9980  -27.9760 C   0  0  0  0  0  1  0  0  0  0  0  0
   -1.1170   -5.4400  -27.9210 C   0  0  0  0  0  1  0  0  0  0  0  0
   -0.2280   -4.4420  -25.8150 C   0  0  0  0  0  1  0  0  0  0  0  0
   -0.5460  -12.9530  -25.1750 C   0  0  0  0  0  1  0  0  0  0  0  0
   -0.0220  -12.0580  -26.3100 C   0  0  1  0  0  3  0  0  0  0  0  0
   -0.7740  -10.7960  -26.2400 N   0  0  0  0  0  0  0  0  0  0  0  0
   -1.6580  -10.8050  -26.7430 H   0  0  0  0  0  0  0  0  0  0  0  0
   -0.8540   -9.8170  -25.2860 C   0  0  0  0  0  0  0  0  0  0  0  0
   -1.1430   -8.6350  -25.8550 N   0  0  0  0  0  0  0  0  0  0  0  0
   -1.6180   -7.6850  -25.0560 C   0  0  0  0  0  3  0  0  0  0  0  0
   -1.8830   -7.8240  -23.7560 N   0  0  0  0  0  0  0  0  0  0  0  0
   -1.5100   -8.9770  -23.1580 C   0  0  0  0  0  0  0  0  0  0  0  0
   -1.8140   -9.2410  -21.8070 C   0  0  0  0  0  0  0  0  0  0  0  0
   -1.3440  -10.4010  -21.1660 C   0  0  0  0  0  3  0  0  0  0  0  0
   -0.5940  -11.3350  -21.8640 C   0  0  0  0  0  3  0  0  0  0  0  0
   -0.3710  -11.1430  -23.2220 C   0  0  0  0  0  3  0  0  0  0  0  0
   -0.8620   -9.9930  -23.8900 C   0  0  0  0  0  0  0  0  0  0  0  0
   -2.7380   -8.3820  -20.9980 C   0  0  0  0  0  0  0  0  0  0  0  0
   -3.9390   -8.0310  -21.5390 N   0  0  0  0  0  0  0  0  0  0  0  0
   -2.4620   -8.0460  -19.8520 O   0  0  0  0  0  0  0  0  0  0  0  0
   -4.5850   -7.4820  -20.9900 H   0  0  0  0  0  0  0  0  0  0  0  0
   -4.1680   -8.2650  -22.5010 H   0  0  0  0  0  0  0  0  0  0  0  0
  1  2  1  0  0  0  0
  2  3  2  0  0  0  0
  4  3  1  0  0  0  0
  5  4  2  0  0  0  0
  6  5  1  0  0  0  0
  6  1  2  0  0  0  0
  7  5  1  0  0  0  0
  8  7  1  0  0  0  0
  9  8  2  0  0  0  0
 10  7  1  0  0  0  0
 11  8  1  1  0  0  0
 11 15  1  0  0  0  0
 12 11  1  0  0  0  0
 12 13  1  0  0  0  0
 13 17  1  6  0  0  0
 13 14  1  0  0  0  0
 15 14  1  0  0  0  0
 15 16  1  0  0  0  0
 17 20  1  0  0  0  0
 18 17  1  0  0  0  0
 19 17  1  0  0  0  0
 22  1  1  0  0  0  0
 22 23  1  0  0  0  0
 22 21  1  1  0  0  0
 23 25  1  0  0  0  0
 24 23  1  0  0  0  0
 25 34  1  0  0  0  0
 26 25  2  0  0  0  0
 26 27  1  0  0  0  0
 27 28  2  0  0  0  0
 28 29  1  0  0  0  0
 29 30  1  0  0  0  0
 30 31  2  0  0  0  0
 30 35  1  0  0  0  0
 32 31  1  0  0  0  0
 33 32  2  0  0  0  0
 34 33  1  0  0  0  0
 34 29  2  0  0  0  0
 35 37  2  0  0  0  0
 36 35  1  0  0  0  0
 36 38  1  0  0  0  0
 39 36  1  0  0  0  0
M  END
>  <minimizedAffinity>
-6.70417881

$$$$

 OpenBabel10152419413D

 39 42  0  0  1  0  0  0  0  0999 V2000
    3.2890  -11.3060  -26.9550 C   0  0  0  0  0  0  0  0  0  0  0  0
    3.5840  -12.0820  -25.8350 C   0  0  0  0  0  3  0  0  0  0  0  0
    2.6350  -12.9420  -25.3070 C   0  0  0  0  0  3  0  0  0  0  0  0
    1.3180  -12.8260  -25.7060 C   0  0  0  0  0  3  0  0  0  0  0  0
    0.9250  -11.7370  -26.4620 C   0  0  0  0  0  0  0  0  0  0  0  0
    1.9170  -11.0720  -27.2000 C   0  0  0  0  0  3  0  0  0  0  0  0
   -0.4040  -11.2720  -26.5160 N   0  0  0  0  0  0  0  0  0  0  0  0
   -1.3440  -11.0280  -25.5240 C   0  0  0  0  0  0  0  0  0  0  0  0
   -2.4910  -10.7610  -25.8900 O   0  0  0  0  0  0  0  0  0  0  0  0
   -0.7590  -11.0030  -27.4260 H   0  0  0  0  0  0  0  0  0  0  0  0
   -1.0200  -11.1160  -24.1220 C   0  0  2  0  0  3  0  0  0  0  0  0
   -0.9930  -12.1510  -23.2000 C   0  0  0  0  0  2  0  0  0  0  0  0
   -1.0350  -11.5060  -21.9320 C   0  0  1  0  0  3  0  0  0  0  0  0
   -0.7530  -10.2010  -22.0650 N   0  0  0  0  0  2  0  0  0  0  0  0
   -0.6490  -10.0200  -23.3930 N   0  0  0  0  0  0  0  0  0  0  0  0
   -0.4530   -9.0880  -23.7450 H   0  0  0  0  0  0  0  0  0  0  0  0
   -1.5050  -12.0570  -20.5890 C   0  0  0  0  0  0  0  0  0  0  0  0
   -0.4170  -12.9200  -19.9270 C   0  0  0  0  0  1  0  0  0  0  0  0
   -1.8370  -10.8750  -19.6440 C   0  0  0  0  0  1  0  0  0  0  0  0
   -2.7790  -12.9180  -20.7240 C   0  0  0  0  0  1  0  0  0  0  0  0
    3.9820  -11.2770  -29.3990 C   0  0  0  0  0  1  0  0  0  0  0  0
    4.3580  -10.8620  -27.9670 C   0  0  1  0  0  3  0  0  0  0  0  0
    4.7220   -9.4380  -28.0160 N   0  0  0  0  0  0  0  0  0  0  0  0
    5.5800   -9.2410  -28.5240 H   0  0  0  0  0  0  0  0  0  0  0  0
    3.9740   -8.2910  -28.0120 C   0  0  0  0  0  0  0  0  0  0  0  0
    4.0290   -7.6950  -29.2150 N   0  0  0  0  0  0  0  0  0  0  0  0
    3.0820   -6.8030  -29.4870 C   0  0  0  0  0  3  0  0  0  0  0  0
    2.0560   -6.4930  -28.6910 N   0  0  0  0  0  0  0  0  0  0  0  0
    2.0440   -7.0170  -27.4460 C   0  0  0  0  0  0  0  0  0  0  0  0
    0.9660   -6.8030  -26.5640 C   0  0  0  0  0  0  0  0  0  0  0  0
    1.0020   -7.2730  -25.2390 C   0  0  0  0  0  3  0  0  0  0  0  0
    2.0930   -7.9940  -24.7780 C   0  0  0  0  0  3  0  0  0  0  0  0
    3.1200   -8.3030  -25.6620 C   0  0  0  0  0  3  0  0  0  0  0  0
    3.0860   -7.8610  -27.0080 C   0  0  0  0  0  0  0  0  0  0  0  0
   -0.3230   -6.1710  -26.9930 C   0  0  0  0  0  0  0  0  0  0  0  0
   -0.2900   -5.2370  -27.9860 N   0  0  0  0  0  0  0  0  0  0  0  0
   -1.3980   -6.5180  -26.5160 O   0  0  0  0  0  0  0  0  0  0  0  0
   -1.1560   -4.8310  -28.3090 H   0  0  0  0  0  0  0  0  0  0  0  0
    0.5940   -4.9080  -28.3650 H   0  0  0  0  0  0  0  0  0  0  0  0
  1  2  1  0  0  0  0
  2  3  2  0  0  0  0
  4  3  1  0  0  0  0
  5  4  2  0  0  0  0
  6  1  2  0  0  0  0
  6  5  1  0  0  0  0
  7  5  1  0  0  0  0
  7  8  1  0  0  0  0
  9  8  2  0  0  0  0
 10  7  1  0  0  0  0
 11  8  1  1  0  0  0
 11 15  1  0  0  0  0
 11 12  1  0  0  0  0
 12 13  1  0  0  0  0
 13 17  1  6  0  0  0
 14 13  1  0  0  0  0
 15 14  1  0  0  0  0
 16 15  1  0  0  0  0
 17 18  1  0  0  0  0
 17 19  1  0  0  0  0
 20 17  1  0  0  0  0
 22 21  1  6  0  0  0
 22  1  1  0  0  0  0
 23 25  1  0  0  0  0
 23 22  1  0  0  0  0
 24 23  1  0  0  0  0
 25 34  1  0  0  0  0
 26 25  2  0  0  0  0
 27 26  1  0  0  0  0
 27 28  2  0  0  0  0
 28 29  1  0  0  0  0
 29 34  2  0  0  0  0
 29 30  1  0  0  0  0
 30 31  2  0  0  0  0
 31 32  1  0  0  0  0
 33 32  2  0  0  0  0
 34 33  1  0  0  0  0
 35 30  1  0  0  0  0
 35 37  2  0  0  0  0
 36 35  1  0  0  0  0
 38 36  1  0  0  0  0
 39 36  1  0  0  0  0
M  END
>  <minimizedAffinity>
-6.62266684

$$$$
