
 OpenBabel10152419413D

 39 42  0  0  1  0  0  0  0  0999 V2000
    1.5140  -11.9920  -26.3080 C   0  0  0  0  0  0  0  0  0  0  0  0
    2.3110  -12.9570  -25.6950 C   0  0  0  0  0  3  0  0  0  0  0  0
    3.5530  -12.6200  -25.1820 C   0  0  0  0  0  3  0  0  0  0  0  0
    4.1220  -11.4090  -25.5250 C   0  0  0  0  0  3  0  0  0  0  0  0
    3.5510  -10.6420  -26.5240 C   0  0  0  0  0  0  0  0  0  0  0  0
    2.1920  -10.8540  -26.8030 C   0  0  0  0  0  3  0  0  0  0  0  0
    4.2650   -9.6790  -27.2630 N   0  0  0  0  0  0  0  0  0  0  0  0
    3.9330   -8.3990  -27.6870 C   0  0  0  0  0  0  0  0  0  0  0  0
    4.7190   -7.8410  -28.4560 O   0  0  0  0  0  0  0  0  0  0  0  0
    5.2240   -9.9020  -27.5020 H   0  0  0  0  0  0  0  0  0  0  0  0
    2.7080   -7.7530  -27.2870 C   0  0  2  0  0  3  0  0  0  0  0  0
    1.6860   -7.1120  -27.9700 C   0  0  0  0  0  2  0  0  0  0  0  0
    1.0320   -6.3230  -26.9830 C   0  0  1  0  0  3  0  0  0  0  0  0
    1.3950   -6.7200  -25.7540 N   0  0  0  0  0  2  0  0  0  0  0  0
    2.3350   -7.6560  -25.9750 N   0  0  0  0  0  0  0  0  0  0  0  0
    2.7800   -8.0990  -25.1770 H   0  0  0  0  0  0  0  0  0  0  0  0
    0.1820   -5.0690  -27.1640 C   0  0  0  0  0  0  0  0  0  0  0  0
    0.9310   -3.9980  -27.9760 C   0  0  0  0  0  1  0  0  0  0  0  0
   -1.1170   -5.4400  -27.9210 C   0  0  0  0  0  1  0  0  0  0  0  0
   -0.2280   -4.4420  -25.8150 C   0  0  0  0  0  1  0  0  0  0  0  0
   -0.5460  -12.9530  -25.1750 C   0  0  0  0  0  1  0  0  0  0  0  0
   -0.0220  -12.0580  -26.3100 C   0  0  1  0  0  3  0  0  0  0  0  0
   -0.7740  -10.7960  -26.2400 N   0  0  0  0  0  0  0  0  0  0  0  0
   -1.6580  -10.8050  -26.7430 H   0  0  0  0  0  0  0  0  0  0  0  0
   -0.8540   -9.8170  -25.2860 C   0  0  0  0  0  0  0  0  0  0  0  0
   -1.1430   -8.6350  -25.8550 N   0  0  0  0  0  0  0  0  0  0  0  0
   -1.6180   -7.6850  -25.0560 C   0  0  0  0  0  3  0  0  0  0  0  0
   -1.8830   -7.8240  -23.7560 N   0  0  0  0  0  0  0  0  0  0  0  0
   -1.5100   -8.9770  -23.1580 C   0  0  0  0  0  0  0  0  0  0  0  0
   -1.8140   -9.2410  -21.8070 C   0  0  0  0  0  0  0  0  0  0  0  0
   -1.3440  -10.4010  -21.1660 C   0  0  0  0  0  3  0  0  0  0  0  0
   -0.5940  -11.3350  -21.8640 C   0  0  0  0  0  3  0  0  0  0  0  0
   -0.3710  -11.1430  -23.2220 C   0  0  0  0  0  3  0  0  0  0  0  0
   -0.8620   -9.9930  -23.8900 C   0  0  0  0  0  0  0  0  0  0  0  0
   -2.7380   -8.3820  -20.9980 C   0  0  0  0  0  0  0  0  0  0  0  0
   -3.9390   -8.0310  -21.5390 N   0  0  0  0  0  0  0  0  0  0  0  0
   -2.4620   -8.0460  -19.8520 O   0  0  0  0  0  0  0  0  0  0  0  0
   -4.5850   -7.4820  -20.9900 H   0  0  0  0  0  0  0  0  0  0  0  0
   -4.1680   -8.2650  -22.5010 H   0  0  0  0  0  0  0  0  0  0  0  0
  1  2  1  0  0  0  0
  2  3  2  0  0  0  0
  4  3  1  0  0  0  0
  5  4  2  0  0  0  0
  6  5  1  0  0  0  0
  6  1  2  0  0  0  0
  7  5  1  0  0  0  0
  8  7  1  0  0  0  0
  9  8  2  0  0  0  0
 10  7  1  0  0  0  0
 11  8  1  1  0  0  0
 11 15  1  0  0  0  0
 12 11  1  0  0  0  0
 12 13  1  0  0  0  0
 13 17  1  6  0  0  0
 13 14  1  0  0  0  0
 15 14  1  0  0  0  0
 15 16  1  0  0  0  0
 17 20  1  0  0  0  0
 18 17  1  0  0  0  0
 19 17  1  0  0  0  0
 22  1  1  0  0  0  0
 22 23  1  0  0  0  0
 22 21  1  1  0  0  0
 23 25  1  0  0  0  0
 24 23  1  0  0  0  0
 25 34  1  0  0  0  0
 26 25  2  0  0  0  0
 26 27  1  0  0  0  0
 27 28  2  0  0  0  0
 28 29  1  0  0  0  0
 29 30  1  0  0  0  0
 30 31  2  0  0  0  0
 30 35  1  0  0  0  0
 32 31  1  0  0  0  0
 33 32  2  0  0  0  0
 34 33  1  0  0  0  0
 34 29  2  0  0  0  0
 35 37  2  0  0  0  0
 36 35  1  0  0  0  0
 36 38  1  0  0  0  0
 39 36  1  0  0  0  0
M  END
>  <minimizedAffinity>
-6.70417881

$$$$
