
 OpenBabel10152419413D

 39 42  0  0  1  0  0  0  0  0999 V2000
    3.2890  -11.3060  -26.9550 C   0  0  0  0  0  0  0  0  0  0  0  0
    3.5840  -12.0820  -25.8350 C   0  0  0  0  0  3  0  0  0  0  0  0
    2.6350  -12.9420  -25.3070 C   0  0  0  0  0  3  0  0  0  0  0  0
    1.3180  -12.8260  -25.7060 C   0  0  0  0  0  3  0  0  0  0  0  0
    0.9250  -11.7370  -26.4620 C   0  0  0  0  0  0  0  0  0  0  0  0
    1.9170  -11.0720  -27.2000 C   0  0  0  0  0  3  0  0  0  0  0  0
   -0.4040  -11.2720  -26.5160 N   0  0  0  0  0  0  0  0  0  0  0  0
   -1.3440  -11.0280  -25.5240 C   0  0  0  0  0  0  0  0  0  0  0  0
   -2.4910  -10.7610  -25.8900 O   0  0  0  0  0  0  0  0  0  0  0  0
   -0.7590  -11.0030  -27.4260 H   0  0  0  0  0  0  0  0  0  0  0  0
   -1.0200  -11.1160  -24.1220 C   0  0  2  0  0  3  0  0  0  0  0  0
   -0.9930  -12.1510  -23.2000 C   0  0  0  0  0  2  0  0  0  0  0  0
   -1.0350  -11.5060  -21.9320 C   0  0  1  0  0  3  0  0  0  0  0  0
   -0.7530  -10.2010  -22.0650 N   0  0  0  0  0  2  0  0  0  0  0  0
   -0.6490  -10.0200  -23.3930 N   0  0  0  0  0  0  0  0  0  0  0  0
   -0.4530   -9.0880  -23.7450 H   0  0  0  0  0  0  0  0  0  0  0  0
   -1.5050  -12.0570  -20.5890 C   0  0  0  0  0  0  0  0  0  0  0  0
   -0.4170  -12.9200  -19.9270 C   0  0  0  0  0  1  0  0  0  0  0  0
   -1.8370  -10.8750  -19.6440 C   0  0  0  0  0  1  0  0  0  0  0  0
   -2.7790  -12.9180  -20.7240 C   0  0  0  0  0  1  0  0  0  0  0  0
    3.9820  -11.2770  -29.3990 C   0  0  0  0  0  1  0  0  0  0  0  0
    4.3580  -10.8620  -27.9670 C   0  0  1  0  0  3  0  0  0  0  0  0
    4.7220   -9.4380  -28.0160 N   0  0  0  0  0  0  0  0  0  0  0  0
    5.5800   -9.2410  -28.5240 H   0  0  0  0  0  0  0  0  0  0  0  0
    3.9740   -8.2910  -28.0120 C   0  0  0  0  0  0  0  0  0  0  0  0
    4.0290   -7.6950  -29.2150 N   0  0  0  0  0  0  0  0  0  0  0  0
    3.0820   -6.8030  -29.4870 C   0  0  0  0  0  3  0  0  0  0  0  0
    2.0560   -6.4930  -28.6910 N   0  0  0  0  0  0  0  0  0  0  0  0
    2.0440   -7.0170  -27.4460 C   0  0  0  0  0  0  0  0  0  0  0  0
    0.9660   -6.8030  -26.5640 C   0  0  0  0  0  0  0  0  0  0  0  0
    1.0020   -7.2730  -25.2390 C   0  0  0  0  0  3  0  0  0  0  0  0
    2.0930   -7.9940  -24.7780 C   0  0  0  0  0  3  0  0  0  0  0  0
    3.1200   -8.3030  -25.6620 C   0  0  0  0  0  3  0  0  0  0  0  0
    3.0860   -7.8610  -27.0080 C   0  0  0  0  0  0  0  0  0  0  0  0
   -0.3230   -6.1710  -26.9930 C   0  0  0  0  0  0  0  0  0  0  0  0
   -0.2900   -5.2370  -27.9860 N   0  0  0  0  0  0  0  0  0  0  0  0
   -1.3980   -6.5180  -26.5160 O   0  0  0  0  0  0  0  0  0  0  0  0
   -1.1560   -4.8310  -28.3090 H   0  0  0  0  0  0  0  0  0  0  0  0
    0.5940   -4.9080  -28.3650 H   0  0  0  0  0  0  0  0  0  0  0  0
  1  2  1  0  0  0  0
  2  3  2  0  0  0  0
  4  3  1  0  0  0  0
  5  4  2  0  0  0  0
  6  1  2  0  0  0  0
  6  5  1  0  0  0  0
  7  5  1  0  0  0  0
  7  8  1  0  0  0  0
  9  8  2  0  0  0  0
 10  7  1  0  0  0  0
 11  8  1  1  0  0  0
 11 15  1  0  0  0  0
 11 12  1  0  0  0  0
 12 13  1  0  0  0  0
 13 17  1  6  0  0  0
 14 13  1  0  0  0  0
 15 14  1  0  0  0  0
 16 15  1  0  0  0  0
 17 18  1  0  0  0  0
 17 19  1  0  0  0  0
 20 17  1  0  0  0  0
 22 21  1  6  0  0  0
 22  1  1  0  0  0  0
 23 25  1  0  0  0  0
 23 22  1  0  0  0  0
 24 23  1  0  0  0  0
 25 34  1  0  0  0  0
 26 25  2  0  0  0  0
 27 26  1  0  0  0  0
 27 28  2  0  0  0  0
 28 29  1  0  0  0  0
 29 34  2  0  0  0  0
 29 30  1  0  0  0  0
 30 31  2  0  0  0  0
 31 32  1  0  0  0  0
 33 32  2  0  0  0  0
 34 33  1  0  0  0  0
 35 30  1  0  0  0  0
 35 37  2  0  0  0  0
 36 35  1  0  0  0  0
 38 36  1  0  0  0  0
 39 36  1  0  0  0  0
M  END
>  <minimizedAffinity>
-6.62266684

$$$$
