
 OpenBabel10152419413D

 39 42  0  0  1  0  0  0  0  0999 V2000
    2.2330   -6.7980  -27.5520 C   0  0  0  0  0  0  0  0  0  0  0  0
    2.8440   -7.1700  -26.3550 C   0  0  0  0  0  3  0  0  0  0  0  0
    4.1090   -7.7340  -26.3590 C   0  0  0  0  0  3  0  0  0  0  0  0
    4.6460   -8.1890  -27.5480 C   0  0  0  0  0  3  0  0  0  0  0  0
    3.8470   -8.2650  -28.6740 C   0  0  0  0  0  0  0  0  0  0  0  0
    2.7100   -7.4440  -28.7160 C   0  0  0  0  0  3  0  0  0  0  0  0
    4.1210   -9.1200  -29.7590 N   0  0  0  0  0  0  0  0  0  0  0  0
    4.1560  -10.5050  -29.8650 C   0  0  0  0  0  0  0  0  0  0  0  0
    4.5770  -10.9760  -30.9240 O   0  0  0  0  0  0  0  0  0  0  0  0
    4.2720   -8.6840  -30.6610 H   0  0  0  0  0  0  0  0  0  0  0  0
    3.7580  -11.3670  -28.7810 C   0  0  2  0  0  3  0  0  0  0  0  0
    2.6280  -11.4600  -27.9850 C   0  0  0  0  0  2  0  0  0  0  0  0
    3.0490  -12.1980  -26.8440 C   0  0  1  0  0  3  0  0  0  0  0  0
    4.2230  -12.8020  -27.0870 N   0  0  0  0  0  2  0  0  0  0  0  0
    4.5730  -12.3580  -28.3070 N   0  0  0  0  0  0  0  0  0  0  0  0
    5.4530  -12.6710  -28.7050 H   0  0  0  0  0  0  0  0  0  0  0  0
    2.4510  -12.2210  -25.4400 C   0  0  0  0  0  0  0  0  0  0  0  0
    1.1010  -12.9590  -25.4190 C   0  0  0  0  0  1  0  0  0  0  0  0
    3.4260  -12.9530  -24.4850 C   0  0  0  0  0  1  0  0  0  0  0  0
    2.2250  -10.8020  -24.8770 C   0  0  0  0  0  1  0  0  0  0  0  0
    0.7400   -5.4400  -29.0940 C   0  0  0  0  0  1  0  0  0  0  0  0
    1.2210   -5.6450  -27.6480 C   0  0  1  0  0  3  0  0  0  0  0  0
    0.0190   -5.7000  -26.8020 N   0  0  0  0  0  0  0  0  0  0  0  0
   -0.8450   -5.8730  -27.3110 H   0  0  0  0  0  0  0  0  0  0  0  0
   -0.1830   -6.0890  -25.5040 C   0  0  0  0  0  0  0  0  0  0  0  0
   -0.0930   -5.0300  -24.6830 N   0  0  0  0  0  0  0  0  0  0  0  0
   -0.6240   -5.1630  -23.4720 C   0  0  0  0  0  3  0  0  0  0  0  0
   -1.2840   -6.2340  -23.0270 N   0  0  0  0  0  0  0  0  0  0  0  0
   -1.3000   -7.3350  -23.8120 C   0  0  0  0  0  0  0  0  0  0  0  0
   -2.0320   -8.4850  -23.4570 C   0  0  0  0  0  0  0  0  0  0  0  0
   -1.9690   -9.6580  -24.2300 C   0  0  0  0  0  3  0  0  0  0  0  0
   -1.2060   -9.6970  -25.3880 C   0  0  0  0  0  3  0  0  0  0  0  0
   -0.5600   -8.5420  -25.8090 C   0  0  0  0  0  3  0  0  0  0  0  0
   -0.6360   -7.3430  -25.0560 C   0  0  0  0  0  0  0  0  0  0  0  0
   -3.0030   -8.5120  -22.3160 C   0  0  0  0  0  0  0  0  0  0  0  0
   -4.1190   -7.7330  -22.3940 N   0  0  0  0  0  0  0  0  0  0  0  0
   -2.8440   -9.2570  -21.3550 O   0  0  0  0  0  0  0  0  0  0  0  0
   -4.7990   -7.7700  -21.6490 H   0  0  0  0  0  0  0  0  0  0  0  0
   -4.2480   -7.0810  -23.1620 H   0  0  0  0  0  0  0  0  0  0  0  0
  1  2  1  0  0  0  0
  3  2  2  0  0  0  0
  4  3  1  0  0  0  0
  5  4  2  0  0  0  0
  6  5  1  0  0  0  0
  6  1  2  0  0  0  0
  7  5  1  0  0  0  0
  8  7  1  0  0  0  0
  9  8  2  0  0  0  0
 10  7  1  0  0  0  0
 11  8  1  1  0  0  0
 11 15  1  0  0  0  0
 11 12  1  0  0  0  0
 12 13  1  0  0  0  0
 13 17  1  1  0  0  0
 14 13  1  0  0  0  0
 15 14  1  0  0  0  0
 16 15  1  0  0  0  0
 17 18  1  0  0  0  0
 17 20  1  0  0  0  0
 17 19  1  0  0  0  0
 22 21  1  6  0  0  0
 22  1  1  0  0  0  0
 22 23  1  0  0  0  0
 23 25  1  0  0  0  0
 24 23  1  0  0  0  0
 25 34  2  0  0  0  0
 25 26  1  0  0  0  0
 26 27  2  0  0  0  0
 27 28  1  0  0  0  0
 29 30  1  0  0  0  0
 29 28  2  0  0  0  0
 30 35  1  0  0  0  0
 31 30  2  0  0  0  0
 32 31  1  0  0  0  0
 33 32  2  0  0  0  0
 33 34  1  0  0  0  0
 34 29  1  0  0  0  0
 35 37  2  0  0  0  0
 36 35  1  0  0  0  0
 36 38  1  0  0  0  0
 39 36  1  0  0  0  0
M  END
>  <minimizedAffinity>
-7.60738134

$$$$
