
 OpenBabel10152419413D

 39 42  0  0  1  0  0  0  0  0999 V2000
    1.5020  -11.3680  -25.7400 C   0  0  0  0  0  0  0  0  0  0  0  0
    0.8630  -12.5300  -25.3060 C   0  0  0  0  0  3  0  0  0  0  0  0
   -0.5150  -12.6430  -25.3830 C   0  0  0  0  0  3  0  0  0  0  0  0
   -1.2770  -11.5140  -25.6170 C   0  0  0  0  0  3  0  0  0  0  0  0
   -0.6830  -10.2660  -25.5700 C   0  0  0  0  0  0  0  0  0  0  0  0
    0.7030  -10.2030  -25.7790 C   0  0  0  0  0  3  0  0  0  0  0  0
   -1.3990   -9.0790  -25.3200 N   0  0  0  0  0  0  0  0  0  0  0  0
   -1.9820   -8.5720  -24.1660 C   0  0  0  0  0  0  0  0  0  0  0  0
   -2.6800   -7.5620  -24.2870 O   0  0  0  0  0  0  0  0  0  0  0  0
   -1.4770   -8.4200  -26.0850 H   0  0  0  0  0  0  0  0  0  0  0  0
   -1.8220   -9.2070  -22.8820 C   0  0  2  0  0  3  0  0  0  0  0  0
   -0.9450  -10.1530  -22.3740 C   0  0  0  0  0  2  0  0  0  0  0  0
   -1.5970  -10.6660  -21.2180 C   0  0  1  0  0  3  0  0  0  0  0  0
   -2.6070   -9.8590  -20.8570 N   0  0  0  0  0  2  0  0  0  0  0  0
   -2.6500   -8.9310  -21.8290 N   0  0  0  0  0  0  0  0  0  0  0  0
   -3.3600   -8.2070  -21.7810 H   0  0  0  0  0  0  0  0  0  0  0  0
   -1.4010  -12.0090  -20.5210 C   0  0  0  0  0  0  0  0  0  0  0  0
   -2.7510  -12.6690  -20.1910 C   0  0  0  0  0  1  0  0  0  0  0  0
   -0.6060  -12.9540  -21.4540 C   0  0  0  0  0  1  0  0  0  0  0  0
   -0.6050  -11.8740  -19.2060 C   0  0  0  0  0  1  0  0  0  0  0  0
    2.9550  -11.7610  -27.7860 C   0  0  0  0  0  1  0  0  0  0  0  0
    2.9330  -11.3640  -26.3010 C   0  0  1  0  0  3  0  0  0  0  0  0
    3.7260  -10.1310  -26.1770 N   0  0  0  0  0  0  0  0  0  0  0  0
    4.7210  -10.2840  -26.0340 H   0  0  0  0  0  0  0  0  0  0  0  0
    3.5750   -8.8760  -26.7050 C   0  0  0  0  0  0  0  0  0  0  0  0
    4.2450   -8.7740  -27.8640 N   0  0  0  0  0  0  0  0  0  0  0  0
    3.9010   -7.7760  -28.6710 C   0  0  0  0  0  3  0  0  0  0  0  0
    2.9140   -6.9050  -28.4510 N   0  0  0  0  0  0  0  0  0  0  0  0
    2.2980   -6.9420  -27.2490 C   0  0  0  0  0  0  0  0  0  0  0  0
    1.1990   -6.1110  -26.9560 C   0  0  0  0  0  0  0  0  0  0  0  0
    0.6210   -6.0890  -25.6740 C   0  0  0  0  0  3  0  0  0  0  0  0
    1.1020   -6.9180  -24.6720 C   0  0  0  0  0  3  0  0  0  0  0  0
    2.1170   -7.8180  -24.9700 C   0  0  0  0  0  3  0  0  0  0  0  0
    2.6920   -7.8730  -26.2650 C   0  0  0  0  0  0  0  0  0  0  0  0
    0.5020   -5.2870  -27.9960 C   0  0  0  0  0  0  0  0  0  0  0  0
    1.2520   -4.4650  -28.7840 N   0  0  0  0  0  0  0  0  0  0  0  0
   -0.7060   -5.3830  -28.1880 O   0  0  0  0  0  0  0  0  0  0  0  0
    0.7990   -3.9320  -29.5110 H   0  0  0  0  0  0  0  0  0  0  0  0
    2.2460   -4.3410  -28.6130 H   0  0  0  0  0  0  0  0  0  0  0  0
  1  2  1  0  0  0  0
  3  2  2  0  0  0  0
  4  5  2  0  0  0  0
  4  3  1  0  0  0  0
  5  7  1  0  0  0  0
  6  1  2  0  0  0  0
  6  5  1  0  0  0  0
  7  8  1  0  0  0  0
  9  8  2  0  0  0  0
 10  7  1  0  0  0  0
 11  8  1  6  0  0  0
 11 12  1  0  0  0  0
 11 15  1  0  0  0  0
 12 13  1  0  0  0  0
 13 14  1  0  0  0  0
 13 17  1  6  0  0  0
 15 16  1  0  0  0  0
 15 14  1  0  0  0  0
 17 18  1  0  0  0  0
 17 20  1  0  0  0  0
 19 17  1  0  0  0  0
 22 21  1  6  0  0  0
 22 23  1  0  0  0  0
 22  1  1  0  0  0  0
 23 24  1  0  0  0  0
 25 34  1  0  0  0  0
 25 23  1  0  0  0  0
 26 25  2  0  0  0  0
 27 28  2  0  0  0  0
 27 26  1  0  0  0  0
 28 29  1  0  0  0  0
 29 30  2  0  0  0  0
 29 34  1  0  0  0  0
 30 31  1  0  0  0  0
 31 32  2  0  0  0  0
 33 32  1  0  0  0  0
 34 33  2  0  0  0  0
 35 30  1  0  0  0  0
 36 39  1  0  0  0  0
 36 35  1  0  0  0  0
 37 35  2  0  0  0  0
 38 36  1  0  0  0  0
M  END
>  <minimizedAffinity>
-8.48052788

$$$$
