
 OpenBabel10152419413D

 39 42  0  0  1  0  0  0  0  0999 V2000
   -0.0580   -6.0730  -25.3520 C   0  0  0  0  0  0  0  0  0  0  0  0
   -1.0740   -5.6340  -26.2000 C   0  0  0  0  0  3  0  0  0  0  0  0
   -1.0360   -5.9310  -27.5530 C   0  0  0  0  0  3  0  0  0  0  0  0
    0.1340   -6.4080  -28.1110 C   0  0  0  0  0  3  0  0  0  0  0  0
    1.3020   -6.3910  -27.3700 C   0  0  0  0  0  0  0  0  0  0  0  0
    1.1780   -6.3690  -25.9720 C   0  0  0  0  0  3  0  0  0  0  0  0
    2.5860   -6.3920  -27.9490 N   0  0  0  0  0  0  0  0  0  0  0  0
    3.6500   -7.2770  -27.8470 C   0  0  0  0  0  0  0  0  0  0  0  0
    4.7180   -6.9340  -28.3620 O   0  0  0  0  0  0  0  0  0  0  0  0
    2.7890   -5.6550  -28.6140 H   0  0  0  0  0  0  0  0  0  0  0  0
    3.5430   -8.5290  -27.1410 C   0  0  2  0  0  3  0  0  0  0  0  0
    3.6580   -9.8600  -27.5100 C   0  0  0  0  0  2  0  0  0  0  0  0
    3.0050  -10.5810  -26.4720 C   0  0  1  0  0  3  0  0  0  0  0  0
    2.8260   -9.7930  -25.4000 N   0  0  0  0  0  2  0  0  0  0  0  0
    3.2560   -8.5850  -25.8050 N   0  0  0  0  0  0  0  0  0  0  0  0
    3.2020   -7.8050  -25.1560 H   0  0  0  0  0  0  0  0  0  0  0  0
    2.3800  -11.9720  -26.5130 C   0  0  0  0  0  0  0  0  0  0  0  0
    2.6860  -12.7610  -25.2280 C   0  0  0  0  0  1  0  0  0  0  0  0
    0.8440  -11.8350  -26.6510 C   0  0  0  0  0  1  0  0  0  0  0  0
    2.8830  -12.8030  -27.7120 C   0  0  0  0  0  1  0  0  0  0  0  0
   -0.8430   -5.1560  -23.1180 C   0  0  0  0  0  1  0  0  0  0  0  0
   -0.2880   -6.3810  -23.8650 C   0  0  1  0  0  3  0  0  0  0  0  0
   -1.1490   -7.5210  -23.5140 N   0  0  0  0  0  0  0  0  0  0  0  0
   -1.4270   -8.0960  -24.3060 H   0  0  0  0  0  0  0  0  0  0  0  0
   -1.2490   -8.2940  -22.3880 C   0  0  0  0  0  0  0  0  0  0  0  0
   -1.8990   -7.6270  -21.4210 N   0  0  0  0  0  0  0  0  0  0  0  0
   -2.4010   -8.3500  -20.4260 C   0  0  0  0  0  3  0  0  0  0  0  0
   -2.3610   -9.6810  -20.3360 N   0  0  0  0  0  0  0  0  0  0  0  0
   -1.6310  -10.3520  -21.2550 C   0  0  0  0  0  0  0  0  0  0  0  0
   -1.5910  -11.7600  -21.2810 C   0  0  0  0  0  0  0  0  0  0  0  0
   -0.7570  -12.4500  -22.1800 C   0  0  0  0  0  3  0  0  0  0  0  0
    0.0240  -11.7530  -23.0900 C   0  0  0  0  0  3  0  0  0  0  0  0
   -0.0790  -10.3700  -23.1480 C   0  0  0  0  0  3  0  0  0  0  0  0
   -0.9360   -9.6610  -22.2690 C   0  0  0  0  0  0  0  0  0  0  0  0
   -2.4980  -12.6160  -20.4510 C   0  0  0  0  0  0  0  0  0  0  0  0
   -2.0980  -12.9570  -19.1930 N   0  0  0  0  0  0  0  0  0  0  0  0
   -3.6040  -12.9590  -20.8550 O   0  0  0  0  0  0  0  0  0  0  0  0
   -2.7150  -13.5030  -18.6110 H   0  0  0  0  0  0  0  0  0  0  0  0
   -1.1700  -12.7170  -18.8560 H   0  0  0  0  0  0  0  0  0  0  0  0
  1 22  1  0  0  0  0
  2  1  2  0  0  0  0
  3  2  1  0  0  0  0
  4  3  2  0  0  0  0
  4  5  1  0  0  0  0
  5  6  2  0  0  0  0
  6  1  1  0  0  0  0
  7  8  1  0  0  0  0
  7  5  1  0  0  0  0
  9  8  2  0  0  0  0
 10  7  1  0  0  0  0
 11  8  1  6  0  0  0
 11 15  1  0  0  0  0
 12 11  1  0  0  0  0
 12 13  1  0  0  0  0
 13 17  1  6  0  0  0
 13 14  1  0  0  0  0
 15 14  1  0  0  0  0
 15 16  1  0  0  0  0
 17 18  1  0  0  0  0
 19 17  1  0  0  0  0
 20 17  1  0  0  0  0
 22 23  1  0  0  0  0
 22 21  1  1  0  0  0
 23 25  1  0  0  0  0
 24 23  1  0  0  0  0
 25 34  2  0  0  0  0
 25 26  1  0  0  0  0
 26 27  2  0  0  0  0
 27 28  1  0  0  0  0
 29 28  2  0  0  0  0
 30 29  1  0  0  0  0
 30 35  1  0  0  0  0
 31 30  2  0  0  0  0
 32 31  1  0  0  0  0
 33 32  2  0  0  0  0
 33 34  1  0  0  0  0
 34 29  1  0  0  0  0
 35 36  1  0  0  0  0
 36 39  1  0  0  0  0
 36 38  1  0  0  0  0
 37 35  2  0  0  0  0
M  END
>  <minimizedAffinity>
-8.20054436

$$$$
