
 OpenBabel10152419183D

 39 42  0  0  1  0  0  0  0  0999 V2000
    9.6800  -13.3160   11.6950 C   0  0  0  0  0  0  0  0  0  0  0  0
    9.4010  -11.9530   11.5620 C   0  0  0  0  0  3  0  0  0  0  0  0
    9.7330  -11.0450   12.5870 C   0  0  0  0  0  0  0  0  0  0  0  0
   10.4260  -11.5240   13.7130 C   0  0  0  0  0  3  0  0  0  0  0  0
   10.7860  -12.8690   13.8060 C   0  0  0  0  0  3  0  0  0  0  0  0
   10.4140  -13.7560   12.8010 C   0  0  0  0  0  0  0  0  0  0  0  0
   10.7880  -15.0380   12.9110 F   0  0  0  0  0  0  0  0  0  0  0  0
    8.1190  -13.9680    9.8280 C   0  0  0  0  0  0  0  0  0  0  0  0
    7.6280  -14.9270    9.2340 O   0  0  0  0  0  0  0  0  0  0  0  0
    9.1570  -14.1770   10.7130 N   0  0  0  0  0  0  0  0  0  0  0  0
    9.6080  -15.0740   10.5800 H   0  0  0  0  0  0  0  0  0  0  0  0
    6.7530  -10.0150    8.7870 C   0  0  0  0  0  0  0  0  0  0  0  0
    5.8550  -11.0800    8.9220 C   0  0  0  0  0  3  0  0  0  0  0  0
    6.3080  -12.3600    9.2620 C   0  0  0  0  0  3  0  0  0  0  0  0
    7.6730  -12.5920    9.4630 C   0  0  0  0  0  0  0  0  0  0  0  0
    8.5790  -11.5490    9.2410 C   0  0  0  0  0  3  0  0  0  0  0  0
    8.1160  -10.2700    8.9430 C   0  0  0  0  0  0  0  0  0  0  0  0
    9.0350   -9.3010    8.8120 F   0  0  0  0  0  0  0  0  0  0  0  0
    5.5010   -8.7170    7.2390 C   0  0  0  0  0  1  0  0  0  0  0  0
    6.1690   -8.8140    8.4920 O   0  0  0  0  0  0  0  0  0  0  0  0
    9.3570   -9.5680   12.4930 C   0  0  1  0  0  3  0  0  0  0  0  0
    9.5090   -9.0870   11.0470 C   0  0  0  0  0  1  0  0  0  0  0  0
    7.9790   -9.3600   12.9200 N   0  0  0  0  0  0  0  0  0  0  0  0
    7.6450   -8.4030   12.8450 H   0  0  0  0  0  0  0  0  0  0  0  0
    6.9180  -10.1790   12.5940 C   0  0  0  0  0  0  0  0  0  0  0  0
    5.9530   -9.4900   11.9490 N   0  0  0  0  0  0  0  0  0  0  0  0
    4.8730  -10.1610   11.5140 C   0  0  0  0  0  3  0  0  0  0  0  0
    4.6830  -11.5120   11.7110 C   0  0  0  0  0  3  0  0  0  0  0  0
    5.6320  -12.2470   12.4440 C   0  0  0  0  0  0  0  0  0  0  0  0
    5.4970  -13.6360   12.7360 C   0  0  0  0  0  0  0  0  0  0  0  0
    6.4840  -14.3300   13.4470 C   0  0  0  0  0  3  0  0  0  0  0  0
    7.5920  -13.6560   13.9270 C   0  0  0  0  0  3  0  0  0  0  0  0
    7.7270  -12.2920   13.6730 C   0  0  0  0  0  3  0  0  0  0  0  0
    6.7900  -11.5590   12.9030 C   0  0  0  0  0  0  0  0  0  0  0  0
    4.3340  -14.4620   12.3240 C   0  0  0  0  0  0  0  0  0  0  0  0
    4.4020  -15.0680   11.1020 N   0  0  0  0  0  0  0  0  0  0  0  0
    3.3270  -14.5340   13.0160 O   0  0  0  0  0  0  0  0  0  0  0  0
    3.5940  -15.5960   10.7990 H   0  0  0  0  0  0  0  0  0  0  0  0
    5.1740  -14.9470   10.4620 H   0  0  0  0  0  0  0  0  0  0  0  0
  1  6  1  0  0  0  0
  2  1  2  0  0  0  0
  2  3  1  0  0  0  0
  3  4  2  0  0  0  0
  4  5  1  0  0  0  0
  6  7  1  0  0  0  0
  6  5  2  0  0  0  0
  8 10  1  0  0  0  0
  9  8  2  0  0  0  0
 10  1  1  0  0  0  0
 11 10  1  0  0  0  0
 12 13  2  0  0  0  0
 12 17  1  0  0  0  0
 13 14  1  0  0  0  0
 14 15  2  0  0  0  0
 15  8  1  0  0  0  0
 16 15  1  0  0  0  0
 17 16  2  0  0  0  0
 18 17  1  0  0  0  0
 19 20  1  0  0  0  0
 20 12  1  0  0  0  0
 21 22  1  6  0  0  0
 21  3  1  0  0  0  0
 21 23  1  0  0  0  0
 24 23  1  0  0  0  0
 25 34  1  0  0  0  0
 25 23  1  0  0  0  0
 26 25  2  0  0  0  0
 27 28  2  0  0  0  0
 27 26  1  0  0  0  0
 28 29  1  0  0  0  0
 29 30  2  0  0  0  0
 29 34  1  0  0  0  0
 30 31  1  0  0  0  0
 31 32  2  0  0  0  0
 33 32  1  0  0  0  0
 34 33  2  0  0  0  0
 35 30  1  0  0  0  0
 35 37  2  0  0  0  0
 36 35  1  0  0  0  0
 38 36  1  0  0  0  0
 39 36  1  0  0  0  0
M  END
>  <minimizedAffinity>
6.40398884

$$$$
