
 OpenBabel11232420313D

 37 41  0  0  1  0  0  0  0  0999 V2000
   -2.2560    1.5640  -19.2180 C   0  0  0  0  0  0  0  0  0  0  0  0
   -2.7310    2.7070  -19.1580 O   0  0  0  0  0  0  0  0  0  0  0  0
   -3.0560    0.4520  -19.4340 N   0  0  0  0  0  0  0  0  0  0  0  0
   -4.5090    0.6910  -19.5740 C   0  0  0  0  0  2  0  0  0  0  0  0
   -5.3740   -0.4920  -20.0380 C   0  0  0  0  0  2  0  0  0  0  0  0
   -5.0290   -1.6790  -19.2560 N   0  0  0  0  0  0  0  0  0  0  0  0
   -3.6090   -2.0550  -19.2910 C   0  0  1  0  0  3  0  0  0  0  0  0
   -2.7150   -1.8740  -20.4880 C   0  0  0  0  0  2  0  0  0  0  0  0
   -2.6020   -0.9250  -19.3280 C   0  0  1  0  0  3  0  0  0  0  0  0
   -6.0400   -2.6480  -19.1600 C   0  0  0  0  0  0  0  0  0  0  0  0
   -7.1900   -2.4210  -19.8250 N   0  0  0  0  0  0  0  0  0  0  0  0
   -8.1830   -3.3070  -19.6570 C   0  0  0  0  0  3  0  0  0  0  0  0
   -8.1660   -4.3570  -18.8350 N   0  0  0  0  0  0  0  0  0  0  0  0
   -7.0340   -4.5190  -18.1450 C   0  0  0  0  0  0  0  0  0  0  0  0
   -5.9010   -3.7370  -18.3070 C   0  0  0  0  0  0  0  0  0  0  0  0
   -4.6550   -4.0990  -17.5400 C   0  0  2  0  0  3  0  0  0  0  0  0
   -3.8490   -5.1900  -18.2610 C   0  0  0  0  0  1  0  0  0  0  0  0
   -5.0420   -4.5760  -16.1380 C   0  0  0  0  0  2  0  0  0  0  0  0
   -6.1030   -5.6540  -16.1950 C   0  0  0  0  0  0  0  0  0  0  0  0
   -6.1660   -6.5500  -15.3580 O   0  0  0  0  0  0  0  0  0  0  0  0
   -7.0480   -5.5140  -17.1720 N   0  0  0  0  0  0  0  0  0  0  0  0
   -7.8470   -6.1320  -17.1530 H   0  0  0  0  0  0  0  0  0  0  0  0
   -0.7690    1.3730  -18.9050 C   0  0  1  0  0  3  0  0  0  0  0  0
   -0.5180    0.6320  -17.6020 C   0  0  0  0  0  0  0  0  0  0  0  0
   -0.7660    1.2330  -16.3560 C   0  0  0  0  0  3  0  0  0  0  0  0
   -0.5660    0.5210  -15.1710 C   0  0  0  0  0  3  0  0  0  0  0  0
   -0.1210   -0.7970  -15.2200 C   0  0  0  0  0  0  0  0  0  0  0  0
    0.1160   -1.6750  -13.7600 Cl  0  0  0  0  0  0  0  0  0  0  0  0
    0.1270   -1.4100  -16.4440 C   0  0  0  0  0  3  0  0  0  0  0  0
   -0.0730   -0.7010  -17.6320 C   0  0  0  0  0  3  0  0  0  0  0  0
   -0.0710    0.6180  -20.0640 C   0  0  0  0  0  2  0  0  0  0  0  0
    0.0960    1.4420  -21.3180 N   0  0  0  0  0  4  0  0  0  0  0  0
    1.1160    1.6550  -21.3660 H   0  0  0  0  0  0  0  0  0  0  0  0
   -0.3420    2.3630  -21.1790 H   0  0  0  0  0  0  0  0  0  0  0  0
   -0.1030   -0.6440  -22.6200 C   0  0  0  0  0  1  0  0  0  0  0  0
   -0.3500    0.8570  -22.6260 C   0  0  0  0  0  3  0  0  0  0  0  0
   -1.8280    1.1810  -22.8090 C   0  0  0  0  0  1  0  0  0  0  0  0
  1  2  2  0  0  0  0
  1 23  1  0  0  0  0
  3  9  1  0  0  0  0
  3  1  1  0  0  0  0
  4  3  1  0  0  0  0
  5  4  1  0  0  0  0
  5  6  1  0  0  0  0
  6 10  1  0  0  0  0
  7  8  1  6  0  0  0
  7  6  1  0  0  0  0
  9  8  1  6  0  0  0
  9  7  1  0  0  0  0
 10 15  1  0  0  0  0
 11 12  1  0  0  0  0
 11 10  2  0  0  0  0
 12 13  2  0  0  0  0
 13 14  1  0  0  0  0
 14 21  1  0  0  0  0
 15 14  2  0  0  0  0
 15 16  1  0  0  0  0
 16 17  1  6  0  0  0
 16 18  1  0  0  0  0
 19 18  1  0  0  0  0
 19 20  2  0  0  0  0
 21 22  1  0  0  0  0
 21 19  1  0  0  0  0
 23 31  1  6  0  0  0
 23 24  1  0  0  0  0
 24 25  1  0  0  0  0
 25 26  2  0  0  0  0
 27 26  1  0  0  0  0
 27 28  1  0  0  0  0
 29 27  2  0  0  0  0
 30 24  2  0  0  0  0
 30 29  1  0  0  0  0
 32 34  1  0  0  0  0
 32 31  1  0  0  0  0
 33 32  1  0  0  0  0
 36 35  1  0  0  0  0
 36 32  1  0  0  0  0
 37 36  1  0  0  0  0
M  END
>  <minimizedAffinity>
-6.18143749

$$$$
