
 OpenBabel11232420553D

 38 44  0  0  1  0  0  0  0  0999 V2000
  -17.8140   24.8960   10.0080 C   0  0  0  0  0  0  0  0  0  0  0  0
  -19.1320   24.4780    9.7250 C   0  0  0  0  0  3  0  0  0  0  0  0
  -19.5470   23.1520    9.8980 C   0  0  0  0  0  3  0  0  0  0  0  0
  -18.6650   22.1930   10.3940 C   0  0  0  0  0  0  0  0  0  0  0  0
  -17.3590   22.5720   10.6970 C   0  0  0  0  0  3  0  0  0  0  0  0
  -16.9460   23.8950   10.5050 C   0  0  0  0  0  3  0  0  0  0  0  0
  -19.1050   20.8210   10.5400 C   0  0  0  0  0  0  0  0  0  0  0  0
  -19.8550   20.4080   11.6170 N   0  0  0  0  0  0  0  0  0  0  0  0
  -20.0740   19.1280   11.4130 C   0  0  0  0  0  0  0  0  0  0  0  0
  -19.4710   18.7030   10.2630 N   0  0  0  0  0  0  0  0  0  0  0  0
  -18.8460   19.7730    9.6660 C   0  0  0  0  0  0  0  0  0  0  0  0
  -19.5990   17.3380    9.7880 C   0  0  0  0  0  2  0  0  0  0  0  0
  -19.9120   16.3870   10.8300 O   0  0  0  0  0  0  0  0  0  0  0  0
  -20.7010   16.8300   11.8560 C   0  0  0  0  0  0  0  0  0  0  0  0
  -21.3740   15.9040   12.6320 C   0  0  0  0  0  3  0  0  0  0  0  0
  -22.1540   16.2360   13.6880 N   0  0  0  0  0  0  0  0  0  0  0  0
  -22.2490   17.5500   13.9920 C   0  0  0  0  0  3  0  0  0  0  0  0
  -21.5990   18.5490   13.2910 C   0  0  0  0  0  3  0  0  0  0  0  0
  -20.8130   18.1760   12.2060 C   0  0  0  0  0  0  0  0  0  0  0  0
  -18.0720   19.6970    8.4360 C   0  0  0  0  0  0  0  0  0  0  0  0
  -18.3040   20.6160    7.4070 C   0  0  0  0  0  3  0  0  0  0  0  0
  -17.5620   20.5550    6.2260 C   0  0  0  0  0  3  0  0  0  0  0  0
  -16.5860   19.5720    6.0670 C   0  0  0  0  0  3  0  0  0  0  0  0
  -16.3530   18.6480    7.0870 C   0  0  0  0  0  3  0  0  0  0  0  0
  -17.0940   18.7100    8.2680 C   0  0  0  0  0  3  0  0  0  0  0  0
  -17.3160   26.3930    9.8010 C   0  0  2  0  0  0  0  0  0  0  0  0
  -16.7190   27.1950   10.9790 C   0  0  0  0  0  2  0  0  0  0  0  0
  -17.9860   28.1080   11.0150 C   0  0  1  0  0  0  0  0  0  0  0  0
  -18.3890   27.4980    9.6360 C   0  0  0  0  0  2  0  0  0  0  0  0
  -16.3720   26.3760    8.6540 N   0  0  0  0  0  4  0  0  0  0  0  0
  -16.8200   26.0210    7.8010 H   0  0  0  0  0  0  0  0  0  0  0  0
  -15.5720   25.7580    8.8450 H   0  0  0  0  0  0  0  0  0  0  0  0
  -15.9960   27.3100    8.4440 H   0  0  0  0  0  0  0  0  0  0  0  0
  -18.8940   27.8830   12.2160 C   0  0  0  0  0  3  0  0  0  0  0  0
  -20.0790   28.7530   12.5370 C   0  0  0  0  0  2  0  0  0  0  0  0
  -20.2800   27.3020   12.1910 C   0  0  0  0  0  2  0  0  0  0  0  0
  -17.6240   29.5020   10.8740 O   0  0  0  0  0  0  0  0  0  0  0  0
  -18.4340   30.0050   11.0870 H   0  0  0  0  0  0  0  0  0  0  0  0
  1  6  1  0  0  0  0
  2  3  1  0  0  0  0
  2  1  2  0  0  0  0
  3  4  2  0  0  0  0
  4  7  1  0  0  0  0
  4  5  1  0  0  0  0
  6  5  2  0  0  0  0
  7  8  1  0  0  0  0
  9  8  2  0  0  0  0
  9 19  1  0  0  0  0
 10  9  1  0  0  0  0
 11 10  1  0  0  0  0
 11  7  2  0  0  0  0
 12 10  1  0  0  0  0
 12 13  1  0  0  0  0
 13 14  1  0  0  0  0
 14 19  2  0  0  0  0
 14 15  1  0  0  0  0
 15 16  2  0  0  0  0
 16 17  1  0  0  0  0
 18 17  2  0  0  0  0
 19 18  1  0  0  0  0
 20 11  1  0  0  0  0
 21 20  2  0  0  0  0
 22 21  1  0  0  0  0
 23 22  2  0  0  0  0
 23 24  1  0  0  0  0
 24 25  2  0  0  0  0
 25 20  1  0  0  0  0
 26 30  1  6  0  0  0
 26  1  1  0  0  0  0
 26 27  1  0  0  0  0
 27 28  1  0  0  0  0
 28 37  1  6  0  0  0
 28 34  1  0  0  0  0
 29 26  1  0  0  0  0
 29 28  1  0  0  0  0
 30 32  1  0  0  0  0
 31 30  1  0  0  0  0
 33 30  1  0  0  0  0
 34 35  1  0  0  0  0
 36 34  1  0  0  0  0
 36 35  1  0  0  0  0
 37 38  1  0  0  0  0
M  END
>  <minimizedAffinity>
-12.5812922

$$$$

 OpenBabel11232420553D

 38 44  0  0  1  0  0  0  0  0999 V2000
  -19.2460   24.7570   11.3460 C   0  0  0  0  0  0  0  0  0  0  0  0
  -20.4950   24.2040   10.9940 C   0  0  0  0  0  3  0  0  0  0  0  0
  -20.7410   22.8260   11.0470 C   0  0  0  0  0  3  0  0  0  0  0  0
  -19.7530   21.9460   11.4870 C   0  0  0  0  0  0  0  0  0  0  0  0
  -18.5110   22.4590   11.8560 C   0  0  0  0  0  3  0  0  0  0  0  0
  -18.2660   23.8350   11.7830 C   0  0  0  0  0  3  0  0  0  0  0  0
  -20.0180   20.5230   11.5080 C   0  0  0  0  0  0  0  0  0  0  0  0
  -20.6950   19.9240   12.5460 N   0  0  0  0  0  0  0  0  0  0  0  0
  -20.7570   18.6510   12.2260 C   0  0  0  0  0  0  0  0  0  0  0  0
  -20.1230   18.4090   11.0400 N   0  0  0  0  0  0  0  0  0  0  0  0
  -19.6440   19.5980   10.5410 C   0  0  0  0  0  0  0  0  0  0  0  0
  -20.0890   17.0870   10.4430 C   0  0  0  0  0  2  0  0  0  0  0  0
  -20.2670   16.0150   11.3950 O   0  0  0  0  0  0  0  0  0  0  0  0
  -21.0880   16.2620   12.4590 C   0  0  0  0  0  0  0  0  0  0  0  0
  -21.6300   15.1930   13.1500 C   0  0  0  0  0  3  0  0  0  0  0  0
  -22.4300   15.3280   14.2340 N   0  0  0  0  0  0  0  0  0  0  0  0
  -22.6820   16.5880   14.6580 C   0  0  0  0  0  3  0  0  0  0  0  0
  -22.1710   17.7190   14.0480 C   0  0  0  0  0  3  0  0  0  0  0  0
  -21.3610   17.5460   12.9310 C   0  0  0  0  0  0  0  0  0  0  0  0
  -18.8850   19.7310    9.3070 C   0  0  0  0  0  0  0  0  0  0  0  0
  -19.0990   20.8320    8.4690 C   0  0  0  0  0  3  0  0  0  0  0  0
  -18.3710   20.9700    7.2870 C   0  0  0  0  0  3  0  0  0  0  0  0
  -17.4280   20.0070    6.9330 C   0  0  0  0  0  3  0  0  0  0  0  0
  -17.2130   18.9040    7.7600 C   0  0  0  0  0  3  0  0  0  0  0  0
  -17.9390   18.7650    8.9430 C   0  0  0  0  0  3  0  0  0  0  0  0
  -18.9380   26.3170   11.2760 C   0  0  2  0  0  0  0  0  0  0  0  0
  -18.3640   26.9500    9.9870 C   0  0  0  0  0  2  0  0  0  0  0  0
  -16.9910   27.1760   10.6950 C   0  0  1  0  0  0  0  0  0  0  0  0
  -17.7020   26.8470   12.0450 C   0  0  0  0  0  2  0  0  0  0  0  0
  -20.1780   27.0190   11.6910 N   0  0  0  0  0  4  0  0  0  0  0  0
  -20.4670   26.7490   12.6380 H   0  0  0  0  0  0  0  0  0  0  0  0
  -20.9610   26.7820   11.0660 H   0  0  0  0  0  0  0  0  0  0  0  0
  -20.0720   28.0420   11.6770 H   0  0  0  0  0  0  0  0  0  0  0  0
  -15.8710   26.2670   10.2080 C   0  0  0  0  0  3  0  0  0  0  0  0
  -16.0770   25.1490    9.2230 C   0  0  0  0  0  2  0  0  0  0  0  0
  -15.2010   26.3180    8.8640 C   0  0  0  0  0  2  0  0  0  0  0  0
  -16.6060   28.5700   10.6440 O   0  0  0  0  0  0  0  0  0  0  0  0
  -15.6740   28.5950   10.9370 H   0  0  0  0  0  0  0  0  0  0  0  0
  1  6  1  0  0  0  0
  2  3  1  0  0  0  0
  2  1  2  0  0  0  0
  3  4  2  0  0  0  0
  4  7  1  0  0  0  0
  4  5  1  0  0  0  0
  6  5  2  0  0  0  0
  7  8  1  0  0  0  0
  9  8  2  0  0  0  0
  9 19  1  0  0  0  0
 10  9  1  0  0  0  0
 11 10  1  0  0  0  0
 11  7  2  0  0  0  0
 12 10  1  0  0  0  0
 12 13  1  0  0  0  0
 13 14  1  0  0  0  0
 14 19  2  0  0  0  0
 14 15  1  0  0  0  0
 15 16  2  0  0  0  0
 16 17  1  0  0  0  0
 18 17  2  0  0  0  0
 19 18  1  0  0  0  0
 20 11  1  0  0  0  0
 21 20  2  0  0  0  0
 22 21  1  0  0  0  0
 23 22  2  0  0  0  0
 23 24  1  0  0  0  0
 24 25  2  0  0  0  0
 25 20  1  0  0  0  0
 26  1  1  0  0  0  0
 26 30  1  1  0  0  0
 26 29  1  0  0  0  0
 27 28  1  0  0  0  0
 27 26  1  0  0  0  0
 28 37  1  6  0  0  0
 28 29  1  0  0  0  0
 30 31  1  0  0  0  0
 32 30  1  0  0  0  0
 33 30  1  0  0  0  0
 34 28  1  0  0  0  0
 35 34  1  0  0  0  0
 36 35  1  0  0  0  0
 36 34  1  0  0  0  0
 37 38  1  0  0  0  0
M  END
>  <minimizedAffinity>
-11.9063635

$$$$

 OpenBabel11232420553D

 38 44  0  0  1  0  0  0  0  0999 V2000
  -18.1560   25.1890   10.2550 C   0  0  0  0  0  0  0  0  0  0  0  0
  -17.5120   24.3900   11.2230 C   0  0  0  0  0  3  0  0  0  0  0  0
  -17.9740   23.1120   11.5630 C   0  0  0  0  0  3  0  0  0  0  0  0
  -19.0840   22.5660   10.9210 C   0  0  0  0  0  0  0  0  0  0  0  0
  -19.7380   23.3220    9.9490 C   0  0  0  0  0  3  0  0  0  0  0  0
  -19.2820   24.6060    9.6280 C   0  0  0  0  0  3  0  0  0  0  0  0
  -19.5630   21.2550   11.3040 C   0  0  0  0  0  0  0  0  0  0  0  0
  -20.3740   21.0680   12.4000 N   0  0  0  0  0  0  0  0  0  0  0  0
  -20.6130   19.7770   12.4350 C   0  0  0  0  0  0  0  0  0  0  0  0
  -19.9650   19.1280   11.4210 N   0  0  0  0  0  0  0  0  0  0  0  0
  -19.2870   20.0540   10.6630 C   0  0  0  0  0  0  0  0  0  0  0  0
  -20.1020   17.6990   11.2110 C   0  0  0  0  0  2  0  0  0  0  0  0
  -20.4880   16.9720   12.3990 O   0  0  0  0  0  0  0  0  0  0  0  0
  -21.3150   17.6160   13.2780 C   0  0  0  0  0  0  0  0  0  0  0  0
  -22.0470   16.8670   14.1820 C   0  0  0  0  0  3  0  0  0  0  0  0
  -22.8690   17.4070   15.1110 N   0  0  0  0  0  0  0  0  0  0  0  0
  -22.9480   18.7570   15.1510 C   0  0  0  0  0  3  0  0  0  0  0  0
  -22.2410   19.5930   14.3060 C   0  0  0  0  0  3  0  0  0  0  0  0
  -21.4120   19.0050   13.3560 C   0  0  0  0  0  0  0  0  0  0  0  0
  -18.4560   19.7310    9.5130 C   0  0  0  0  0  0  0  0  0  0  0  0
  -17.4110   20.5870    9.1430 C   0  0  0  0  0  3  0  0  0  0  0  0
  -16.6050   20.2810    8.0450 C   0  0  0  0  0  3  0  0  0  0  0  0
  -16.8410   19.1210    7.3100 C   0  0  0  0  0  3  0  0  0  0  0  0
  -17.8830   18.2660    7.6690 C   0  0  0  0  0  3  0  0  0  0  0  0
  -18.6890   18.5700    8.7670 C   0  0  0  0  0  3  0  0  0  0  0  0
  -17.6610   26.6500    9.8680 C   0  0  2  0  0  0  0  0  0  0  0  0
  -16.8560   27.5030   10.8760 C   0  0  0  0  0  2  0  0  0  0  0  0
  -18.0760   28.4610   11.0570 C   0  0  1  0  0  0  0  0  0  0  0  0
  -18.7180   27.7810    9.8070 C   0  0  0  0  0  2  0  0  0  0  0  0
  -16.9220   26.5280    8.5860 N   0  0  0  0  0  4  0  0  0  0  0  0
  -17.5130   26.1370    7.8440 H   0  0  0  0  0  0  0  0  0  0  0  0
  -16.1170   25.8940    8.6850 H   0  0  0  0  0  0  0  0  0  0  0  0
  -16.5620   27.4320    8.2540 H   0  0  0  0  0  0  0  0  0  0  0  0
  -18.7770   28.3450   12.4030 C   0  0  0  0  0  3  0  0  0  0  0  0
  -19.0830   29.5250   13.2850 C   0  0  0  0  0  2  0  0  0  0  0  0
  -20.2050   28.7090   12.7010 C   0  0  0  0  0  2  0  0  0  0  0  0
  -17.7070   29.8300   10.7650 O   0  0  0  0  0  0  0  0  0  0  0  0
  -18.4570   30.3750   11.0730 H   0  0  0  0  0  0  0  0  0  0  0  0
  1  2  1  0  0  0  0
  2  3  2  0  0  0  0
  4  7  1  0  0  0  0
  4  3  1  0  0  0  0
  5  4  2  0  0  0  0
  6  5  1  0  0  0  0
  6  1  2  0  0  0  0
  7  8  1  0  0  0  0
  8  9  2  0  0  0  0
  9 19  1  0  0  0  0
 10  9  1  0  0  0  0
 11  7  2  0  0  0  0
 11 10  1  0  0  0  0
 12 10  1  0  0  0  0
 12 13  1  0  0  0  0
 13 14  1  0  0  0  0
 14 19  2  0  0  0  0
 14 15  1  0  0  0  0
 15 16  2  0  0  0  0
 16 17  1  0  0  0  0
 18 17  2  0  0  0  0
 19 18  1  0  0  0  0
 20 11  1  0  0  0  0
 21 20  1  0  0  0  0
 22 21  2  0  0  0  0
 23 24  2  0  0  0  0
 23 22  1  0  0  0  0
 24 25  1  0  0  0  0
 25 20  2  0  0  0  0
 26 30  1  6  0  0  0
 26  1  1  0  0  0  0
 26 27  1  0  0  0  0
 27 28  1  0  0  0  0
 28 37  1  6  0  0  0
 28 34  1  0  0  0  0
 29 26  1  0  0  0  0
 29 28  1  0  0  0  0
 30 32  1  0  0  0  0
 31 30  1  0  0  0  0
 33 30  1  0  0  0  0
 34 36  1  0  0  0  0
 34 35  1  0  0  0  0
 36 35  1  0  0  0  0
 37 38  1  0  0  0  0
M  END
>  <minimizedAffinity>
-11.0414152

$$$$

 OpenBabel11232420553D

 38 44  0  0  1  0  0  0  0  0999 V2000
  -19.5090   26.7060   10.9570 C   0  0  0  0  0  0  0  0  0  0  0  0
  -18.4370   25.8090   11.1510 C   0  0  0  0  0  3  0  0  0  0  0  0
  -18.6370   24.4340   11.3220 C   0  0  0  0  0  3  0  0  0  0  0  0
  -19.9210   23.8930   11.2730 C   0  0  0  0  0  0  0  0  0  0  0  0
  -21.0040   24.7480   11.0700 C   0  0  0  0  0  3  0  0  0  0  0  0
  -20.7980   26.1230   10.9180 C   0  0  0  0  0  3  0  0  0  0  0  0
  -20.1100   22.4720   11.4790 C   0  0  0  0  0  0  0  0  0  0  0  0
  -20.8510   21.9820   12.5300 N   0  0  0  0  0  0  0  0  0  0  0  0
  -20.8140   20.6750   12.3960 C   0  0  0  0  0  0  0  0  0  0  0  0
  -20.0570   20.3120   11.3180 N   0  0  0  0  0  0  0  0  0  0  0  0
  -19.5970   21.4480   10.6940 C   0  0  0  0  0  0  0  0  0  0  0  0
  -19.8950   18.9240   10.9250 C   0  0  0  0  0  2  0  0  0  0  0  0
  -20.1060   17.9870   12.0040 O   0  0  0  0  0  0  0  0  0  0  0  0
  -21.0380   18.3260   12.9460 C   0  0  0  0  0  0  0  0  0  0  0  0
  -21.5850   17.3310   13.7360 C   0  0  0  0  0  3  0  0  0  0  0  0
  -22.4900   17.5640   14.7140 N   0  0  0  0  0  0  0  0  0  0  0  0
  -22.8490   18.8500   14.9260 C   0  0  0  0  0  3  0  0  0  0  0  0
  -22.3430   19.9170   14.2050 C   0  0  0  0  0  3  0  0  0  0  0  0
  -21.4220   19.6420   13.1990 C   0  0  0  0  0  0  0  0  0  0  0  0
  -18.7320   21.4560    9.5240 C   0  0  0  0  0  0  0  0  0  0  0  0
  -17.3410   21.4230    9.6830 C   0  0  0  0  0  3  0  0  0  0  0  0
  -16.5040   21.4230    8.5660 C   0  0  0  0  0  3  0  0  0  0  0  0
  -17.0520   21.4600    7.2850 C   0  0  0  0  0  3  0  0  0  0  0  0
  -18.4360   21.4980    7.1190 C   0  0  0  0  0  3  0  0  0  0  0  0
  -19.2750   21.4970    8.2340 C   0  0  0  0  0  3  0  0  0  0  0  0
  -19.3070   28.2740   10.7810 C   0  0  2  0  0  0  0  0  0  0  0  0
  -17.9140   28.9160   10.9740 C   0  0  0  0  0  2  0  0  0  0  0  0
  -18.3960   29.5910   12.2980 C   0  0  1  0  0  0  0  0  0  0  0  0
  -19.8530   29.2050   11.8920 C   0  0  0  0  0  2  0  0  0  0  0  0
  -19.8630   28.6320    9.4510 N   0  0  0  0  0  4  0  0  0  0  0  0
  -20.8570   28.3830    9.3770 H   0  0  0  0  0  0  0  0  0  0  0  0
  -19.3760   28.1240    8.7000 H   0  0  0  0  0  0  0  0  0  0  0  0
  -19.7770   29.6360    9.2490 H   0  0  0  0  0  0  0  0  0  0  0  0
  -17.7980   28.9940   13.5650 C   0  0  0  0  0  3  0  0  0  0  0  0
  -16.4570   29.3910   14.1170 C   0  0  0  0  0  2  0  0  0  0  0  0
  -17.7080   29.6620   14.9090 C   0  0  0  0  0  2  0  0  0  0  0  0
  -18.2100   31.0250   12.2450 O   0  0  0  0  0  0  0  0  0  0  0  0
  -18.3600   31.3420   13.1570 H   0  0  0  0  0  0  0  0  0  0  0  0
  1  2  1  0  0  0  0
  2  3  2  0  0  0  0
  4  3  1  0  0  0  0
  4  7  1  0  0  0  0
  5  4  2  0  0  0  0
  6  1  2  0  0  0  0
  6  5  1  0  0  0  0
  7  8  1  0  0  0  0
  9  8  2  0  0  0  0
  9 19  1  0  0  0  0
 10  9  1  0  0  0  0
 11 10  1  0  0  0  0
 11  7  2  0  0  0  0
 12 10  1  0  0  0  0
 12 13  1  0  0  0  0
 13 14  1  0  0  0  0
 14 19  2  0  0  0  0
 14 15  1  0  0  0  0
 15 16  2  0  0  0  0
 16 17  1  0  0  0  0
 18 17  2  0  0  0  0
 19 18  1  0  0  0  0
 20 21  1  0  0  0  0
 20 11  1  0  0  0  0
 22 21  2  0  0  0  0
 23 22  1  0  0  0  0
 24 23  2  0  0  0  0
 24 25  1  0  0  0  0
 25 20  2  0  0  0  0
 26 30  1  6  0  0  0
 26  1  1  0  0  0  0
 26 27  1  0  0  0  0
 26 29  1  0  0  0  0
 27 28  1  0  0  0  0
 28 37  1  6  0  0  0
 28 34  1  0  0  0  0
 29 28  1  0  0  0  0
 31 30  1  0  0  0  0
 32 30  1  0  0  0  0
 33 30  1  0  0  0  0
 34 35  1  0  0  0  0
 34 36  1  0  0  0  0
 35 36  1  0  0  0  0
 37 38  1  0  0  0  0
M  END
>  <minimizedAffinity>
-10.8245325

$$$$

 OpenBabel11232420553D

 38 44  0  0  1  0  0  0  0  0999 V2000
  -18.7510   27.1140   11.4550 C   0  0  0  0  0  0  0  0  0  0  0  0
  -18.6410   25.9070   12.1770 C   0  0  0  0  0  3  0  0  0  0  0  0
  -18.3860   24.6820   11.5480 C   0  0  0  0  0  3  0  0  0  0  0  0
  -18.1960   24.6210   10.1680 C   0  0  0  0  0  0  0  0  0  0  0  0
  -18.2840   25.7960    9.4240 C   0  0  0  0  0  3  0  0  0  0  0  0
  -18.5580   27.0140   10.0570 C   0  0  0  0  0  3  0  0  0  0  0  0
  -17.9600   23.3410    9.5320 C   0  0  0  0  0  0  0  0  0  0  0  0
  -17.0550   23.1950    8.5060 N   0  0  0  0  0  0  0  0  0  0  0  0
  -17.0980   21.9200    8.1900 C   0  0  0  0  0  0  0  0  0  0  0  0
  -18.0140   21.2530    8.9540 N   0  0  0  0  0  0  0  0  0  0  0  0
  -18.5810   22.1380    9.8420 C   0  0  0  0  0  0  0  0  0  0  0  0
  -18.2200   19.8220    8.8320 C   0  0  0  0  0  2  0  0  0  0  0  0
  -17.8290   19.2870    7.5480 O   0  0  0  0  0  0  0  0  0  0  0  0
  -16.7610   19.8780    6.9300 C   0  0  0  0  0  0  0  0  0  0  0  0
  -16.0830   19.1770    5.9490 C   0  0  0  0  0  3  0  0  0  0  0  0
  -15.0350   19.6820    5.2570 N   0  0  0  0  0  0  0  0  0  0  0  0
  -14.6620   20.9500    5.5440 C   0  0  0  0  0  3  0  0  0  0  0  0
  -15.2890   21.7380    6.4920 C   0  0  0  0  0  3  0  0  0  0  0  0
  -16.3570   21.1860    7.1930 C   0  0  0  0  0  0  0  0  0  0  0  0
  -19.6230   21.7950   10.7980 C   0  0  0  0  0  0  0  0  0  0  0  0
  -19.4590   20.6930   11.6450 C   0  0  0  0  0  3  0  0  0  0  0  0
  -20.4500   20.3610   12.5700 C   0  0  0  0  0  3  0  0  0  0  0  0
  -21.6120   21.1270   12.6500 C   0  0  0  0  0  3  0  0  0  0  0  0
  -21.7850   22.2230   11.8060 C   0  0  0  0  0  3  0  0  0  0  0  0
  -20.7940   22.5570   10.8810 C   0  0  0  0  0  3  0  0  0  0  0  0
  -19.0600   28.5130   12.1470 C   0  0  2  0  0  0  0  0  0  0  0  0
  -19.0410   29.8210   11.3230 C   0  0  0  0  0  2  0  0  0  0  0  0
  -17.7330   30.2720   12.0460 C   0  0  1  0  0  0  0  0  0  0  0  0
  -17.9750   29.1200   13.0710 C   0  0  0  0  0  2  0  0  0  0  0  0
  -20.3560   28.3650   12.8550 N   0  0  0  0  0  4  0  0  0  0  0  0
  -20.3220   27.6140   13.5550 H   0  0  0  0  0  0  0  0  0  0  0  0
  -21.1090   28.1190   12.1980 H   0  0  0  0  0  0  0  0  0  0  0  0
  -20.6390   29.2280   13.3380 H   0  0  0  0  0  0  0  0  0  0  0  0
  -16.4840   30.2360   11.1750 C   0  0  0  0  0  3  0  0  0  0  0  0
  -15.9210   31.4460   10.4800 C   0  0  0  0  0  2  0  0  0  0  0  0
  -15.1210   30.7490   11.5470 C   0  0  0  0  0  2  0  0  0  0  0  0
  -17.9070   31.5640   12.6740 O   0  0  0  0  0  0  0  0  0  0  0  0
  -17.0110   31.8490   12.9390 H   0  0  0  0  0  0  0  0  0  0  0  0
  1 26  1  0  0  0  0
  1  2  1  0  0  0  0
  3  2  2  0  0  0  0
  4  3  1  0  0  0  0
  5  6  1  0  0  0  0
  5  4  2  0  0  0  0
  6  1  2  0  0  0  0
  7 11  2  0  0  0  0
  7  4  1  0  0  0  0
  8  7  1  0  0  0  0
  9  8  2  0  0  0  0
  9 10  1  0  0  0  0
 10 11  1  0  0  0  0
 11 20  1  0  0  0  0
 12 10  1  0  0  0  0
 13 12  1  0  0  0  0
 14 19  1  0  0  0  0
 14 13  1  0  0  0  0
 15 14  2  0  0  0  0
 16 17  2  0  0  0  0
 16 15  1  0  0  0  0
 17 18  1  0  0  0  0
 18 19  2  0  0  0  0
 19  9  1  0  0  0  0
 20 25  2  0  0  0  0
 20 21  1  0  0  0  0
 21 22  2  0  0  0  0
 22 23  1  0  0  0  0
 24 23  2  0  0  0  0
 25 24  1  0  0  0  0
 26 30  1  1  0  0  0
 26 29  1  0  0  0  0
 27 28  1  0  0  0  0
 27 26  1  0  0  0  0
 28 37  1  1  0  0  0
 28 29  1  0  0  0  0
 30 33  1  0  0  0  0
 30 31  1  0  0  0  0
 32 30  1  0  0  0  0
 34 36  1  0  0  0  0
 34 28  1  0  0  0  0
 35 34  1  0  0  0  0
 35 36  1  0  0  0  0
 37 38  1  0  0  0  0
M  END
>  <minimizedAffinity>
-10.1176672

$$$$

 OpenBabel11232420553D

 38 44  0  0  1  0  0  0  0  0999 V2000
  -19.3240   26.0110   11.7510 C   0  0  0  0  0  0  0  0  0  0  0  0
  -20.1170   27.1720   11.8750 C   0  0  0  0  0  3  0  0  0  0  0  0
  -19.5580   28.4550   11.9210 C   0  0  0  0  0  3  0  0  0  0  0  0
  -18.1800   28.6320   11.8110 C   0  0  0  0  0  0  0  0  0  0  0  0
  -17.3660   27.5090   11.6740 C   0  0  0  0  0  3  0  0  0  0  0  0
  -17.9300   26.2280   11.6470 C   0  0  0  0  0  3  0  0  0  0  0  0
  -17.6190   29.9650   11.8880 C   0  0  0  0  0  0  0  0  0  0  0  0
  -16.8120   30.4730   10.8960 N   0  0  0  0  0  0  0  0  0  0  0  0
  -16.5030   31.6870   11.2920 C   0  0  0  0  0  0  0  0  0  0  0  0
  -17.0590   31.9640   12.5090 N   0  0  0  0  0  0  0  0  0  0  0  0
  -17.7980   30.8780   12.9190 C   0  0  0  0  0  0  0  0  0  0  0  0
  -16.9060   33.2580   13.1470 C   0  0  0  0  0  2  0  0  0  0  0  0
  -15.7400   33.9890   12.7060 O   0  0  0  0  0  0  0  0  0  0  0  0
  -15.3610   33.8200   11.4030 C   0  0  0  0  0  0  0  0  0  0  0  0
  -14.5530   34.7750   10.8120 C   0  0  0  0  0  3  0  0  0  0  0  0
  -14.0970   34.6880    9.5400 N   0  0  0  0  0  0  0  0  0  0  0  0
  -14.4490   33.5880    8.8360 C   0  0  0  0  0  3  0  0  0  0  0  0
  -15.2340   32.5700    9.3440 C   0  0  0  0  0  3  0  0  0  0  0  0
  -15.6940   32.6940   10.6510 C   0  0  0  0  0  0  0  0  0  0  0  0
  -18.5110   30.7940   14.1840 C   0  0  0  0  0  0  0  0  0  0  0  0
  -19.8810   31.0750   14.2340 C   0  0  0  0  0  3  0  0  0  0  0  0
  -20.5750   30.9900   15.4420 C   0  0  0  0  0  3  0  0  0  0  0  0
  -19.9020   30.6270   16.6070 C   0  0  0  0  0  3  0  0  0  0  0  0
  -18.5350   30.3500   16.5670 C   0  0  0  0  0  3  0  0  0  0  0  0
  -17.8410   30.4330   15.3590 C   0  0  0  0  0  3  0  0  0  0  0  0
  -19.9350   24.5430   11.7170 C   0  0  2  0  0  0  0  0  0  0  0  0
  -19.1260   23.3390   12.2520 C   0  0  0  0  0  2  0  0  0  0  0  0
  -18.9410   22.8010   10.7980 C   0  0  1  0  0  0  0  0  0  0  0  0
  -20.0270   23.8270   10.3460 C   0  0  0  0  0  2  0  0  0  0  0  0
  -21.2610   24.6140   12.3830 N   0  0  0  0  0  4  0  0  0  0  0  0
  -21.8860   25.2780   11.9120 H   0  0  0  0  0  0  0  0  0  0  0  0
  -21.1670   24.9370   13.3550 H   0  0  0  0  0  0  0  0  0  0  0  0
  -21.7360   23.7020   12.4070 H   0  0  0  0  0  0  0  0  0  0  0  0
  -17.5270   22.9320   10.2510 C   0  0  0  0  0  3  0  0  0  0  0  0
  -17.0750   22.3070    8.9590 C   0  0  0  0  0  2  0  0  0  0  0  0
  -17.0900   23.8050    9.1070 C   0  0  0  0  0  2  0  0  0  0  0  0
  -19.4340   21.4460   10.6810 O   0  0  0  0  0  0  0  0  0  0  0  0
  -19.1210   21.1270    9.8120 H   0  0  0  0  0  0  0  0  0  0  0  0
  1  2  1  0  0  0  0
  2  3  2  0  0  0  0
  4  7  1  0  0  0  0
  4  3  1  0  0  0  0
  5  4  2  0  0  0  0
  6  5  1  0  0  0  0
  6  1  2  0  0  0  0
  7 11  2  0  0  0  0
  8  9  2  0  0  0  0
  8  7  1  0  0  0  0
  9 10  1  0  0  0  0
 10 11  1  0  0  0  0
 10 12  1  0  0  0  0
 11 20  1  0  0  0  0
 13 12  1  0  0  0  0
 14 13  1  0  0  0  0
 15 14  1  0  0  0  0
 16 15  2  0  0  0  0
 17 18  2  0  0  0  0
 17 16  1  0  0  0  0
 18 19  1  0  0  0  0
 19  9  1  0  0  0  0
 19 14  2  0  0  0  0
 20 21  2  0  0  0  0
 20 25  1  0  0  0  0
 21 22  1  0  0  0  0
 22 23  2  0  0  0  0
 24 23  1  0  0  0  0
 25 24  2  0  0  0  0
 26  1  1  0  0  0  0
 26 27  1  0  0  0  0
 26 30  1  1  0  0  0
 28 37  1  6  0  0  0
 28 27  1  0  0  0  0
 29 28  1  0  0  0  0
 29 26  1  0  0  0  0
 30 33  1  0  0  0  0
 30 32  1  0  0  0  0
 31 30  1  0  0  0  0
 34 28  1  0  0  0  0
 35 36  1  0  0  0  0
 35 34  1  0  0  0  0
 36 34  1  0  0  0  0
 38 37  1  0  0  0  0
M  END
>  <minimizedAffinity>
-9.89057636

$$$$
