
 OpenBabel11232420553D

 38 44  0  0  1  0  0  0  0  0999 V2000
  -19.3240   26.0110   11.7510 C   0  0  0  0  0  0  0  0  0  0  0  0
  -20.1170   27.1720   11.8750 C   0  0  0  0  0  3  0  0  0  0  0  0
  -19.5580   28.4550   11.9210 C   0  0  0  0  0  3  0  0  0  0  0  0
  -18.1800   28.6320   11.8110 C   0  0  0  0  0  0  0  0  0  0  0  0
  -17.3660   27.5090   11.6740 C   0  0  0  0  0  3  0  0  0  0  0  0
  -17.9300   26.2280   11.6470 C   0  0  0  0  0  3  0  0  0  0  0  0
  -17.6190   29.9650   11.8880 C   0  0  0  0  0  0  0  0  0  0  0  0
  -16.8120   30.4730   10.8960 N   0  0  0  0  0  0  0  0  0  0  0  0
  -16.5030   31.6870   11.2920 C   0  0  0  0  0  0  0  0  0  0  0  0
  -17.0590   31.9640   12.5090 N   0  0  0  0  0  0  0  0  0  0  0  0
  -17.7980   30.8780   12.9190 C   0  0  0  0  0  0  0  0  0  0  0  0
  -16.9060   33.2580   13.1470 C   0  0  0  0  0  2  0  0  0  0  0  0
  -15.7400   33.9890   12.7060 O   0  0  0  0  0  0  0  0  0  0  0  0
  -15.3610   33.8200   11.4030 C   0  0  0  0  0  0  0  0  0  0  0  0
  -14.5530   34.7750   10.8120 C   0  0  0  0  0  3  0  0  0  0  0  0
  -14.0970   34.6880    9.5400 N   0  0  0  0  0  0  0  0  0  0  0  0
  -14.4490   33.5880    8.8360 C   0  0  0  0  0  3  0  0  0  0  0  0
  -15.2340   32.5700    9.3440 C   0  0  0  0  0  3  0  0  0  0  0  0
  -15.6940   32.6940   10.6510 C   0  0  0  0  0  0  0  0  0  0  0  0
  -18.5110   30.7940   14.1840 C   0  0  0  0  0  0  0  0  0  0  0  0
  -19.8810   31.0750   14.2340 C   0  0  0  0  0  3  0  0  0  0  0  0
  -20.5750   30.9900   15.4420 C   0  0  0  0  0  3  0  0  0  0  0  0
  -19.9020   30.6270   16.6070 C   0  0  0  0  0  3  0  0  0  0  0  0
  -18.5350   30.3500   16.5670 C   0  0  0  0  0  3  0  0  0  0  0  0
  -17.8410   30.4330   15.3590 C   0  0  0  0  0  3  0  0  0  0  0  0
  -19.9350   24.5430   11.7170 C   0  0  2  0  0  0  0  0  0  0  0  0
  -19.1260   23.3390   12.2520 C   0  0  0  0  0  2  0  0  0  0  0  0
  -18.9410   22.8010   10.7980 C   0  0  1  0  0  0  0  0  0  0  0  0
  -20.0270   23.8270   10.3460 C   0  0  0  0  0  2  0  0  0  0  0  0
  -21.2610   24.6140   12.3830 N   0  0  0  0  0  4  0  0  0  0  0  0
  -21.8860   25.2780   11.9120 H   0  0  0  0  0  0  0  0  0  0  0  0
  -21.1670   24.9370   13.3550 H   0  0  0  0  0  0  0  0  0  0  0  0
  -21.7360   23.7020   12.4070 H   0  0  0  0  0  0  0  0  0  0  0  0
  -17.5270   22.9320   10.2510 C   0  0  0  0  0  3  0  0  0  0  0  0
  -17.0750   22.3070    8.9590 C   0  0  0  0  0  2  0  0  0  0  0  0
  -17.0900   23.8050    9.1070 C   0  0  0  0  0  2  0  0  0  0  0  0
  -19.4340   21.4460   10.6810 O   0  0  0  0  0  0  0  0  0  0  0  0
  -19.1210   21.1270    9.8120 H   0  0  0  0  0  0  0  0  0  0  0  0
  1  2  1  0  0  0  0
  2  3  2  0  0  0  0
  4  7  1  0  0  0  0
  4  3  1  0  0  0  0
  5  4  2  0  0  0  0
  6  5  1  0  0  0  0
  6  1  2  0  0  0  0
  7 11  2  0  0  0  0
  8  9  2  0  0  0  0
  8  7  1  0  0  0  0
  9 10  1  0  0  0  0
 10 11  1  0  0  0  0
 10 12  1  0  0  0  0
 11 20  1  0  0  0  0
 13 12  1  0  0  0  0
 14 13  1  0  0  0  0
 15 14  1  0  0  0  0
 16 15  2  0  0  0  0
 17 18  2  0  0  0  0
 17 16  1  0  0  0  0
 18 19  1  0  0  0  0
 19  9  1  0  0  0  0
 19 14  2  0  0  0  0
 20 21  2  0  0  0  0
 20 25  1  0  0  0  0
 21 22  1  0  0  0  0
 22 23  2  0  0  0  0
 24 23  1  0  0  0  0
 25 24  2  0  0  0  0
 26  1  1  0  0  0  0
 26 27  1  0  0  0  0
 26 30  1  1  0  0  0
 28 37  1  6  0  0  0
 28 27  1  0  0  0  0
 29 28  1  0  0  0  0
 29 26  1  0  0  0  0
 30 33  1  0  0  0  0
 30 32  1  0  0  0  0
 31 30  1  0  0  0  0
 34 28  1  0  0  0  0
 35 36  1  0  0  0  0
 35 34  1  0  0  0  0
 36 34  1  0  0  0  0
 38 37  1  0  0  0  0
M  END
>  <minimizedAffinity>
-9.89057636

$$$$
