
 OpenBabel11232420553D

 38 44  0  0  1  0  0  0  0  0999 V2000
  -17.8140   24.8960   10.0080 C   0  0  0  0  0  0  0  0  0  0  0  0
  -19.1320   24.4780    9.7250 C   0  0  0  0  0  3  0  0  0  0  0  0
  -19.5470   23.1520    9.8980 C   0  0  0  0  0  3  0  0  0  0  0  0
  -18.6650   22.1930   10.3940 C   0  0  0  0  0  0  0  0  0  0  0  0
  -17.3590   22.5720   10.6970 C   0  0  0  0  0  3  0  0  0  0  0  0
  -16.9460   23.8950   10.5050 C   0  0  0  0  0  3  0  0  0  0  0  0
  -19.1050   20.8210   10.5400 C   0  0  0  0  0  0  0  0  0  0  0  0
  -19.8550   20.4080   11.6170 N   0  0  0  0  0  0  0  0  0  0  0  0
  -20.0740   19.1280   11.4130 C   0  0  0  0  0  0  0  0  0  0  0  0
  -19.4710   18.7030   10.2630 N   0  0  0  0  0  0  0  0  0  0  0  0
  -18.8460   19.7730    9.6660 C   0  0  0  0  0  0  0  0  0  0  0  0
  -19.5990   17.3380    9.7880 C   0  0  0  0  0  2  0  0  0  0  0  0
  -19.9120   16.3870   10.8300 O   0  0  0  0  0  0  0  0  0  0  0  0
  -20.7010   16.8300   11.8560 C   0  0  0  0  0  0  0  0  0  0  0  0
  -21.3740   15.9040   12.6320 C   0  0  0  0  0  3  0  0  0  0  0  0
  -22.1540   16.2360   13.6880 N   0  0  0  0  0  0  0  0  0  0  0  0
  -22.2490   17.5500   13.9920 C   0  0  0  0  0  3  0  0  0  0  0  0
  -21.5990   18.5490   13.2910 C   0  0  0  0  0  3  0  0  0  0  0  0
  -20.8130   18.1760   12.2060 C   0  0  0  0  0  0  0  0  0  0  0  0
  -18.0720   19.6970    8.4360 C   0  0  0  0  0  0  0  0  0  0  0  0
  -18.3040   20.6160    7.4070 C   0  0  0  0  0  3  0  0  0  0  0  0
  -17.5620   20.5550    6.2260 C   0  0  0  0  0  3  0  0  0  0  0  0
  -16.5860   19.5720    6.0670 C   0  0  0  0  0  3  0  0  0  0  0  0
  -16.3530   18.6480    7.0870 C   0  0  0  0  0  3  0  0  0  0  0  0
  -17.0940   18.7100    8.2680 C   0  0  0  0  0  3  0  0  0  0  0  0
  -17.3160   26.3930    9.8010 C   0  0  2  0  0  0  0  0  0  0  0  0
  -16.7190   27.1950   10.9790 C   0  0  0  0  0  2  0  0  0  0  0  0
  -17.9860   28.1080   11.0150 C   0  0  1  0  0  0  0  0  0  0  0  0
  -18.3890   27.4980    9.6360 C   0  0  0  0  0  2  0  0  0  0  0  0
  -16.3720   26.3760    8.6540 N   0  0  0  0  0  4  0  0  0  0  0  0
  -16.8200   26.0210    7.8010 H   0  0  0  0  0  0  0  0  0  0  0  0
  -15.5720   25.7580    8.8450 H   0  0  0  0  0  0  0  0  0  0  0  0
  -15.9960   27.3100    8.4440 H   0  0  0  0  0  0  0  0  0  0  0  0
  -18.8940   27.8830   12.2160 C   0  0  0  0  0  3  0  0  0  0  0  0
  -20.0790   28.7530   12.5370 C   0  0  0  0  0  2  0  0  0  0  0  0
  -20.2800   27.3020   12.1910 C   0  0  0  0  0  2  0  0  0  0  0  0
  -17.6240   29.5020   10.8740 O   0  0  0  0  0  0  0  0  0  0  0  0
  -18.4340   30.0050   11.0870 H   0  0  0  0  0  0  0  0  0  0  0  0
  1  6  1  0  0  0  0
  2  3  1  0  0  0  0
  2  1  2  0  0  0  0
  3  4  2  0  0  0  0
  4  7  1  0  0  0  0
  4  5  1  0  0  0  0
  6  5  2  0  0  0  0
  7  8  1  0  0  0  0
  9  8  2  0  0  0  0
  9 19  1  0  0  0  0
 10  9  1  0  0  0  0
 11 10  1  0  0  0  0
 11  7  2  0  0  0  0
 12 10  1  0  0  0  0
 12 13  1  0  0  0  0
 13 14  1  0  0  0  0
 14 19  2  0  0  0  0
 14 15  1  0  0  0  0
 15 16  2  0  0  0  0
 16 17  1  0  0  0  0
 18 17  2  0  0  0  0
 19 18  1  0  0  0  0
 20 11  1  0  0  0  0
 21 20  2  0  0  0  0
 22 21  1  0  0  0  0
 23 22  2  0  0  0  0
 23 24  1  0  0  0  0
 24 25  2  0  0  0  0
 25 20  1  0  0  0  0
 26 30  1  6  0  0  0
 26  1  1  0  0  0  0
 26 27  1  0  0  0  0
 27 28  1  0  0  0  0
 28 37  1  6  0  0  0
 28 34  1  0  0  0  0
 29 26  1  0  0  0  0
 29 28  1  0  0  0  0
 30 32  1  0  0  0  0
 31 30  1  0  0  0  0
 33 30  1  0  0  0  0
 34 35  1  0  0  0  0
 36 34  1  0  0  0  0
 36 35  1  0  0  0  0
 37 38  1  0  0  0  0
M  END
>  <minimizedAffinity>
-12.5812922

$$$$
