
 OpenBabel11232420553D

 38 44  0  0  1  0  0  0  0  0999 V2000
  -18.7510   27.1140   11.4550 C   0  0  0  0  0  0  0  0  0  0  0  0
  -18.6410   25.9070   12.1770 C   0  0  0  0  0  3  0  0  0  0  0  0
  -18.3860   24.6820   11.5480 C   0  0  0  0  0  3  0  0  0  0  0  0
  -18.1960   24.6210   10.1680 C   0  0  0  0  0  0  0  0  0  0  0  0
  -18.2840   25.7960    9.4240 C   0  0  0  0  0  3  0  0  0  0  0  0
  -18.5580   27.0140   10.0570 C   0  0  0  0  0  3  0  0  0  0  0  0
  -17.9600   23.3410    9.5320 C   0  0  0  0  0  0  0  0  0  0  0  0
  -17.0550   23.1950    8.5060 N   0  0  0  0  0  0  0  0  0  0  0  0
  -17.0980   21.9200    8.1900 C   0  0  0  0  0  0  0  0  0  0  0  0
  -18.0140   21.2530    8.9540 N   0  0  0  0  0  0  0  0  0  0  0  0
  -18.5810   22.1380    9.8420 C   0  0  0  0  0  0  0  0  0  0  0  0
  -18.2200   19.8220    8.8320 C   0  0  0  0  0  2  0  0  0  0  0  0
  -17.8290   19.2870    7.5480 O   0  0  0  0  0  0  0  0  0  0  0  0
  -16.7610   19.8780    6.9300 C   0  0  0  0  0  0  0  0  0  0  0  0
  -16.0830   19.1770    5.9490 C   0  0  0  0  0  3  0  0  0  0  0  0
  -15.0350   19.6820    5.2570 N   0  0  0  0  0  0  0  0  0  0  0  0
  -14.6620   20.9500    5.5440 C   0  0  0  0  0  3  0  0  0  0  0  0
  -15.2890   21.7380    6.4920 C   0  0  0  0  0  3  0  0  0  0  0  0
  -16.3570   21.1860    7.1930 C   0  0  0  0  0  0  0  0  0  0  0  0
  -19.6230   21.7950   10.7980 C   0  0  0  0  0  0  0  0  0  0  0  0
  -19.4590   20.6930   11.6450 C   0  0  0  0  0  3  0  0  0  0  0  0
  -20.4500   20.3610   12.5700 C   0  0  0  0  0  3  0  0  0  0  0  0
  -21.6120   21.1270   12.6500 C   0  0  0  0  0  3  0  0  0  0  0  0
  -21.7850   22.2230   11.8060 C   0  0  0  0  0  3  0  0  0  0  0  0
  -20.7940   22.5570   10.8810 C   0  0  0  0  0  3  0  0  0  0  0  0
  -19.0600   28.5130   12.1470 C   0  0  2  0  0  0  0  0  0  0  0  0
  -19.0410   29.8210   11.3230 C   0  0  0  0  0  2  0  0  0  0  0  0
  -17.7330   30.2720   12.0460 C   0  0  1  0  0  0  0  0  0  0  0  0
  -17.9750   29.1200   13.0710 C   0  0  0  0  0  2  0  0  0  0  0  0
  -20.3560   28.3650   12.8550 N   0  0  0  0  0  4  0  0  0  0  0  0
  -20.3220   27.6140   13.5550 H   0  0  0  0  0  0  0  0  0  0  0  0
  -21.1090   28.1190   12.1980 H   0  0  0  0  0  0  0  0  0  0  0  0
  -20.6390   29.2280   13.3380 H   0  0  0  0  0  0  0  0  0  0  0  0
  -16.4840   30.2360   11.1750 C   0  0  0  0  0  3  0  0  0  0  0  0
  -15.9210   31.4460   10.4800 C   0  0  0  0  0  2  0  0  0  0  0  0
  -15.1210   30.7490   11.5470 C   0  0  0  0  0  2  0  0  0  0  0  0
  -17.9070   31.5640   12.6740 O   0  0  0  0  0  0  0  0  0  0  0  0
  -17.0110   31.8490   12.9390 H   0  0  0  0  0  0  0  0  0  0  0  0
  1 26  1  0  0  0  0
  1  2  1  0  0  0  0
  3  2  2  0  0  0  0
  4  3  1  0  0  0  0
  5  6  1  0  0  0  0
  5  4  2  0  0  0  0
  6  1  2  0  0  0  0
  7 11  2  0  0  0  0
  7  4  1  0  0  0  0
  8  7  1  0  0  0  0
  9  8  2  0  0  0  0
  9 10  1  0  0  0  0
 10 11  1  0  0  0  0
 11 20  1  0  0  0  0
 12 10  1  0  0  0  0
 13 12  1  0  0  0  0
 14 19  1  0  0  0  0
 14 13  1  0  0  0  0
 15 14  2  0  0  0  0
 16 17  2  0  0  0  0
 16 15  1  0  0  0  0
 17 18  1  0  0  0  0
 18 19  2  0  0  0  0
 19  9  1  0  0  0  0
 20 25  2  0  0  0  0
 20 21  1  0  0  0  0
 21 22  2  0  0  0  0
 22 23  1  0  0  0  0
 24 23  2  0  0  0  0
 25 24  1  0  0  0  0
 26 30  1  1  0  0  0
 26 29  1  0  0  0  0
 27 28  1  0  0  0  0
 27 26  1  0  0  0  0
 28 37  1  1  0  0  0
 28 29  1  0  0  0  0
 30 33  1  0  0  0  0
 30 31  1  0  0  0  0
 32 30  1  0  0  0  0
 34 36  1  0  0  0  0
 34 28  1  0  0  0  0
 35 34  1  0  0  0  0
 35 36  1  0  0  0  0
 37 38  1  0  0  0  0
M  END
>  <minimizedAffinity>
-10.1176672

$$$$
