
 OpenBabel11232420553D

 38 44  0  0  1  0  0  0  0  0999 V2000
  -18.1560   25.1890   10.2550 C   0  0  0  0  0  0  0  0  0  0  0  0
  -17.5120   24.3900   11.2230 C   0  0  0  0  0  3  0  0  0  0  0  0
  -17.9740   23.1120   11.5630 C   0  0  0  0  0  3  0  0  0  0  0  0
  -19.0840   22.5660   10.9210 C   0  0  0  0  0  0  0  0  0  0  0  0
  -19.7380   23.3220    9.9490 C   0  0  0  0  0  3  0  0  0  0  0  0
  -19.2820   24.6060    9.6280 C   0  0  0  0  0  3  0  0  0  0  0  0
  -19.5630   21.2550   11.3040 C   0  0  0  0  0  0  0  0  0  0  0  0
  -20.3740   21.0680   12.4000 N   0  0  0  0  0  0  0  0  0  0  0  0
  -20.6130   19.7770   12.4350 C   0  0  0  0  0  0  0  0  0  0  0  0
  -19.9650   19.1280   11.4210 N   0  0  0  0  0  0  0  0  0  0  0  0
  -19.2870   20.0540   10.6630 C   0  0  0  0  0  0  0  0  0  0  0  0
  -20.1020   17.6990   11.2110 C   0  0  0  0  0  2  0  0  0  0  0  0
  -20.4880   16.9720   12.3990 O   0  0  0  0  0  0  0  0  0  0  0  0
  -21.3150   17.6160   13.2780 C   0  0  0  0  0  0  0  0  0  0  0  0
  -22.0470   16.8670   14.1820 C   0  0  0  0  0  3  0  0  0  0  0  0
  -22.8690   17.4070   15.1110 N   0  0  0  0  0  0  0  0  0  0  0  0
  -22.9480   18.7570   15.1510 C   0  0  0  0  0  3  0  0  0  0  0  0
  -22.2410   19.5930   14.3060 C   0  0  0  0  0  3  0  0  0  0  0  0
  -21.4120   19.0050   13.3560 C   0  0  0  0  0  0  0  0  0  0  0  0
  -18.4560   19.7310    9.5130 C   0  0  0  0  0  0  0  0  0  0  0  0
  -17.4110   20.5870    9.1430 C   0  0  0  0  0  3  0  0  0  0  0  0
  -16.6050   20.2810    8.0450 C   0  0  0  0  0  3  0  0  0  0  0  0
  -16.8410   19.1210    7.3100 C   0  0  0  0  0  3  0  0  0  0  0  0
  -17.8830   18.2660    7.6690 C   0  0  0  0  0  3  0  0  0  0  0  0
  -18.6890   18.5700    8.7670 C   0  0  0  0  0  3  0  0  0  0  0  0
  -17.6610   26.6500    9.8680 C   0  0  2  0  0  0  0  0  0  0  0  0
  -16.8560   27.5030   10.8760 C   0  0  0  0  0  2  0  0  0  0  0  0
  -18.0760   28.4610   11.0570 C   0  0  1  0  0  0  0  0  0  0  0  0
  -18.7180   27.7810    9.8070 C   0  0  0  0  0  2  0  0  0  0  0  0
  -16.9220   26.5280    8.5860 N   0  0  0  0  0  4  0  0  0  0  0  0
  -17.5130   26.1370    7.8440 H   0  0  0  0  0  0  0  0  0  0  0  0
  -16.1170   25.8940    8.6850 H   0  0  0  0  0  0  0  0  0  0  0  0
  -16.5620   27.4320    8.2540 H   0  0  0  0  0  0  0  0  0  0  0  0
  -18.7770   28.3450   12.4030 C   0  0  0  0  0  3  0  0  0  0  0  0
  -19.0830   29.5250   13.2850 C   0  0  0  0  0  2  0  0  0  0  0  0
  -20.2050   28.7090   12.7010 C   0  0  0  0  0  2  0  0  0  0  0  0
  -17.7070   29.8300   10.7650 O   0  0  0  0  0  0  0  0  0  0  0  0
  -18.4570   30.3750   11.0730 H   0  0  0  0  0  0  0  0  0  0  0  0
  1  2  1  0  0  0  0
  2  3  2  0  0  0  0
  4  7  1  0  0  0  0
  4  3  1  0  0  0  0
  5  4  2  0  0  0  0
  6  5  1  0  0  0  0
  6  1  2  0  0  0  0
  7  8  1  0  0  0  0
  8  9  2  0  0  0  0
  9 19  1  0  0  0  0
 10  9  1  0  0  0  0
 11  7  2  0  0  0  0
 11 10  1  0  0  0  0
 12 10  1  0  0  0  0
 12 13  1  0  0  0  0
 13 14  1  0  0  0  0
 14 19  2  0  0  0  0
 14 15  1  0  0  0  0
 15 16  2  0  0  0  0
 16 17  1  0  0  0  0
 18 17  2  0  0  0  0
 19 18  1  0  0  0  0
 20 11  1  0  0  0  0
 21 20  1  0  0  0  0
 22 21  2  0  0  0  0
 23 24  2  0  0  0  0
 23 22  1  0  0  0  0
 24 25  1  0  0  0  0
 25 20  2  0  0  0  0
 26 30  1  6  0  0  0
 26  1  1  0  0  0  0
 26 27  1  0  0  0  0
 27 28  1  0  0  0  0
 28 37  1  6  0  0  0
 28 34  1  0  0  0  0
 29 26  1  0  0  0  0
 29 28  1  0  0  0  0
 30 32  1  0  0  0  0
 31 30  1  0  0  0  0
 33 30  1  0  0  0  0
 34 36  1  0  0  0  0
 34 35  1  0  0  0  0
 36 35  1  0  0  0  0
 37 38  1  0  0  0  0
M  END
>  <minimizedAffinity>
-11.0414152

$$$$
