
 OpenBabel11232420553D

 38 44  0  0  1  0  0  0  0  0999 V2000
  -19.2460   24.7570   11.3460 C   0  0  0  0  0  0  0  0  0  0  0  0
  -20.4950   24.2040   10.9940 C   0  0  0  0  0  3  0  0  0  0  0  0
  -20.7410   22.8260   11.0470 C   0  0  0  0  0  3  0  0  0  0  0  0
  -19.7530   21.9460   11.4870 C   0  0  0  0  0  0  0  0  0  0  0  0
  -18.5110   22.4590   11.8560 C   0  0  0  0  0  3  0  0  0  0  0  0
  -18.2660   23.8350   11.7830 C   0  0  0  0  0  3  0  0  0  0  0  0
  -20.0180   20.5230   11.5080 C   0  0  0  0  0  0  0  0  0  0  0  0
  -20.6950   19.9240   12.5460 N   0  0  0  0  0  0  0  0  0  0  0  0
  -20.7570   18.6510   12.2260 C   0  0  0  0  0  0  0  0  0  0  0  0
  -20.1230   18.4090   11.0400 N   0  0  0  0  0  0  0  0  0  0  0  0
  -19.6440   19.5980   10.5410 C   0  0  0  0  0  0  0  0  0  0  0  0
  -20.0890   17.0870   10.4430 C   0  0  0  0  0  2  0  0  0  0  0  0
  -20.2670   16.0150   11.3950 O   0  0  0  0  0  0  0  0  0  0  0  0
  -21.0880   16.2620   12.4590 C   0  0  0  0  0  0  0  0  0  0  0  0
  -21.6300   15.1930   13.1500 C   0  0  0  0  0  3  0  0  0  0  0  0
  -22.4300   15.3280   14.2340 N   0  0  0  0  0  0  0  0  0  0  0  0
  -22.6820   16.5880   14.6580 C   0  0  0  0  0  3  0  0  0  0  0  0
  -22.1710   17.7190   14.0480 C   0  0  0  0  0  3  0  0  0  0  0  0
  -21.3610   17.5460   12.9310 C   0  0  0  0  0  0  0  0  0  0  0  0
  -18.8850   19.7310    9.3070 C   0  0  0  0  0  0  0  0  0  0  0  0
  -19.0990   20.8320    8.4690 C   0  0  0  0  0  3  0  0  0  0  0  0
  -18.3710   20.9700    7.2870 C   0  0  0  0  0  3  0  0  0  0  0  0
  -17.4280   20.0070    6.9330 C   0  0  0  0  0  3  0  0  0  0  0  0
  -17.2130   18.9040    7.7600 C   0  0  0  0  0  3  0  0  0  0  0  0
  -17.9390   18.7650    8.9430 C   0  0  0  0  0  3  0  0  0  0  0  0
  -18.9380   26.3170   11.2760 C   0  0  2  0  0  0  0  0  0  0  0  0
  -18.3640   26.9500    9.9870 C   0  0  0  0  0  2  0  0  0  0  0  0
  -16.9910   27.1760   10.6950 C   0  0  1  0  0  0  0  0  0  0  0  0
  -17.7020   26.8470   12.0450 C   0  0  0  0  0  2  0  0  0  0  0  0
  -20.1780   27.0190   11.6910 N   0  0  0  0  0  4  0  0  0  0  0  0
  -20.4670   26.7490   12.6380 H   0  0  0  0  0  0  0  0  0  0  0  0
  -20.9610   26.7820   11.0660 H   0  0  0  0  0  0  0  0  0  0  0  0
  -20.0720   28.0420   11.6770 H   0  0  0  0  0  0  0  0  0  0  0  0
  -15.8710   26.2670   10.2080 C   0  0  0  0  0  3  0  0  0  0  0  0
  -16.0770   25.1490    9.2230 C   0  0  0  0  0  2  0  0  0  0  0  0
  -15.2010   26.3180    8.8640 C   0  0  0  0  0  2  0  0  0  0  0  0
  -16.6060   28.5700   10.6440 O   0  0  0  0  0  0  0  0  0  0  0  0
  -15.6740   28.5950   10.9370 H   0  0  0  0  0  0  0  0  0  0  0  0
  1  6  1  0  0  0  0
  2  3  1  0  0  0  0
  2  1  2  0  0  0  0
  3  4  2  0  0  0  0
  4  7  1  0  0  0  0
  4  5  1  0  0  0  0
  6  5  2  0  0  0  0
  7  8  1  0  0  0  0
  9  8  2  0  0  0  0
  9 19  1  0  0  0  0
 10  9  1  0  0  0  0
 11 10  1  0  0  0  0
 11  7  2  0  0  0  0
 12 10  1  0  0  0  0
 12 13  1  0  0  0  0
 13 14  1  0  0  0  0
 14 19  2  0  0  0  0
 14 15  1  0  0  0  0
 15 16  2  0  0  0  0
 16 17  1  0  0  0  0
 18 17  2  0  0  0  0
 19 18  1  0  0  0  0
 20 11  1  0  0  0  0
 21 20  2  0  0  0  0
 22 21  1  0  0  0  0
 23 22  2  0  0  0  0
 23 24  1  0  0  0  0
 24 25  2  0  0  0  0
 25 20  1  0  0  0  0
 26  1  1  0  0  0  0
 26 30  1  1  0  0  0
 26 29  1  0  0  0  0
 27 28  1  0  0  0  0
 27 26  1  0  0  0  0
 28 37  1  6  0  0  0
 28 29  1  0  0  0  0
 30 31  1  0  0  0  0
 32 30  1  0  0  0  0
 33 30  1  0  0  0  0
 34 28  1  0  0  0  0
 35 34  1  0  0  0  0
 36 35  1  0  0  0  0
 36 34  1  0  0  0  0
 37 38  1  0  0  0  0
M  END
>  <minimizedAffinity>
-11.9063635

$$$$
