
 OpenBabel11232420233D

 40 46  0  0  1  0  0  0  0  0999 V2000
    4.3190    5.7330   -7.8660 C   0  0  0  0  0  0  0  0  0  0  0  0
    5.7140    5.7760   -8.0070 C   0  0  0  0  0  3  0  0  0  0  0  0
    6.4830    6.6710   -7.2570 C   0  0  0  0  0  3  0  0  0  0  0  0
    5.8690    7.5440   -6.3680 C   0  0  0  0  0  3  0  0  0  0  0  0
    4.4830    7.5320   -6.2400 C   0  0  0  0  0  0  0  0  0  0  0  0
    3.6960    6.6210   -6.9710 C   0  0  0  0  0  0  0  0  0  0  0  0
    2.2660    6.6510   -6.6970 C   0  0  0  0  0  0  0  0  0  0  0  0
    1.3090    5.8060   -7.0100 N   0  0  0  0  0  0  0  0  0  0  0  0
    0.1450    6.3000   -6.4470 C   0  0  0  0  0  0  0  0  0  0  0  0
    0.4000    7.4990   -5.7880 C   0  0  0  0  0  0  0  0  0  0  0  0
    1.7530    7.6820   -5.9610 N   0  0  0  0  0  0  0  0  0  0  0  0
    2.5840    8.7900   -5.5350 C   0  0  0  0  0  2  0  0  0  0  0  0
    3.9520    8.4030   -5.3170 O   0  0  0  0  0  0  0  0  0  0  0  0
   -0.4250    8.4270   -5.0300 C   0  0  0  0  0  0  0  0  0  0  0  0
   -0.3600    8.4460   -3.6310 C   0  0  0  0  0  3  0  0  0  0  0  0
   -1.1610    9.3280   -2.9050 C   0  0  0  0  0  3  0  0  0  0  0  0
   -2.0280   10.1950   -3.5700 C   0  0  0  0  0  3  0  0  0  0  0  0
   -2.0980   10.1780   -4.9630 C   0  0  0  0  0  3  0  0  0  0  0  0
   -1.2990    9.2950   -5.6930 C   0  0  0  0  0  3  0  0  0  0  0  0
   -1.1080    5.5590   -6.5820 C   0  0  0  0  0  0  0  0  0  0  0  0
   -2.0470    5.7850   -7.5870 C   0  0  0  0  0  3  0  0  0  0  0  0
   -3.2460    5.0560   -7.6350 C   0  0  0  0  0  3  0  0  0  0  0  0
   -3.5610    4.0540   -6.6930 C   0  0  0  0  0  0  0  0  0  0  0  0
   -2.5870    3.8190   -5.7040 C   0  0  0  0  0  3  0  0  0  0  0  0
   -1.3970    4.5560   -5.6480 C   0  0  0  0  0  3  0  0  0  0  0  0
   -4.9130    3.2250   -6.7760 C   0  0  1  0  0  0  0  0  0  0  0  0
   -5.5280    2.9140   -8.1620 C   0  0  0  0  0  2  0  0  0  0  0  0
   -5.7030    1.4090   -7.7730 C   0  0  1  0  0  0  0  0  0  0  0  0
   -4.8470    1.7040   -6.4980 C   0  0  0  0  0  2  0  0  0  0  0  0
   -5.8760    3.9190   -5.8870 N   0  0  0  0  0  4  0  0  0  0  0  0
   -5.5170    3.9790   -4.9250 H   0  0  0  0  0  0  0  0  0  0  0  0
   -6.0240    4.8900   -6.1940 H   0  0  0  0  0  0  0  0  0  0  0  0
   -6.7940    3.4640   -5.8450 H   0  0  0  0  0  0  0  0  0  0  0  0
   -7.1350    0.8990   -7.5580 C   0  0  0  0  0  3  0  0  0  0  0  0
   -7.5480   -0.3200   -6.7730 C   0  0  0  0  0  2  0  0  0  0  0  0
   -7.9740    1.0440   -6.3150 C   0  0  0  0  0  2  0  0  0  0  0  0
   -5.0160    0.5260   -8.6960 O   0  0  0  0  0  0  0  0  0  0  0  0
   -4.1180    0.8710   -8.8420 H   0  0  0  0  0  0  0  0  0  0  0  0
    3.7980    3.4940   -8.5130 C   0  0  0  0  0  1  0  0  0  0  0  0
    3.5110    4.8840   -8.5760 O   0  0  0  0  0  0  0  0  0  0  0  0
  1  6  1  0  0  0  0
  2  1  2  0  0  0  0
  2  3  1  0  0  0  0
  3  4  2  0  0  0  0
  4  5  1  0  0  0  0
  5 13  1  0  0  0  0
  6  7  1  0  0  0  0
  6  5  2  0  0  0  0
  7 11  1  0  0  0  0
  8  7  2  0  0  0  0
  8  9  1  0  0  0  0
  9 10  2  0  0  0  0
 10 14  1  0  0  0  0
 11 10  1  0  0  0  0
 11 12  1  0  0  0  0
 12 13  1  0  0  0  0
 14 15  1  0  0  0  0
 15 16  2  0  0  0  0
 17 16  1  0  0  0  0
 18 17  2  0  0  0  0
 19 14  2  0  0  0  0
 19 18  1  0  0  0  0
 20  9  1  0  0  0  0
 20 25  1  0  0  0  0
 21 20  2  0  0  0  0
 22 21  1  0  0  0  0
 22 23  2  0  0  0  0
 23 24  1  0  0  0  0
 24 25  2  0  0  0  0
 26 23  1  0  0  0  0
 26 29  1  0  0  0  0
 26 30  1  1  0  0  0
 27 28  1  0  0  0  0
 27 26  1  0  0  0  0
 28 37  1  6  0  0  0
 28 34  1  0  0  0  0
 28 29  1  0  0  0  0
 30 33  1  0  0  0  0
 30 31  1  0  0  0  0
 32 30  1  0  0  0  0
 34 35  1  0  0  0  0
 34 36  1  0  0  0  0
 35 36  1  0  0  0  0
 38 37  1  0  0  0  0
 40 39  1  0  0  0  0
 40  1  1  0  0  0  0
M  END
>  <minimizedAffinity>
-12.5330524

$$$$

 OpenBabel11232420233D

 40 46  0  0  1  0  0  0  0  0999 V2000
   -6.2000    3.5560   -4.8510 C   0  0  0  0  0  0  0  0  0  0  0  0
   -7.3880    2.8590   -4.5840 C   0  0  0  0  0  3  0  0  0  0  0  0
   -7.6930    1.6750   -5.2620 C   0  0  0  0  0  3  0  0  0  0  0  0
   -6.8230    1.1790   -6.2250 C   0  0  0  0  0  3  0  0  0  0  0  0
   -5.6550    1.8770   -6.5200 C   0  0  0  0  0  0  0  0  0  0  0  0
   -5.3230    3.0580   -5.8300 C   0  0  0  0  0  0  0  0  0  0  0  0
   -4.0410    3.6580   -6.1730 C   0  0  0  0  0  0  0  0  0  0  0  0
   -3.3360    4.5930   -5.5740 N   0  0  0  0  0  0  0  0  0  0  0  0
   -2.1670    4.7340   -6.3000 C   0  0  0  0  0  0  0  0  0  0  0  0
   -2.1710    3.8720   -7.3910 C   0  0  0  0  0  0  0  0  0  0  0  0
   -3.3680    3.2020   -7.2710 N   0  0  0  0  0  0  0  0  0  0  0  0
   -3.9490    2.2090   -8.1520 C   0  0  0  0  0  2  0  0  0  0  0  0
   -4.8300    1.3070   -7.4620 O   0  0  0  0  0  0  0  0  0  0  0  0
   -1.2220    3.5940   -8.4590 C   0  0  0  0  0  0  0  0  0  0  0  0
   -0.0290    2.9160   -8.1820 C   0  0  0  0  0  3  0  0  0  0  0  0
    0.8850    2.6600   -9.2050 C   0  0  0  0  0  3  0  0  0  0  0  0
    0.6130    3.0800  -10.5070 C   0  0  0  0  0  3  0  0  0  0  0  0
   -0.5740    3.7580  -10.7880 C   0  0  0  0  0  3  0  0  0  0  0  0
   -1.4900    4.0160   -9.7660 C   0  0  0  0  0  3  0  0  0  0  0  0
   -1.1410    5.6800   -5.8630 C   0  0  0  0  0  0  0  0  0  0  0  0
   -1.3110    6.5950   -4.8250 C   0  0  0  0  0  3  0  0  0  0  0  0
   -0.2920    7.4970   -4.4820 C   0  0  0  0  0  3  0  0  0  0  0  0
    0.9530    7.5210   -5.1450 C   0  0  0  0  0  0  0  0  0  0  0  0
    1.1170    6.5710   -6.1690 C   0  0  0  0  0  3  0  0  0  0  0  0
    0.0950    5.6780   -6.5220 C   0  0  0  0  0  3  0  0  0  0  0  0
    2.1020    8.5370   -4.7290 C   0  0  1  0  0  0  0  0  0  0  0  0
    3.5590    8.2540   -5.1700 C   0  0  0  0  0  2  0  0  0  0  0  0
    3.7120    9.7230   -5.6860 C   0  0  1  0  0  0  0  0  0  0  0  0
    2.1720    9.8920   -5.4710 C   0  0  0  0  0  2  0  0  0  0  0  0
    1.9920    8.7030   -3.2600 N   0  0  0  0  0  4  0  0  0  0  0  0
    1.0590    9.0440   -2.9940 H   0  0  0  0  0  0  0  0  0  0  0  0
    2.1110    7.8010   -2.7780 H   0  0  0  0  0  0  0  0  0  0  0  0
    2.6810    9.3550   -2.8700 H   0  0  0  0  0  0  0  0  0  0  0  0
    4.6400   10.6550   -4.8950 C   0  0  0  0  0  3  0  0  0  0  0  0
    5.6880   10.2440   -3.8920 C   0  0  0  0  0  2  0  0  0  0  0  0
    6.0990   10.9260   -5.1650 C   0  0  0  0  0  2  0  0  0  0  0  0
    4.0730    9.7710   -7.0900 O   0  0  0  0  0  0  0  0  0  0  0  0
    3.4930    9.1600   -7.5780 H   0  0  0  0  0  0  0  0  0  0  0  0
   -6.6600    5.1610   -3.1430 C   0  0  0  0  0  1  0  0  0  0  0  0
   -5.8500    4.7240   -4.2250 O   0  0  0  0  0  0  0  0  0  0  0  0
  1  2  1  0  0  0  0
  1 40  1  0  0  0  0
  3  2  2  0  0  0  0
  4  3  1  0  0  0  0
  5  4  2  0  0  0  0
  5  6  1  0  0  0  0
  6  1  2  0  0  0  0
  7  6  1  0  0  0  0
  7  8  2  0  0  0  0
  9 20  1  0  0  0  0
  9  8  1  0  0  0  0
 10 11  1  0  0  0  0
 10  9  2  0  0  0  0
 11  7  1  0  0  0  0
 12 13  1  0  0  0  0
 12 11  1  0  0  0  0
 13  5  1  0  0  0  0
 14 15  1  0  0  0  0
 14 10  1  0  0  0  0
 16 15  2  0  0  0  0
 17 16  1  0  0  0  0
 18 17  2  0  0  0  0
 18 19  1  0  0  0  0
 19 14  2  0  0  0  0
 20 21  1  0  0  0  0
 21 22  2  0  0  0  0
 23 26  1  0  0  0  0
 23 22  1  0  0  0  0
 24 23  2  0  0  0  0
 25 24  1  0  0  0  0
 25 20  2  0  0  0  0
 26 30  1  1  0  0  0
 27 26  1  0  0  0  0
 28 37  1  6  0  0  0
 28 29  1  0  0  0  0
 28 27  1  0  0  0  0
 28 34  1  0  0  0  0
 29 26  1  0  0  0  0
 30 31  1  0  0  0  0
 30 33  1  0  0  0  0
 30 32  1  0  0  0  0
 34 35  1  0  0  0  0
 36 34  1  0  0  0  0
 36 35  1  0  0  0  0
 38 37  1  0  0  0  0
 40 39  1  0  0  0  0
M  END
>  <minimizedAffinity>
-9.97740078

$$$$
