
 OpenBabel10152418203D

 35 38  0  0  1  0  0  0  0  0999 V2000
    1.0980   -3.3810  -28.2440 C   0  0  0  0  0  1  0  0  0  0  0  0
    0.8440   -4.8650  -28.5330 C   0  0  2  0  0  3  0  0  0  0  0  0
    0.3120   -5.5390  -27.2710 C   0  0  0  0  0  0  0  0  0  0  0  0
   -0.2210   -4.7260  -26.2560 C   0  0  0  0  0  3  0  0  0  0  0  0
   -0.8300   -5.2900  -25.1390 C   0  0  0  0  0  3  0  0  0  0  0  0
   -0.9530   -6.6740  -25.0390 C   0  0  0  0  0  3  0  0  0  0  0  0
   -0.4150   -7.5190  -26.0130 C   0  0  0  0  0  0  0  0  0  0  0  0
    0.2880   -6.9340  -27.0780 C   0  0  0  0  0  3  0  0  0  0  0  0
   -0.6280   -8.9070  -26.0240 N   0  0  0  0  0  0  0  0  0  0  0  0
   -0.8260   -9.8460  -25.0110 C   0  0  0  0  0  0  0  0  0  0  0  0
   -1.3710   -9.5260  -23.7740 C   0  0  0  0  0  3  0  0  0  0  0  0
   -1.4280  -10.5050  -22.7810 C   0  0  0  0  0  0  0  0  0  0  0  0
   -0.9700  -11.7880  -23.0540 C   0  0  0  0  0  3  0  0  0  0  0  0
   -0.5010  -12.0390  -24.3280 C   0  0  0  0  0  3  0  0  0  0  0  0
   -0.4310  -11.1030  -25.3000 N   0  0  0  0  0  0  0  0  0  0  0  0
   -0.3970   -9.3760  -26.8920 H   0  0  0  0  0  0  0  0  0  0  0  0
   -1.9180  -10.1780  -21.4770 C   0  0  0  0  0  0  0  0  0  0  0  0
   -2.3390   -9.9430  -20.4200 N   0  0  0  0  0  0  0  0  0  0  0  0
    2.0390   -5.4360  -29.1680 N   0  0  0  0  0  0  0  0  0  0  0  0
    2.5660   -4.7740  -29.7330 H   0  0  0  0  0  0  0  0  0  0  0  0
    2.9290   -6.3450  -28.6480 C   0  0  0  0  0  0  0  0  0  0  0  0
    3.1700   -6.1020  -27.3500 N   0  0  0  0  0  0  0  0  0  0  0  0
    3.7830   -7.0650  -26.6690 C   0  0  0  0  0  3  0  0  0  0  0  0
    4.1430   -8.2560  -27.1540 N   0  0  0  0  0  0  0  0  0  0  0  0
    3.9670   -8.4820  -28.4780 C   0  0  0  0  0  0  0  0  0  0  0  0
    4.2780   -9.7190  -29.0770 C   0  0  0  0  0  0  0  0  0  0  0  0
    4.1680   -9.9080  -30.4680 C   0  0  0  0  0  3  0  0  0  0  0  0
    3.7380   -8.8770  -31.2880 C   0  0  0  0  0  3  0  0  0  0  0  0
    3.3630   -7.6730  -30.7080 C   0  0  0  0  0  3  0  0  0  0  0  0
    3.4280   -7.4810  -29.3060 C   0  0  0  0  0  0  0  0  0  0  0  0
    4.6810  -10.9280  -28.2900 C   0  0  0  0  0  0  0  0  0  0  0  0
    4.9480  -10.7810  -26.9620 N   0  0  0  0  0  0  0  0  0  0  0  0
    4.7470  -12.0380  -28.8090 O   0  0  0  0  0  0  0  0  0  0  0  0
    5.1910  -11.5930  -26.4150 H   0  0  0  0  0  0  0  0  0  0  0  0
    4.8810   -9.8710  -26.5160 H   0  0  0  0  0  0  0  0  0  0  0  0
  2  1  1  1  0  0  0
  2  3  1  0  0  0  0
  3  8  2  0  0  0  0
  3  4  1  0  0  0  0
  4  5  2  0  0  0  0
  5  6  1  0  0  0  0
  7  6  2  0  0  0  0
  8  7  1  0  0  0  0
  9  7  1  0  0  0  0
  9 10  1  0  0  0  0
 10 11  1  0  0  0  0
 11 12  2  0  0  0  0
 12 17  1  0  0  0  0
 13 12  1  0  0  0  0
 14 13  2  0  0  0  0
 15 10  2  0  0  0  0
 15 14  1  0  0  0  0
 16  9  1  0  0  0  0
 17 18  3  0  0  0  0
 19 21  1  0  0  0  0
 19  2  1  0  0  0  0
 20 19  1  0  0  0  0
 21 22  1  0  0  0  0
 22 23  2  0  0  0  0
 24 23  1  0  0  0  0
 25 24  2  0  0  0  0
 26 25  1  0  0  0  0
 26 31  1  0  0  0  0
 27 26  2  0  0  0  0
 28 29  2  0  0  0  0
 28 27  1  0  0  0  0
 29 30  1  0  0  0  0
 30 21  2  0  0  0  0
 30 25  1  0  0  0  0
 31 32  1  0  0  0  0
 32 35  1  0  0  0  0
 32 34  1  0  0  0  0
 33 31  2  0  0  0  0
M  END
>  <minimizedAffinity>
-6.4114542

$$$$
