
 OpenBabel10152418203D

 35 38  0  0  1  0  0  0  0  0999 V2000
    0.0140   -6.4670  -24.2850 C   0  0  0  0  0  1  0  0  0  0  0  0
    0.2150   -6.9460  -25.7280 C   0  0  2  0  0  3  0  0  0  0  0  0
   -0.4590   -8.3040  -25.9040 C   0  0  0  0  0  0  0  0  0  0  0  0
   -0.6290   -8.7980  -27.2090 C   0  0  0  0  0  3  0  0  0  0  0  0
   -1.1250  -10.0800  -27.4260 C   0  0  0  0  0  3  0  0  0  0  0  0
   -1.4190  -10.9040  -26.3420 C   0  0  0  0  0  3  0  0  0  0  0  0
   -1.2880  -10.4440  -25.0290 C   0  0  0  0  0  0  0  0  0  0  0  0
   -0.8870   -9.1130  -24.8340 C   0  0  0  0  0  3  0  0  0  0  0  0
   -1.4430  -11.2750  -23.9070 N   0  0  0  0  0  0  0  0  0  0  0  0
   -1.4820  -11.0220  -22.5360 C   0  0  0  0  0  0  0  0  0  0  0  0
   -1.8920   -9.8090  -21.9980 C   0  0  0  0  0  3  0  0  0  0  0  0
   -1.7920   -9.6050  -20.6210 C   0  0  0  0  0  0  0  0  0  0  0  0
   -1.3160  -10.6270  -19.8080 C   0  0  0  0  0  3  0  0  0  0  0  0
   -0.9880  -11.8220  -20.4150 C   0  0  0  0  0  3  0  0  0  0  0  0
   -1.0710  -12.0370  -21.7470 N   0  0  0  0  0  0  0  0  0  0  0  0
   -1.2950  -12.2630  -24.0750 H   0  0  0  0  0  0  0  0  0  0  0  0
   -2.1390   -8.3380  -20.0550 C   0  0  0  0  0  0  0  0  0  0  0  0
   -2.4470   -7.3040  -19.6250 N   0  0  0  0  0  0  0  0  0  0  0  0
    1.6380   -6.8320  -26.0740 N   0  0  0  0  0  0  0  0  0  0  0  0
    2.1610   -6.1990  -25.4730 H   0  0  0  0  0  0  0  0  0  0  0  0
    2.4950   -7.8210  -26.4890 C   0  0  0  0  0  0  0  0  0  0  0  0
    2.6540   -8.7580  -25.5420 N   0  0  0  0  0  0  0  0  0  0  0  0
    3.2260   -9.8970  -25.9210 C   0  0  0  0  0  3  0  0  0  0  0  0
    3.6190  -10.1980  -27.1620 N   0  0  0  0  0  0  0  0  0  0  0  0
    3.5270   -9.2330  -28.1080 C   0  0  0  0  0  0  0  0  0  0  0  0
    3.8780   -9.4630  -29.4530 C   0  0  0  0  0  0  0  0  0  0  0  0
    3.8560   -8.4250  -30.4040 C   0  0  0  0  0  3  0  0  0  0  0  0
    3.4760   -7.1430  -30.0410 C   0  0  0  0  0  3  0  0  0  0  0  0
    3.0620   -6.9130  -28.7370 C   0  0  0  0  0  3  0  0  0  0  0  0
    3.0380   -7.9550  -27.7780 C   0  0  0  0  0  0  0  0  0  0  0  0
    4.2350  -10.8180  -29.9820 C   0  0  0  0  0  0  0  0  0  0  0  0
    4.9600  -11.6560  -29.1900 N   0  0  0  0  0  0  0  0  0  0  0  0
    3.8650  -11.1910  -31.0910 O   0  0  0  0  0  0  0  0  0  0  0  0
    5.1810  -12.5830  -29.5230 H   0  0  0  0  0  0  0  0  0  0  0  0
    5.2580  -11.3660  -28.2630 H   0  0  0  0  0  0  0  0  0  0  0  0
  2  1  1  1  0  0  0
  3  2  1  0  0  0  0
  3  8  1  0  0  0  0
  4  3  2  0  0  0  0
  5  4  1  0  0  0  0
  5  6  2  0  0  0  0
  6  7  1  0  0  0  0
  7  8  2  0  0  0  0
  7  9  1  0  0  0  0
  9 10  1  0  0  0  0
 10 11  2  0  0  0  0
 10 15  1  0  0  0  0
 11 12  1  0  0  0  0
 12 17  1  0  0  0  0
 12 13  2  0  0  0  0
 14 13  1  0  0  0  0
 15 14  2  0  0  0  0
 16  9  1  0  0  0  0
 17 18  3  0  0  0  0
 19  2  1  0  0  0  0
 19 20  1  0  0  0  0
 21 19  1  0  0  0  0
 21 22  1  0  0  0  0
 23 22  2  0  0  0  0
 24 23  1  0  0  0  0
 25 30  1  0  0  0  0
 25 24  2  0  0  0  0
 26 25  1  0  0  0  0
 27 28  1  0  0  0  0
 27 26  2  0  0  0  0
 28 29  2  0  0  0  0
 29 30  1  0  0  0  0
 30 21  2  0  0  0  0
 31 26  1  0  0  0  0
 31 32  1  0  0  0  0
 32 35  1  0  0  0  0
 33 31  2  0  0  0  0
 34 32  1  0  0  0  0
M  END
>  <minimizedAffinity>
-5.21677065

$$$$
