
 OpenBabel10152418203D

 35 38  0  0  1  0  0  0  0  0999 V2000
   -0.8090  -10.7360  -24.0770 C   0  0  0  0  0  1  0  0  0  0  0  0
    0.1400   -9.6660  -24.6310 C   0  0  2  0  0  3  0  0  0  0  0  0
    1.4950  -10.3030  -24.9280 C   0  0  0  0  0  0  0  0  0  0  0  0
    1.9440  -11.3370  -24.0890 C   0  0  0  0  0  3  0  0  0  0  0  0
    3.1120  -12.0350  -24.3810 C   0  0  0  0  0  3  0  0  0  0  0  0
    3.8270  -11.7380  -25.5390 C   0  0  0  0  0  3  0  0  0  0  0  0
    3.4310  -10.7010  -26.3870 C   0  0  0  0  0  0  0  0  0  0  0  0
    2.3100   -9.9410  -26.0180 C   0  0  0  0  0  3  0  0  0  0  0  0
    4.0390  -10.4520  -27.6280 N   0  0  0  0  0  0  0  0  0  0  0  0
    3.8930   -9.4330  -28.5700 C   0  0  0  0  0  0  0  0  0  0  0  0
    3.4720   -8.1500  -28.2430 C   0  0  0  0  0  3  0  0  0  0  0  0
    3.2450   -7.2260  -29.2640 C   0  0  0  0  0  0  0  0  0  0  0  0
    3.4740   -7.5930  -30.5850 C   0  0  0  0  0  3  0  0  0  0  0  0
    3.9500   -8.8670  -30.8190 C   0  0  0  0  0  3  0  0  0  0  0  0
    4.1690   -9.7780  -29.8450 N   0  0  0  0  0  0  0  0  0  0  0  0
    4.5250  -11.2390  -28.0400 H   0  0  0  0  0  0  0  0  0  0  0  0
    2.7420   -5.9230  -28.9560 C   0  0  0  0  0  0  0  0  0  0  0  0
    2.3290   -4.8760  -28.6680 N   0  0  0  0  0  0  0  0  0  0  0  0
    0.1080   -8.4960  -23.7430 N   0  0  0  0  0  0  0  0  0  0  0  0
    0.9400   -8.3880  -23.1690 H   0  0  0  0  0  0  0  0  0  0  0  0
   -0.3880   -7.2420  -24.0060 C   0  0  0  0  0  0  0  0  0  0  0  0
   -0.5880   -6.5500  -22.8730 N   0  0  0  0  0  0  0  0  0  0  0  0
   -0.7920   -5.2430  -23.0020 C   0  0  0  0  0  3  0  0  0  0  0  0
   -0.7800   -4.5610  -24.1510 N   0  0  0  0  0  0  0  0  0  0  0  0
   -0.6500   -5.2610  -25.3030 C   0  0  0  0  0  0  0  0  0  0  0  0
   -0.5860   -4.6320  -26.5620 C   0  0  0  0  0  0  0  0  0  0  0  0
   -0.5360   -5.3800  -27.7550 C   0  0  0  0  0  3  0  0  0  0  0  0
   -0.5370   -6.7650  -27.7180 C   0  0  0  0  0  3  0  0  0  0  0  0
   -0.5320   -7.4020  -26.4860 C   0  0  0  0  0  3  0  0  0  0  0  0
   -0.5390   -6.6640  -25.2760 C   0  0  0  0  0  0  0  0  0  0  0  0
   -0.5040   -3.1460  -26.7270 C   0  0  0  0  0  0  0  0  0  0  0  0
    0.4780   -2.6320  -27.5190 N   0  0  0  0  0  0  0  0  0  0  0  0
   -1.3130   -2.3950  -26.1910 O   0  0  0  0  0  0  0  0  0  0  0  0
    0.5270   -1.6340  -27.6630 H   0  0  0  0  0  0  0  0  0  0  0  0
    1.1440   -3.2440  -27.9830 H   0  0  0  0  0  0  0  0  0  0  0  0
  2  1  1  1  0  0  0
  2 19  1  0  0  0  0
  3  2  1  0  0  0  0
  3  4  1  0  0  0  0
  5  4  2  0  0  0  0
  6  5  1  0  0  0  0
  7  8  1  0  0  0  0
  7  6  2  0  0  0  0
  8  3  2  0  0  0  0
  9  7  1  0  0  0  0
 10 11  1  0  0  0  0
 10  9  1  0  0  0  0
 12 17  1  0  0  0  0
 12 11  2  0  0  0  0
 13 12  1  0  0  0  0
 14 13  2  0  0  0  0
 14 15  1  0  0  0  0
 15 10  2  0  0  0  0
 16  9  1  0  0  0  0
 17 18  3  0  0  0  0
 19 20  1  0  0  0  0
 21 19  1  0  0  0  0
 21 22  1  0  0  0  0
 23 22  2  0  0  0  0
 24 23  1  0  0  0  0
 25 30  1  0  0  0  0
 25 24  2  0  0  0  0
 26 25  1  0  0  0  0
 27 28  1  0  0  0  0
 27 26  2  0  0  0  0
 28 29  2  0  0  0  0
 29 30  1  0  0  0  0
 30 21  2  0  0  0  0
 31 26  1  0  0  0  0
 31 33  2  0  0  0  0
 32 31  1  0  0  0  0
 34 32  1  0  0  0  0
 35 32  1  0  0  0  0
M  END
>  <minimizedAffinity>
-6.19777536

$$$$
