
 OpenBabel10152418203D

 35 38  0  0  1  0  0  0  0  0999 V2000
   -1.2650   -9.5460  -21.3900 C   0  0  0  0  0  1  0  0  0  0  0  0
   -1.3400   -8.9480  -22.7990 C   0  0  2  0  0  3  0  0  0  0  0  0
   -0.9690  -10.0200  -23.8210 C   0  0  0  0  0  0  0  0  0  0  0  0
   -1.9570  -10.4480  -24.7240 C   0  0  0  0  0  3  0  0  0  0  0  0
   -1.6460  -11.3320  -25.7530 C   0  0  0  0  0  3  0  0  0  0  0  0
   -0.3330  -11.7680  -25.9210 C   0  0  0  0  0  3  0  0  0  0  0  0
    0.6740  -11.3870  -25.0300 C   0  0  0  0  0  0  0  0  0  0  0  0
    0.3170  -10.5800  -23.9380 C   0  0  0  0  0  3  0  0  0  0  0  0
    2.0300  -11.6920  -25.2320 N   0  0  0  0  0  0  0  0  0  0  0  0
    3.0260  -11.1130  -26.0190 C   0  0  0  0  0  0  0  0  0  0  0  0
    3.0190   -9.7750  -26.3910 C   0  0  0  0  0  3  0  0  0  0  0  0
    3.9950   -9.3070  -27.2730 C   0  0  0  0  0  0  0  0  0  0  0  0
    4.9740  -10.1770  -27.7370 C   0  0  0  0  0  3  0  0  0  0  0  0
    4.9460  -11.4750  -27.2690 C   0  0  0  0  0  3  0  0  0  0  0  0
    4.0060  -11.9490  -26.4220 N   0  0  0  0  0  0  0  0  0  0  0  0
    2.3180  -12.6140  -24.9290 H   0  0  0  0  0  0  0  0  0  0  0  0
    3.9630   -7.9510  -27.7270 C   0  0  0  0  0  0  0  0  0  0  0  0
    3.8980   -6.8510  -28.0940 N   0  0  0  0  0  0  0  0  0  0  0  0
   -0.5890   -7.6850  -22.8210 N   0  0  0  0  0  0  0  0  0  0  0  0
    0.4110   -7.7950  -22.6690 H   0  0  0  0  0  0  0  0  0  0  0  0
   -0.7730   -6.5990  -23.6420 C   0  0  0  0  0  0  0  0  0  0  0  0
   -1.1050   -5.5060  -22.9360 N   0  0  0  0  0  0  0  0  0  0  0  0
   -1.0330   -4.3420  -23.5740 C   0  0  0  0  0  3  0  0  0  0  0  0
   -0.6270   -4.1670  -24.8350 N   0  0  0  0  0  0  0  0  0  0  0  0
   -0.3580   -5.2690  -25.5750 C   0  0  0  0  0  0  0  0  0  0  0  0
    0.1130   -5.1890  -26.9000 C   0  0  0  0  0  0  0  0  0  0  0  0
    0.3070   -6.3450  -27.6810 C   0  0  0  0  0  3  0  0  0  0  0  0
    0.0460   -7.6010  -27.1570 C   0  0  0  0  0  3  0  0  0  0  0  0
   -0.3550   -7.7040  -25.8330 C   0  0  0  0  0  3  0  0  0  0  0  0
   -0.5130   -6.5540  -25.0210 C   0  0  0  0  0  0  0  0  0  0  0  0
    0.5000   -3.8970  -27.5500 C   0  0  0  0  0  0  0  0  0  0  0  0
   -0.2410   -2.7850  -27.2830 N   0  0  0  0  0  0  0  0  0  0  0  0
    1.4780   -3.8180  -28.2880 O   0  0  0  0  0  0  0  0  0  0  0  0
    0.0270   -1.9030  -27.6910 H   0  0  0  0  0  0  0  0  0  0  0  0
   -1.0420   -2.8330  -26.6600 H   0  0  0  0  0  0  0  0  0  0  0  0
  2  1  1  1  0  0  0
  3  2  1  0  0  0  0
  4  3  2  0  0  0  0
  5  4  1  0  0  0  0
  6  5  2  0  0  0  0
  6  7  1  0  0  0  0
  7  8  2  0  0  0  0
  8  3  1  0  0  0  0
  9  7  1  0  0  0  0
  9 16  1  0  0  0  0
 10  9  1  0  0  0  0
 11 10  1  0  0  0  0
 12 11  2  0  0  0  0
 13 12  1  0  0  0  0
 13 14  2  0  0  0  0
 14 15  1  0  0  0  0
 15 10  2  0  0  0  0
 17 12  1  0  0  0  0
 18 17  3  0  0  0  0
 19  2  1  0  0  0  0
 19 20  1  0  0  0  0
 21 22  1  0  0  0  0
 21 19  1  0  0  0  0
 23 22  2  0  0  0  0
 24 23  1  0  0  0  0
 25 30  1  0  0  0  0
 25 24  2  0  0  0  0
 26 25  1  0  0  0  0
 27 28  1  0  0  0  0
 27 26  2  0  0  0  0
 28 29  2  0  0  0  0
 29 30  1  0  0  0  0
 30 21  2  0  0  0  0
 31 32  1  0  0  0  0
 31 26  1  0  0  0  0
 32 35  1  0  0  0  0
 33 31  2  0  0  0  0
 34 32  1  0  0  0  0
M  END
>  <minimizedAffinity>
-8.05963039

$$$$
