
 OpenBabel10152419573D

 38 41  0  0  0  0  0  0  0  0999 V2000
    1.7230  -11.5740  -23.8950 C   0  0  0  0  0  2  0  0  0  0  0  0
   -1.3010  -10.5590  -21.7640 C   0  0  0  0  0  0  0  0  0  0  0  0
   -1.8480  -11.7970  -21.4320 C   0  0  0  0  0  3  0  0  0  0  0  0
   -1.2970  -12.9590  -21.9590 C   0  0  0  0  0  3  0  0  0  0  0  0
   -0.1720  -12.8840  -22.7810 C   0  0  0  0  0  3  0  0  0  0  0  0
    0.4710  -11.6610  -23.0320 C   0  0  0  0  0  0  0  0  0  0  0  0
   -0.1150  -10.4990  -22.5120 C   0  0  0  0  0  3  0  0  0  0  0  0
   -2.0340   -8.1510  -21.8820 C   0  0  0  0  0  0  0  0  0  0  0  0
   -2.4750   -7.2040  -21.2330 O   0  0  0  0  0  0  0  0  0  0  0  0
   -1.9930   -9.4150  -21.3320 N   0  0  0  0  0  0  0  0  0  0  0  0
   -2.5900   -9.5080  -20.5190 H   0  0  0  0  0  0  0  0  0  0  0  0
   -0.8200   -7.5460  -25.9460 C   0  0  0  0  0  0  0  0  0  0  0  0
   -0.5190   -6.6010  -24.9600 C   0  0  0  0  0  3  0  0  0  0  0  0
   -0.9330   -6.7890  -23.6380 C   0  0  0  0  0  3  0  0  0  0  0  0
   -1.6510   -7.9360  -23.2990 C   0  0  0  0  0  0  0  0  0  0  0  0
   -2.0170   -8.8490  -24.2970 C   0  0  0  0  0  3  0  0  0  0  0  0
   -1.5890   -8.6620  -25.6140 C   0  0  0  0  0  3  0  0  0  0  0  0
   -0.0370   -5.8930  -27.4590 C   0  0  0  0  0  1  0  0  0  0  0  0
   -0.3220   -7.2610  -27.1870 O   0  0  0  0  0  0  0  0  0  0  0  0
    1.4540  -10.9800  -25.1950 N   0  0  0  0  0  0  0  0  0  0  0  0
    0.5340  -11.0820  -25.5910 H   0  0  0  0  0  0  0  0  0  0  0  0
    2.3380  -10.0360  -25.6970 C   0  0  0  0  0  0  0  0  0  0  0  0
    2.3060   -8.8180  -25.1290 N   0  0  0  0  0  0  0  0  0  0  0  0
    2.8710   -7.8210  -25.8040 C   0  0  0  0  0  3  0  0  0  0  0  0
    3.3790   -7.9110  -27.0340 N   0  0  0  0  0  0  0  0  0  0  0  0
    3.4580   -9.1370  -27.5870 C   0  0  0  0  0  0  0  0  0  0  0  0
    3.9430   -9.3210  -28.8880 C   0  0  0  0  0  0  0  0  0  0  0  0
    4.1530  -10.5850  -29.4560 C   0  0  0  0  0  3  0  0  0  0  0  0
    3.7940  -11.7020  -28.7310 C   0  0  0  0  0  0  0  0  0  0  0  0
    3.1970  -11.5620  -27.4870 C   0  0  0  0  0  3  0  0  0  0  0  0
    3.0170  -10.2800  -26.9060 C   0  0  0  0  0  0  0  0  0  0  0  0
    4.1400   -8.1690  -29.7900 C   0  0  0  0  0  0  0  0  0  0  0  0
    4.5990   -7.0250  -29.1940 N   0  0  0  0  0  0  0  0  0  0  0  0
    3.7930   -8.2050  -30.9600 O   0  0  0  0  0  0  0  0  0  0  0  0
    4.7030   -6.1950  -29.7620 H   0  0  0  0  0  0  0  0  0  0  0  0
    4.8710   -6.9880  -28.2220 H   0  0  0  0  0  0  0  0  0  0  0  0
    3.9720  -12.9590  -29.2190 O   0  0  0  0  0  0  0  0  0  0  0  0
    4.4640  -12.9090  -30.0580 H   0  0  0  0  0  0  0  0  0  0  0  0
  1  6  1  0  0  0  0
  2  3  1  0  0  0  0
  2 10  1  0  0  0  0
  4  3  2  0  0  0  0
  5  4  1  0  0  0  0
  6  5  2  0  0  0  0
  6  7  1  0  0  0  0
  7  2  2  0  0  0  0
  8 10  1  0  0  0  0
  8  9  2  0  0  0  0
 10 11  1  0  0  0  0
 12 17  2  0  0  0  0
 12 13  1  0  0  0  0
 13 14  2  0  0  0  0
 14 15  1  0  0  0  0
 15  8  1  0  0  0  0
 16 15  2  0  0  0  0
 17 16  1  0  0  0  0
 18 19  1  0  0  0  0
 19 12  1  0  0  0  0
 20  1  1  0  0  0  0
 21 20  1  0  0  0  0
 22 20  1  0  0  0  0
 22 23  1  0  0  0  0
 24 23  2  0  0  0  0
 25 24  1  0  0  0  0
 26 25  2  0  0  0  0
 26 31  1  0  0  0  0
 27 26  1  0  0  0  0
 28 27  2  0  0  0  0
 28 29  1  0  0  0  0
 29 30  2  0  0  0  0
 30 31  1  0  0  0  0
 31 22  2  0  0  0  0
 32 33  1  0  0  0  0
 32 27  1  0  0  0  0
 33 36  1  0  0  0  0
 34 32  2  0  0  0  0
 35 33  1  0  0  0  0
 37 29  1  0  0  0  0
 38 37  1  0  0  0  0
M  END
>  <minimizedAffinity>
-7.29483604

$$$$
