
 OpenBabel10152419573D

 38 41  0  0  0  0  0  0  0  0999 V2000
    1.5540  -10.5850  -26.0160 C   0  0  0  0  0  2  0  0  0  0  0  0
    0.1060  -12.3550  -22.9360 C   0  0  0  0  0  0  0  0  0  0  0  0
    1.2390  -12.9580  -22.3910 C   0  0  0  0  0  3  0  0  0  0  0  0
    2.4570  -12.8660  -23.0550 C   0  0  0  0  0  3  0  0  0  0  0  0
    2.5490  -12.1340  -24.2390 C   0  0  0  0  0  3  0  0  0  0  0  0
    1.4520  -11.4180  -24.7450 C   0  0  0  0  0  0  0  0  0  0  0  0
    0.2280  -11.5440  -24.0750 C   0  0  0  0  0  3  0  0  0  0  0  0
   -1.9400  -11.7690  -21.5880 C   0  0  0  0  0  0  0  0  0  0  0  0
   -2.8440  -12.2210  -20.8880 O   0  0  0  0  0  0  0  0  0  0  0  0
   -1.1240  -12.6140  -22.3080 N   0  0  0  0  0  0  0  0  0  0  0  0
   -1.5170  -13.5430  -22.4120 H   0  0  0  0  0  0  0  0  0  0  0  0
   -1.6760   -7.5160  -22.0400 C   0  0  0  0  0  0  0  0  0  0  0  0
   -1.7890   -8.3500  -23.1580 C   0  0  0  0  0  3  0  0  0  0  0  0
   -1.8540   -9.7380  -23.0110 C   0  0  0  0  0  3  0  0  0  0  0  0
   -1.8120  -10.2970  -21.7340 C   0  0  0  0  0  0  0  0  0  0  0  0
   -1.6260   -9.4710  -20.6170 C   0  0  0  0  0  3  0  0  0  0  0  0
   -1.5740   -8.0830  -20.7690 C   0  0  0  0  0  3  0  0  0  0  0  0
   -0.5210   -5.6840  -23.0130 C   0  0  0  0  0  1  0  0  0  0  0  0
   -1.6630   -6.1780  -22.3200 O   0  0  0  0  0  0  0  0  0  0  0  0
    2.1030   -9.2620  -25.7640 N   0  0  0  0  0  0  0  0  0  0  0  0
    2.6870   -9.1280  -24.9550 H   0  0  0  0  0  0  0  0  0  0  0  0
    2.0840   -8.3220  -26.7840 C   0  0  0  0  0  0  0  0  0  0  0  0
    3.2140   -8.1880  -27.5010 N   0  0  0  0  0  0  0  0  0  0  0  0
    3.3400   -7.0810  -28.2280 C   0  0  0  0  0  3  0  0  0  0  0  0
    2.4870   -6.0550  -28.2290 N   0  0  0  0  0  0  0  0  0  0  0  0
    1.3320   -6.2050  -27.5530 C   0  0  0  0  0  0  0  0  0  0  0  0
    0.3940   -5.1680  -27.4700 C   0  0  0  0  0  0  0  0  0  0  0  0
   -0.8680   -5.3210  -26.8790 C   0  0  0  0  0  3  0  0  0  0  0  0
   -1.1750   -6.5260  -26.2820 C   0  0  0  0  0  0  0  0  0  0  0  0
   -0.2310   -7.5400  -26.2340 C   0  0  0  0  0  3  0  0  0  0  0  0
    1.0330   -7.3890  -26.8620 C   0  0  0  0  0  0  0  0  0  0  0  0
    0.7440   -3.7990  -27.8940 C   0  0  0  0  0  0  0  0  0  0  0  0
    0.1590   -2.7900  -27.1750 N   0  0  0  0  0  0  0  0  0  0  0  0
    1.4060   -3.5890  -28.8980 O   0  0  0  0  0  0  0  0  0  0  0  0
    0.3300   -1.8350  -27.4590 H   0  0  0  0  0  0  0  0  0  0  0  0
   -0.4040   -2.9630  -26.3540 H   0  0  0  0  0  0  0  0  0  0  0  0
   -2.3810   -6.7450  -25.6930 O   0  0  0  0  0  0  0  0  0  0  0  0
   -2.9640   -5.9850  -25.8660 H   0  0  0  0  0  0  0  0  0  0  0  0
  1 20  1  0  0  0  0
  1  6  1  0  0  0  0
  2  3  1  0  0  0  0
  2 10  1  0  0  0  0
  4  3  2  0  0  0  0
  5  4  1  0  0  0  0
  6  5  2  0  0  0  0
  6  7  1  0  0  0  0
  7  2  2  0  0  0  0
  8  9  2  0  0  0  0
 10  8  1  0  0  0  0
 11 10  1  0  0  0  0
 12 17  1  0  0  0  0
 13 14  1  0  0  0  0
 13 12  2  0  0  0  0
 14 15  2  0  0  0  0
 15  8  1  0  0  0  0
 15 16  1  0  0  0  0
 17 16  2  0  0  0  0
 18 19  1  0  0  0  0
 19 12  1  0  0  0  0
 20 21  1  0  0  0  0
 22 20  1  0  0  0  0
 23 22  2  0  0  0  0
 24 23  1  0  0  0  0
 25 24  2  0  0  0  0
 25 26  1  0  0  0  0
 26 27  2  0  0  0  0
 26 31  1  0  0  0  0
 27 28  1  0  0  0  0
 28 29  2  0  0  0  0
 29 30  1  0  0  0  0
 29 37  1  0  0  0  0
 31 22  1  0  0  0  0
 31 30  2  0  0  0  0
 32 27  1  0  0  0  0
 32 33  1  0  0  0  0
 33 36  1  0  0  0  0
 34 32  2  0  0  0  0
 35 33  1  0  0  0  0
 38 37  1  0  0  0  0
M  END
>  <minimizedAffinity>
-7.70726919

$$$$
