
 OpenBabel10152419573D

 38 41  0  0  0  0  0  0  0  0999 V2000
    2.6490   -8.2800  -25.4670 C   0  0  0  0  0  2  0  0  0  0  0  0
    1.6420  -11.8900  -24.6490 C   0  0  0  0  0  0  0  0  0  0  0  0
    2.0390  -12.5680  -25.8020 C   0  0  0  0  0  3  0  0  0  0  0  0
    2.5560  -11.8560  -26.8780 C   0  0  0  0  0  3  0  0  0  0  0  0
    2.7170  -10.4730  -26.7830 C   0  0  0  0  0  3  0  0  0  0  0  0
    2.4390   -9.7830  -25.5920 C   0  0  0  0  0  0  0  0  0  0  0  0
    1.8950  -10.5150  -24.5280 C   0  0  0  0  0  3  0  0  0  0  0  0
   -0.0210  -12.2610  -22.7940 C   0  0  0  0  0  0  0  0  0  0  0  0
   -0.2980  -12.9590  -21.8200 O   0  0  0  0  0  0  0  0  0  0  0  0
    0.9820  -12.6380  -23.6600 N   0  0  0  0  0  0  0  0  0  0  0  0
    1.2320  -13.6160  -23.5680 H   0  0  0  0  0  0  0  0  0  0  0  0
   -2.3380   -8.7490  -23.6030 C   0  0  0  0  0  0  0  0  0  0  0  0
   -1.9820   -9.0860  -22.2930 C   0  0  0  0  0  3  0  0  0  0  0  0
   -1.2440  -10.2420  -22.0280 C   0  0  0  0  0  3  0  0  0  0  0  0
   -0.8540  -11.0670  -23.0840 C   0  0  0  0  0  0  0  0  0  0  0  0
   -1.2700  -10.7710  -24.3890 C   0  0  0  0  0  3  0  0  0  0  0  0
   -1.9970   -9.6070  -24.6490 C   0  0  0  0  0  3  0  0  0  0  0  0
   -4.3940   -7.5910  -23.3440 C   0  0  0  0  0  1  0  0  0  0  0  0
   -3.0230   -7.5720  -23.7280 O   0  0  0  0  0  0  0  0  0  0  0  0
    2.8470   -7.6420  -26.7590 N   0  0  0  0  0  0  0  0  0  0  0  0
    3.5970   -7.9680  -27.3470 H   0  0  0  0  0  0  0  0  0  0  0  0
    1.8330   -6.8520  -27.2800 C   0  0  0  0  0  0  0  0  0  0  0  0
    1.9260   -6.5350  -28.5840 N   0  0  0  0  0  0  0  0  0  0  0  0
    1.1850   -5.5160  -29.0120 C   0  0  0  0  0  3  0  0  0  0  0  0
    0.4360   -4.7270  -28.2400 N   0  0  0  0  0  0  0  0  0  0  0  0
    0.3010   -5.0700  -26.9450 C   0  0  0  0  0  0  0  0  0  0  0  0
   -0.4370   -4.2800  -26.0540 C   0  0  0  0  0  0  0  0  0  0  0  0
   -0.7010   -4.6600  -24.7300 C   0  0  0  0  0  3  0  0  0  0  0  0
   -0.1450   -5.8300  -24.2570 C   0  0  0  0  0  0  0  0  0  0  0  0
    0.6920   -6.5820  -25.0680 C   0  0  0  0  0  3  0  0  0  0  0  0
    0.9290   -6.2070  -26.4160 C   0  0  0  0  0  0  0  0  0  0  0  0
   -0.8730   -2.9220  -26.4320 C   0  0  0  0  0  0  0  0  0  0  0  0
    0.0440   -2.1810  -27.1300 N   0  0  0  0  0  0  0  0  0  0  0  0
   -1.9270   -2.4530  -26.0340 O   0  0  0  0  0  0  0  0  0  0  0  0
   -0.1910   -1.2270  -27.3700 H   0  0  0  0  0  0  0  0  0  0  0  0
    0.9250   -2.5620  -27.4460 H   0  0  0  0  0  0  0  0  0  0  0  0
   -0.3620   -6.2610  -22.9850 O   0  0  0  0  0  0  0  0  0  0  0  0
   -1.0200   -5.6840  -22.5600 H   0  0  0  0  0  0  0  0  0  0  0  0
  2  7  1  0  0  0  0
  2 10  1  0  0  0  0
  3  2  2  0  0  0  0
  4  5  2  0  0  0  0
  4  3  1  0  0  0  0
  5  6  1  0  0  0  0
  6  1  1  0  0  0  0
  6  7  2  0  0  0  0
  8  9  2  0  0  0  0
 10 11  1  0  0  0  0
 10  8  1  0  0  0  0
 12 13  1  0  0  0  0
 13 14  2  0  0  0  0
 15  8  1  0  0  0  0
 15 14  1  0  0  0  0
 16 15  2  0  0  0  0
 17 16  1  0  0  0  0
 17 12  2  0  0  0  0
 19 12  1  0  0  0  0
 19 18  1  0  0  0  0
 20  1  1  0  0  0  0
 21 20  1  0  0  0  0
 22 20  1  0  0  0  0
 22 31  1  0  0  0  0
 23 22  2  0  0  0  0
 24 23  1  0  0  0  0
 24 25  2  0  0  0  0
 25 26  1  0  0  0  0
 26 31  2  0  0  0  0
 26 27  1  0  0  0  0
 27 28  2  0  0  0  0
 28 29  1  0  0  0  0
 29 37  1  0  0  0  0
 30 29  2  0  0  0  0
 31 30  1  0  0  0  0
 32 27  1  0  0  0  0
 32 34  2  0  0  0  0
 33 32  1  0  0  0  0
 35 33  1  0  0  0  0
 36 33  1  0  0  0  0
 37 38  1  0  0  0  0
M  END
>  <minimizedAffinity>
-8.19677353

$$$$
