
 OpenBabel10152419573D

 38 41  0  0  0  0  0  0  0  0999 V2000
    4.0150   -8.0880  -27.6660 C   0  0  0  0  0  2  0  0  0  0  0  0
    4.1850  -11.7150  -26.4260 C   0  0  0  0  0  0  0  0  0  0  0  0
    4.4300  -12.4120  -27.6090 C   0  0  0  0  0  3  0  0  0  0  0  0
    4.4590  -11.7300  -28.8190 C   0  0  0  0  0  3  0  0  0  0  0  0
    4.2890  -10.3450  -28.8400 C   0  0  0  0  0  3  0  0  0  0  0  0
    4.1620   -9.6040  -27.6540 C   0  0  0  0  0  0  0  0  0  0  0  0
    4.1100  -10.3140  -26.4460 C   0  0  0  0  0  3  0  0  0  0  0  0
    3.0210  -12.4000  -24.2990 C   0  0  0  0  0  0  0  0  0  0  0  0
    3.1640  -12.9580  -23.2130 O   0  0  0  0  0  0  0  0  0  0  0  0
    4.0090  -12.4750  -25.2580 N   0  0  0  0  0  0  0  0  0  0  0  0
    4.6690  -13.2240  -25.0820 H   0  0  0  0  0  0  0  0  0  0  0  0
   -0.6560  -10.3990  -25.2070 C   0  0  0  0  0  0  0  0  0  0  0  0
    0.0980  -10.0370  -24.0860 C   0  0  0  0  0  3  0  0  0  0  0  0
    1.2870  -10.7040  -23.7790 C   0  0  0  0  0  3  0  0  0  0  0  0
    1.7280  -11.7390  -24.6040 C   0  0  0  0  0  0  0  0  0  0  0  0
    0.9390  -12.1520  -25.6860 C   0  0  0  0  0  3  0  0  0  0  0  0
   -0.2430  -11.4730  -25.9950 C   0  0  0  0  0  3  0  0  0  0  0  0
   -2.2690   -8.9130  -24.2960 C   0  0  0  0  0  1  0  0  0  0  0  0
   -1.7750   -9.6410  -25.4160 O   0  0  0  0  0  0  0  0  0  0  0  0
    2.9570   -7.6310  -26.7790 N   0  0  0  0  0  0  0  0  0  0  0  0
    3.1040   -7.6870  -25.7840 H   0  0  0  0  0  0  0  0  0  0  0  0
    1.9360   -6.8510  -27.2990 C   0  0  0  0  0  0  0  0  0  0  0  0
    2.0470   -6.4960  -28.5910 N   0  0  0  0  0  0  0  0  0  0  0  0
    1.2910   -5.4830  -29.0070 C   0  0  0  0  0  3  0  0  0  0  0  0
    0.5080   -4.7340  -28.2310 N   0  0  0  0  0  0  0  0  0  0  0  0
    0.3550   -5.1150  -26.9480 C   0  0  0  0  0  0  0  0  0  0  0  0
   -0.4200   -4.3680  -26.0510 C   0  0  0  0  0  0  0  0  0  0  0  0
   -0.7010   -4.7900  -24.7450 C   0  0  0  0  0  3  0  0  0  0  0  0
   -0.1270   -5.9590  -24.2910 C   0  0  0  0  0  0  0  0  0  0  0  0
    0.7430   -6.6680  -25.1050 C   0  0  0  0  0  3  0  0  0  0  0  0
    0.9980   -6.2510  -26.4370 C   0  0  0  0  0  0  0  0  0  0  0  0
   -0.8810   -3.0100  -26.4020 C   0  0  0  0  0  0  0  0  0  0  0  0
    0.0100   -2.2500  -27.1130 N   0  0  0  0  0  0  0  0  0  0  0  0
   -1.9310   -2.5590  -25.9730 O   0  0  0  0  0  0  0  0  0  0  0  0
   -0.2420   -1.2960  -27.3350 H   0  0  0  0  0  0  0  0  0  0  0  0
    0.8870   -2.6160  -27.4550 H   0  0  0  0  0  0  0  0  0  0  0  0
   -0.3590   -6.4290  -23.0360 O   0  0  0  0  0  0  0  0  0  0  0  0
   -1.0400   -5.8800  -22.6100 H   0  0  0  0  0  0  0  0  0  0  0  0
  1  6  1  0  0  0  0
  1 20  1  0  0  0  0
  2 10  1  0  0  0  0
  3  2  2  0  0  0  0
  4  3  1  0  0  0  0
  5  4  2  0  0  0  0
  5  6  1  0  0  0  0
  6  7  2  0  0  0  0
  7  2  1  0  0  0  0
  8  9  2  0  0  0  0
 10 11  1  0  0  0  0
 10  8  1  0  0  0  0
 12 13  1  0  0  0  0
 13 14  2  0  0  0  0
 15  8  1  0  0  0  0
 15 14  1  0  0  0  0
 16 15  2  0  0  0  0
 17 16  1  0  0  0  0
 17 12  2  0  0  0  0
 19 12  1  0  0  0  0
 19 18  1  0  0  0  0
 20 21  1  0  0  0  0
 22 20  1  0  0  0  0
 22 31  1  0  0  0  0
 23 22  2  0  0  0  0
 24 23  1  0  0  0  0
 24 25  2  0  0  0  0
 25 26  1  0  0  0  0
 26 31  2  0  0  0  0
 26 27  1  0  0  0  0
 27 28  2  0  0  0  0
 28 29  1  0  0  0  0
 29 37  1  0  0  0  0
 30 29  2  0  0  0  0
 31 30  1  0  0  0  0
 32 27  1  0  0  0  0
 32 34  2  0  0  0  0
 33 32  1  0  0  0  0
 35 33  1  0  0  0  0
 36 33  1  0  0  0  0
 37 38  1  0  0  0  0
M  END
>  <minimizedAffinity>
-8.88842201

$$$$
