
 OpenBabel10152419573D

 38 41  0  0  0  0  0  0  0  0999 V2000
    0.5680  -12.7100  -26.4370 C   0  0  0  0  0  2  0  0  0  0  0  0
    3.8820  -10.9240  -27.1770 C   0  0  0  0  0  0  0  0  0  0  0  0
    4.7170  -11.4470  -26.1890 C   0  0  0  0  0  3  0  0  0  0  0  0
    4.1980  -12.3110  -25.2320 C   0  0  0  0  0  3  0  0  0  0  0  0
    2.8560  -12.6870  -25.2910 C   0  0  0  0  0  3  0  0  0  0  0  0
    2.0240  -12.2730  -26.3440 C   0  0  0  0  0  0  0  0  0  0  0  0
    2.5600  -11.3810  -27.2840 C   0  0  0  0  0  3  0  0  0  0  0  0
    3.9520   -8.6730  -28.3060 C   0  0  0  0  0  0  0  0  0  0  0  0
    4.4030   -8.0440  -29.2600 O   0  0  0  0  0  0  0  0  0  0  0  0
    4.4220   -9.9360  -28.0170 N   0  0  0  0  0  0  0  0  0  0  0  0
    5.3090  -10.1350  -28.4640 H   0  0  0  0  0  0  0  0  0  0  0  0
    1.0450   -6.8130  -25.7670 C   0  0  0  0  0  0  0  0  0  0  0  0
    1.2000   -6.4050  -27.0960 C   0  0  0  0  0  3  0  0  0  0  0  0
    2.1630   -6.9980  -27.9180 C   0  0  0  0  0  3  0  0  0  0  0  0
    2.9740   -8.0120  -27.4060 C   0  0  0  0  0  0  0  0  0  0  0  0
    2.8700   -8.3730  -26.0560 C   0  0  0  0  0  3  0  0  0  0  0  0
    1.8970   -7.7850  -25.2430 C   0  0  0  0  0  3  0  0  0  0  0  0
   -0.6520   -5.1520  -25.7850 C   0  0  0  0  0  1  0  0  0  0  0  0
    0.0420   -6.1810  -25.0860 O   0  0  0  0  0  0  0  0  0  0  0  0
   -0.1090  -12.6480  -25.1520 N   0  0  0  0  0  0  0  0  0  0  0  0
    0.2100  -13.2500  -24.4100 H   0  0  0  0  0  0  0  0  0  0  0  0
   -0.9350  -11.5670  -24.8790 C   0  0  0  0  0  0  0  0  0  0  0  0
   -1.2490  -10.7730  -25.9180 N   0  0  0  0  0  0  0  0  0  0  0  0
   -1.7300   -9.5660  -25.6310 C   0  0  0  0  0  3  0  0  0  0  0  0
   -1.8360   -9.0470  -24.4070 N   0  0  0  0  0  0  0  0  0  0  0  0
   -1.5700   -9.8550  -23.3630 C   0  0  0  0  0  0  0  0  0  0  0  0
   -1.6200   -9.3850  -22.0440 C   0  0  0  0  0  0  0  0  0  0  0  0
   -1.4670  -10.2180  -20.9270 C   0  0  0  0  0  3  0  0  0  0  0  0
   -1.1780  -11.5510  -21.1320 C   0  0  0  0  0  0  0  0  0  0  0  0
   -0.9990  -12.0340  -22.4200 C   0  0  0  0  0  3  0  0  0  0  0  0
   -1.1860  -11.1910  -23.5470 C   0  0  0  0  0  0  0  0  0  0  0  0
   -1.7100   -7.9400  -21.7610 C   0  0  0  0  0  0  0  0  0  0  0  0
   -0.8730   -7.1420  -22.4950 N   0  0  0  0  0  0  0  0  0  0  0  0
   -2.3900   -7.5070  -20.8450 O   0  0  0  0  0  0  0  0  0  0  0  0
   -0.8640   -6.1490  -22.3030 H   0  0  0  0  0  0  0  0  0  0  0  0
   -0.2960   -7.5000  -23.2430 H   0  0  0  0  0  0  0  0  0  0  0  0
   -1.0190  -12.4160  -20.0950 O   0  0  0  0  0  0  0  0  0  0  0  0
   -1.2450  -11.9630  -19.2640 H   0  0  0  0  0  0  0  0  0  0  0  0
  1  6  1  0  0  0  0
  1 20  1  0  0  0  0
  2  3  1  0  0  0  0
  3  4  2  0  0  0  0
  5  4  1  0  0  0  0
  6  5  2  0  0  0  0
  7  2  2  0  0  0  0
  7  6  1  0  0  0  0
  8 10  1  0  0  0  0
  8 15  1  0  0  0  0
  9  8  2  0  0  0  0
 10  2  1  0  0  0  0
 11 10  1  0  0  0  0
 12 17  1  0  0  0  0
 12 19  1  0  0  0  0
 13 12  2  0  0  0  0
 14 15  2  0  0  0  0
 14 13  1  0  0  0  0
 15 16  1  0  0  0  0
 16 17  2  0  0  0  0
 18 19  1  0  0  0  0
 20 22  1  0  0  0  0
 20 21  1  0  0  0  0
 22 31  1  0  0  0  0
 23 24  1  0  0  0  0
 23 22  2  0  0  0  0
 24 25  2  0  0  0  0
 25 26  1  0  0  0  0
 26 27  1  0  0  0  0
 27 32  1  0  0  0  0
 27 28  2  0  0  0  0
 29 28  1  0  0  0  0
 29 37  1  0  0  0  0
 30 29  2  0  0  0  0
 31 26  2  0  0  0  0
 31 30  1  0  0  0  0
 32 34  2  0  0  0  0
 33 35  1  0  0  0  0
 33 32  1  0  0  0  0
 36 33  1  0  0  0  0
 37 38  1  0  0  0  0
M  END
>  <minimizedAffinity>
-8.91610432

$$$$
