
 OpenBabel10152419573D

 38 41  0  0  0  0  0  0  0  0999 V2000
    0.5680  -12.7100  -26.4370 C   0  0  0  0  0  2  0  0  0  0  0  0
    3.8820  -10.9240  -27.1770 C   0  0  0  0  0  0  0  0  0  0  0  0
    4.7170  -11.4470  -26.1890 C   0  0  0  0  0  3  0  0  0  0  0  0
    4.1980  -12.3110  -25.2320 C   0  0  0  0  0  3  0  0  0  0  0  0
    2.8560  -12.6870  -25.2910 C   0  0  0  0  0  3  0  0  0  0  0  0
    2.0240  -12.2730  -26.3440 C   0  0  0  0  0  0  0  0  0  0  0  0
    2.5600  -11.3810  -27.2840 C   0  0  0  0  0  3  0  0  0  0  0  0
    3.9520   -8.6730  -28.3060 C   0  0  0  0  0  0  0  0  0  0  0  0
    4.4030   -8.0440  -29.2600 O   0  0  0  0  0  0  0  0  0  0  0  0
    4.4220   -9.9360  -28.0170 N   0  0  0  0  0  0  0  0  0  0  0  0
    5.3090  -10.1350  -28.4640 H   0  0  0  0  0  0  0  0  0  0  0  0
    1.0450   -6.8130  -25.7670 C   0  0  0  0  0  0  0  0  0  0  0  0
    1.2000   -6.4050  -27.0960 C   0  0  0  0  0  3  0  0  0  0  0  0
    2.1630   -6.9980  -27.9180 C   0  0  0  0  0  3  0  0  0  0  0  0
    2.9740   -8.0120  -27.4060 C   0  0  0  0  0  0  0  0  0  0  0  0
    2.8700   -8.3730  -26.0560 C   0  0  0  0  0  3  0  0  0  0  0  0
    1.8970   -7.7850  -25.2430 C   0  0  0  0  0  3  0  0  0  0  0  0
   -0.6520   -5.1520  -25.7850 C   0  0  0  0  0  1  0  0  0  0  0  0
    0.0420   -6.1810  -25.0860 O   0  0  0  0  0  0  0  0  0  0  0  0
   -0.1090  -12.6480  -25.1520 N   0  0  0  0  0  0  0  0  0  0  0  0
    0.2100  -13.2500  -24.4100 H   0  0  0  0  0  0  0  0  0  0  0  0
   -0.9350  -11.5670  -24.8790 C   0  0  0  0  0  0  0  0  0  0  0  0
   -1.2490  -10.7730  -25.9180 N   0  0  0  0  0  0  0  0  0  0  0  0
   -1.7300   -9.5660  -25.6310 C   0  0  0  0  0  3  0  0  0  0  0  0
   -1.8360   -9.0470  -24.4070 N   0  0  0  0  0  0  0  0  0  0  0  0
   -1.5700   -9.8550  -23.3630 C   0  0  0  0  0  0  0  0  0  0  0  0
   -1.6200   -9.3850  -22.0440 C   0  0  0  0  0  0  0  0  0  0  0  0
   -1.4670  -10.2180  -20.9270 C   0  0  0  0  0  3  0  0  0  0  0  0
   -1.1780  -11.5510  -21.1320 C   0  0  0  0  0  0  0  0  0  0  0  0
   -0.9990  -12.0340  -22.4200 C   0  0  0  0  0  3  0  0  0  0  0  0
   -1.1860  -11.1910  -23.5470 C   0  0  0  0  0  0  0  0  0  0  0  0
   -1.7100   -7.9400  -21.7610 C   0  0  0  0  0  0  0  0  0  0  0  0
   -0.8730   -7.1420  -22.4950 N   0  0  0  0  0  0  0  0  0  0  0  0
   -2.3900   -7.5070  -20.8450 O   0  0  0  0  0  0  0  0  0  0  0  0
   -0.8640   -6.1490  -22.3030 H   0  0  0  0  0  0  0  0  0  0  0  0
   -0.2960   -7.5000  -23.2430 H   0  0  0  0  0  0  0  0  0  0  0  0
   -1.0190  -12.4160  -20.0950 O   0  0  0  0  0  0  0  0  0  0  0  0
   -1.2450  -11.9630  -19.2640 H   0  0  0  0  0  0  0  0  0  0  0  0
  1  6  1  0  0  0  0
  1 20  1  0  0  0  0
  2  3  1  0  0  0  0
  3  4  2  0  0  0  0
  5  4  1  0  0  0  0
  6  5  2  0  0  0  0
  7  2  2  0  0  0  0
  7  6  1  0  0  0  0
  8 10  1  0  0  0  0
  8 15  1  0  0  0  0
  9  8  2  0  0  0  0
 10  2  1  0  0  0  0
 11 10  1  0  0  0  0
 12 17  1  0  0  0  0
 12 19  1  0  0  0  0
 13 12  2  0  0  0  0
 14 15  2  0  0  0  0
 14 13  1  0  0  0  0
 15 16  1  0  0  0  0
 16 17  2  0  0  0  0
 18 19  1  0  0  0  0
 20 22  1  0  0  0  0
 20 21  1  0  0  0  0
 22 31  1  0  0  0  0
 23 24  1  0  0  0  0
 23 22  2  0  0  0  0
 24 25  2  0  0  0  0
 25 26  1  0  0  0  0
 26 27  1  0  0  0  0
 27 32  1  0  0  0  0
 27 28  2  0  0  0  0
 29 28  1  0  0  0  0
 29 37  1  0  0  0  0
 30 29  2  0  0  0  0
 31 26  2  0  0  0  0
 31 30  1  0  0  0  0
 32 34  2  0  0  0  0
 33 35  1  0  0  0  0
 33 32  1  0  0  0  0
 36 33  1  0  0  0  0
 37 38  1  0  0  0  0
M  END
>  <minimizedAffinity>
-8.91610432

$$$$

 OpenBabel10152419573D

 38 41  0  0  0  0  0  0  0  0999 V2000
    4.0150   -8.0880  -27.6660 C   0  0  0  0  0  2  0  0  0  0  0  0
    4.1850  -11.7150  -26.4260 C   0  0  0  0  0  0  0  0  0  0  0  0
    4.4300  -12.4120  -27.6090 C   0  0  0  0  0  3  0  0  0  0  0  0
    4.4590  -11.7300  -28.8190 C   0  0  0  0  0  3  0  0  0  0  0  0
    4.2890  -10.3450  -28.8400 C   0  0  0  0  0  3  0  0  0  0  0  0
    4.1620   -9.6040  -27.6540 C   0  0  0  0  0  0  0  0  0  0  0  0
    4.1100  -10.3140  -26.4460 C   0  0  0  0  0  3  0  0  0  0  0  0
    3.0210  -12.4000  -24.2990 C   0  0  0  0  0  0  0  0  0  0  0  0
    3.1640  -12.9580  -23.2130 O   0  0  0  0  0  0  0  0  0  0  0  0
    4.0090  -12.4750  -25.2580 N   0  0  0  0  0  0  0  0  0  0  0  0
    4.6690  -13.2240  -25.0820 H   0  0  0  0  0  0  0  0  0  0  0  0
   -0.6560  -10.3990  -25.2070 C   0  0  0  0  0  0  0  0  0  0  0  0
    0.0980  -10.0370  -24.0860 C   0  0  0  0  0  3  0  0  0  0  0  0
    1.2870  -10.7040  -23.7790 C   0  0  0  0  0  3  0  0  0  0  0  0
    1.7280  -11.7390  -24.6040 C   0  0  0  0  0  0  0  0  0  0  0  0
    0.9390  -12.1520  -25.6860 C   0  0  0  0  0  3  0  0  0  0  0  0
   -0.2430  -11.4730  -25.9950 C   0  0  0  0  0  3  0  0  0  0  0  0
   -2.2690   -8.9130  -24.2960 C   0  0  0  0  0  1  0  0  0  0  0  0
   -1.7750   -9.6410  -25.4160 O   0  0  0  0  0  0  0  0  0  0  0  0
    2.9570   -7.6310  -26.7790 N   0  0  0  0  0  0  0  0  0  0  0  0
    3.1040   -7.6870  -25.7840 H   0  0  0  0  0  0  0  0  0  0  0  0
    1.9360   -6.8510  -27.2990 C   0  0  0  0  0  0  0  0  0  0  0  0
    2.0470   -6.4960  -28.5910 N   0  0  0  0  0  0  0  0  0  0  0  0
    1.2910   -5.4830  -29.0070 C   0  0  0  0  0  3  0  0  0  0  0  0
    0.5080   -4.7340  -28.2310 N   0  0  0  0  0  0  0  0  0  0  0  0
    0.3550   -5.1150  -26.9480 C   0  0  0  0  0  0  0  0  0  0  0  0
   -0.4200   -4.3680  -26.0510 C   0  0  0  0  0  0  0  0  0  0  0  0
   -0.7010   -4.7900  -24.7450 C   0  0  0  0  0  3  0  0  0  0  0  0
   -0.1270   -5.9590  -24.2910 C   0  0  0  0  0  0  0  0  0  0  0  0
    0.7430   -6.6680  -25.1050 C   0  0  0  0  0  3  0  0  0  0  0  0
    0.9980   -6.2510  -26.4370 C   0  0  0  0  0  0  0  0  0  0  0  0
   -0.8810   -3.0100  -26.4020 C   0  0  0  0  0  0  0  0  0  0  0  0
    0.0100   -2.2500  -27.1130 N   0  0  0  0  0  0  0  0  0  0  0  0
   -1.9310   -2.5590  -25.9730 O   0  0  0  0  0  0  0  0  0  0  0  0
   -0.2420   -1.2960  -27.3350 H   0  0  0  0  0  0  0  0  0  0  0  0
    0.8870   -2.6160  -27.4550 H   0  0  0  0  0  0  0  0  0  0  0  0
   -0.3590   -6.4290  -23.0360 O   0  0  0  0  0  0  0  0  0  0  0  0
   -1.0400   -5.8800  -22.6100 H   0  0  0  0  0  0  0  0  0  0  0  0
  1  6  1  0  0  0  0
  1 20  1  0  0  0  0
  2 10  1  0  0  0  0
  3  2  2  0  0  0  0
  4  3  1  0  0  0  0
  5  4  2  0  0  0  0
  5  6  1  0  0  0  0
  6  7  2  0  0  0  0
  7  2  1  0  0  0  0
  8  9  2  0  0  0  0
 10 11  1  0  0  0  0
 10  8  1  0  0  0  0
 12 13  1  0  0  0  0
 13 14  2  0  0  0  0
 15  8  1  0  0  0  0
 15 14  1  0  0  0  0
 16 15  2  0  0  0  0
 17 16  1  0  0  0  0
 17 12  2  0  0  0  0
 19 12  1  0  0  0  0
 19 18  1  0  0  0  0
 20 21  1  0  0  0  0
 22 20  1  0  0  0  0
 22 31  1  0  0  0  0
 23 22  2  0  0  0  0
 24 23  1  0  0  0  0
 24 25  2  0  0  0  0
 25 26  1  0  0  0  0
 26 31  2  0  0  0  0
 26 27  1  0  0  0  0
 27 28  2  0  0  0  0
 28 29  1  0  0  0  0
 29 37  1  0  0  0  0
 30 29  2  0  0  0  0
 31 30  1  0  0  0  0
 32 27  1  0  0  0  0
 32 34  2  0  0  0  0
 33 32  1  0  0  0  0
 35 33  1  0  0  0  0
 36 33  1  0  0  0  0
 37 38  1  0  0  0  0
M  END
>  <minimizedAffinity>
-8.88842201

$$$$

 OpenBabel10152419573D

 38 41  0  0  0  0  0  0  0  0999 V2000
   -1.0060   -7.8130  -26.0390 C   0  0  0  0  0  2  0  0  0  0  0  0
    1.5280   -6.0640  -28.3280 C   0  0  0  0  0  0  0  0  0  0  0  0
    1.3270   -4.7220  -28.0080 C   0  0  0  0  0  3  0  0  0  0  0  0
    0.3200   -4.3680  -27.1170 C   0  0  0  0  0  3  0  0  0  0  0  0
   -0.4530   -5.3600  -26.5130 C   0  0  0  0  0  3  0  0  0  0  0  0
   -0.1920   -6.7240  -26.7240 C   0  0  0  0  0  0  0  0  0  0  0  0
    0.8100   -7.0580  -27.6450 C   0  0  0  0  0  3  0  0  0  0  0  0
    3.5130   -7.2240  -29.3570 C   0  0  0  0  0  0  0  0  0  0  0  0
    4.3700   -7.1560  -30.2370 O   0  0  0  0  0  0  0  0  0  0  0  0
    2.4490   -6.3490  -29.3500 N   0  0  0  0  0  0  0  0  0  0  0  0
    2.3160   -5.8860  -30.2420 H   0  0  0  0  0  0  0  0  0  0  0  0
    3.8240  -10.4300  -26.5320 C   0  0  0  0  0  0  0  0  0  0  0  0
    3.8580  -10.6820  -27.9080 C   0  0  0  0  0  3  0  0  0  0  0  0
    3.7360   -9.6380  -28.8280 C   0  0  0  0  0  3  0  0  0  0  0  0
    3.5840   -8.3290  -28.3690 C   0  0  0  0  0  0  0  0  0  0  0  0
    3.4770   -8.0820  -26.9940 C   0  0  0  0  0  3  0  0  0  0  0  0
    3.6130   -9.1280  -26.0770 C   0  0  0  0  0  3  0  0  0  0  0  0
    3.7100  -12.7940  -26.3380 C   0  0  0  0  0  1  0  0  0  0  0  0
    3.9950  -11.5320  -25.7410 O   0  0  0  0  0  0  0  0  0  0  0  0
   -0.3740   -9.1190  -26.1410 N   0  0  0  0  0  0  0  0  0  0  0  0
    0.0290   -9.3920  -27.0230 H   0  0  0  0  0  0  0  0  0  0  0  0
   -0.0570   -9.8040  -24.9770 C   0  0  0  0  0  0  0  0  0  0  0  0
    0.6630  -10.9300  -25.1190 N   0  0  0  0  0  0  0  0  0  0  0  0
    0.6760  -11.7730  -24.0890 C   0  0  0  0  0  3  0  0  0  0  0  0
   -0.0410  -11.6390  -22.9720 N   0  0  0  0  0  0  0  0  0  0  0  0
   -0.7240  -10.4900  -22.8050 C   0  0  0  0  0  0  0  0  0  0  0  0
   -1.5320  -10.2780  -21.6800 C   0  0  0  0  0  0  0  0  0  0  0  0
   -2.1640   -9.0570  -21.4090 C   0  0  0  0  0  3  0  0  0  0  0  0
   -2.0500   -8.0360  -22.3310 C   0  0  0  0  0  0  0  0  0  0  0  0
   -1.3610   -8.2430  -23.5160 C   0  0  0  0  0  3  0  0  0  0  0  0
   -0.6970   -9.4720  -23.7680 C   0  0  0  0  0  0  0  0  0  0  0  0
   -1.8690  -11.3920  -20.7720 C   0  0  0  0  0  0  0  0  0  0  0  0
   -0.8290  -11.8800  -20.0260 N   0  0  0  0  0  0  0  0  0  0  0  0
   -2.9690  -11.9200  -20.7870 O   0  0  0  0  0  0  0  0  0  0  0  0
   -0.9990  -12.6750  -19.4250 H   0  0  0  0  0  0  0  0  0  0  0  0
    0.0880  -11.4550  -20.0260 H   0  0  0  0  0  0  0  0  0  0  0  0
   -2.6340   -6.8240  -22.1310 O   0  0  0  0  0  0  0  0  0  0  0  0
   -3.0150   -6.7970  -21.2360 H   0  0  0  0  0  0  0  0  0  0  0  0
  2  3  2  0  0  0  0
  2  7  1  0  0  0  0
  3  4  1  0  0  0  0
  4  5  2  0  0  0  0
  6  5  1  0  0  0  0
  6  1  1  0  0  0  0
  7  6  2  0  0  0  0
  8 10  1  0  0  0  0
  8 15  1  0  0  0  0
  9  8  2  0  0  0  0
 10  2  1  0  0  0  0
 11 10  1  0  0  0  0
 12 17  1  0  0  0  0
 12 19  1  0  0  0  0
 13 12  2  0  0  0  0
 14 15  2  0  0  0  0
 14 13  1  0  0  0  0
 15 16  1  0  0  0  0
 16 17  2  0  0  0  0
 18 19  1  0  0  0  0
 20  1  1  0  0  0  0
 20 22  1  0  0  0  0
 21 20  1  0  0  0  0
 22 31  1  0  0  0  0
 23 22  2  0  0  0  0
 23 24  1  0  0  0  0
 24 25  2  0  0  0  0
 25 26  1  0  0  0  0
 26 27  1  0  0  0  0
 27 28  2  0  0  0  0
 27 32  1  0  0  0  0
 29 37  1  0  0  0  0
 29 28  1  0  0  0  0
 30 29  2  0  0  0  0
 31 30  1  0  0  0  0
 31 26  2  0  0  0  0
 32 33  1  0  0  0  0
 33 35  1  0  0  0  0
 34 32  2  0  0  0  0
 36 33  1  0  0  0  0
 37 38  1  0  0  0  0
M  END
>  <minimizedAffinity>
-8.2767067

$$$$

 OpenBabel10152419573D

 38 41  0  0  0  0  0  0  0  0999 V2000
    2.6490   -8.2800  -25.4670 C   0  0  0  0  0  2  0  0  0  0  0  0
    1.6420  -11.8900  -24.6490 C   0  0  0  0  0  0  0  0  0  0  0  0
    2.0390  -12.5680  -25.8020 C   0  0  0  0  0  3  0  0  0  0  0  0
    2.5560  -11.8560  -26.8780 C   0  0  0  0  0  3  0  0  0  0  0  0
    2.7170  -10.4730  -26.7830 C   0  0  0  0  0  3  0  0  0  0  0  0
    2.4390   -9.7830  -25.5920 C   0  0  0  0  0  0  0  0  0  0  0  0
    1.8950  -10.5150  -24.5280 C   0  0  0  0  0  3  0  0  0  0  0  0
   -0.0210  -12.2610  -22.7940 C   0  0  0  0  0  0  0  0  0  0  0  0
   -0.2980  -12.9590  -21.8200 O   0  0  0  0  0  0  0  0  0  0  0  0
    0.9820  -12.6380  -23.6600 N   0  0  0  0  0  0  0  0  0  0  0  0
    1.2320  -13.6160  -23.5680 H   0  0  0  0  0  0  0  0  0  0  0  0
   -2.3380   -8.7490  -23.6030 C   0  0  0  0  0  0  0  0  0  0  0  0
   -1.9820   -9.0860  -22.2930 C   0  0  0  0  0  3  0  0  0  0  0  0
   -1.2440  -10.2420  -22.0280 C   0  0  0  0  0  3  0  0  0  0  0  0
   -0.8540  -11.0670  -23.0840 C   0  0  0  0  0  0  0  0  0  0  0  0
   -1.2700  -10.7710  -24.3890 C   0  0  0  0  0  3  0  0  0  0  0  0
   -1.9970   -9.6070  -24.6490 C   0  0  0  0  0  3  0  0  0  0  0  0
   -4.3940   -7.5910  -23.3440 C   0  0  0  0  0  1  0  0  0  0  0  0
   -3.0230   -7.5720  -23.7280 O   0  0  0  0  0  0  0  0  0  0  0  0
    2.8470   -7.6420  -26.7590 N   0  0  0  0  0  0  0  0  0  0  0  0
    3.5970   -7.9680  -27.3470 H   0  0  0  0  0  0  0  0  0  0  0  0
    1.8330   -6.8520  -27.2800 C   0  0  0  0  0  0  0  0  0  0  0  0
    1.9260   -6.5350  -28.5840 N   0  0  0  0  0  0  0  0  0  0  0  0
    1.1850   -5.5160  -29.0120 C   0  0  0  0  0  3  0  0  0  0  0  0
    0.4360   -4.7270  -28.2400 N   0  0  0  0  0  0  0  0  0  0  0  0
    0.3010   -5.0700  -26.9450 C   0  0  0  0  0  0  0  0  0  0  0  0
   -0.4370   -4.2800  -26.0540 C   0  0  0  0  0  0  0  0  0  0  0  0
   -0.7010   -4.6600  -24.7300 C   0  0  0  0  0  3  0  0  0  0  0  0
   -0.1450   -5.8300  -24.2570 C   0  0  0  0  0  0  0  0  0  0  0  0
    0.6920   -6.5820  -25.0680 C   0  0  0  0  0  3  0  0  0  0  0  0
    0.9290   -6.2070  -26.4160 C   0  0  0  0  0  0  0  0  0  0  0  0
   -0.8730   -2.9220  -26.4320 C   0  0  0  0  0  0  0  0  0  0  0  0
    0.0440   -2.1810  -27.1300 N   0  0  0  0  0  0  0  0  0  0  0  0
   -1.9270   -2.4530  -26.0340 O   0  0  0  0  0  0  0  0  0  0  0  0
   -0.1910   -1.2270  -27.3700 H   0  0  0  0  0  0  0  0  0  0  0  0
    0.9250   -2.5620  -27.4460 H   0  0  0  0  0  0  0  0  0  0  0  0
   -0.3620   -6.2610  -22.9850 O   0  0  0  0  0  0  0  0  0  0  0  0
   -1.0200   -5.6840  -22.5600 H   0  0  0  0  0  0  0  0  0  0  0  0
  2  7  1  0  0  0  0
  2 10  1  0  0  0  0
  3  2  2  0  0  0  0
  4  5  2  0  0  0  0
  4  3  1  0  0  0  0
  5  6  1  0  0  0  0
  6  1  1  0  0  0  0
  6  7  2  0  0  0  0
  8  9  2  0  0  0  0
 10 11  1  0  0  0  0
 10  8  1  0  0  0  0
 12 13  1  0  0  0  0
 13 14  2  0  0  0  0
 15  8  1  0  0  0  0
 15 14  1  0  0  0  0
 16 15  2  0  0  0  0
 17 16  1  0  0  0  0
 17 12  2  0  0  0  0
 19 12  1  0  0  0  0
 19 18  1  0  0  0  0
 20  1  1  0  0  0  0
 21 20  1  0  0  0  0
 22 20  1  0  0  0  0
 22 31  1  0  0  0  0
 23 22  2  0  0  0  0
 24 23  1  0  0  0  0
 24 25  2  0  0  0  0
 25 26  1  0  0  0  0
 26 31  2  0  0  0  0
 26 27  1  0  0  0  0
 27 28  2  0  0  0  0
 28 29  1  0  0  0  0
 29 37  1  0  0  0  0
 30 29  2  0  0  0  0
 31 30  1  0  0  0  0
 32 27  1  0  0  0  0
 32 34  2  0  0  0  0
 33 32  1  0  0  0  0
 35 33  1  0  0  0  0
 36 33  1  0  0  0  0
 37 38  1  0  0  0  0
M  END
>  <minimizedAffinity>
-8.19677353

$$$$

 OpenBabel10152419573D

 38 41  0  0  0  0  0  0  0  0999 V2000
    1.5540  -10.5850  -26.0160 C   0  0  0  0  0  2  0  0  0  0  0  0
    0.1060  -12.3550  -22.9360 C   0  0  0  0  0  0  0  0  0  0  0  0
    1.2390  -12.9580  -22.3910 C   0  0  0  0  0  3  0  0  0  0  0  0
    2.4570  -12.8660  -23.0550 C   0  0  0  0  0  3  0  0  0  0  0  0
    2.5490  -12.1340  -24.2390 C   0  0  0  0  0  3  0  0  0  0  0  0
    1.4520  -11.4180  -24.7450 C   0  0  0  0  0  0  0  0  0  0  0  0
    0.2280  -11.5440  -24.0750 C   0  0  0  0  0  3  0  0  0  0  0  0
   -1.9400  -11.7690  -21.5880 C   0  0  0  0  0  0  0  0  0  0  0  0
   -2.8440  -12.2210  -20.8880 O   0  0  0  0  0  0  0  0  0  0  0  0
   -1.1240  -12.6140  -22.3080 N   0  0  0  0  0  0  0  0  0  0  0  0
   -1.5170  -13.5430  -22.4120 H   0  0  0  0  0  0  0  0  0  0  0  0
   -1.6760   -7.5160  -22.0400 C   0  0  0  0  0  0  0  0  0  0  0  0
   -1.7890   -8.3500  -23.1580 C   0  0  0  0  0  3  0  0  0  0  0  0
   -1.8540   -9.7380  -23.0110 C   0  0  0  0  0  3  0  0  0  0  0  0
   -1.8120  -10.2970  -21.7340 C   0  0  0  0  0  0  0  0  0  0  0  0
   -1.6260   -9.4710  -20.6170 C   0  0  0  0  0  3  0  0  0  0  0  0
   -1.5740   -8.0830  -20.7690 C   0  0  0  0  0  3  0  0  0  0  0  0
   -0.5210   -5.6840  -23.0130 C   0  0  0  0  0  1  0  0  0  0  0  0
   -1.6630   -6.1780  -22.3200 O   0  0  0  0  0  0  0  0  0  0  0  0
    2.1030   -9.2620  -25.7640 N   0  0  0  0  0  0  0  0  0  0  0  0
    2.6870   -9.1280  -24.9550 H   0  0  0  0  0  0  0  0  0  0  0  0
    2.0840   -8.3220  -26.7840 C   0  0  0  0  0  0  0  0  0  0  0  0
    3.2140   -8.1880  -27.5010 N   0  0  0  0  0  0  0  0  0  0  0  0
    3.3400   -7.0810  -28.2280 C   0  0  0  0  0  3  0  0  0  0  0  0
    2.4870   -6.0550  -28.2290 N   0  0  0  0  0  0  0  0  0  0  0  0
    1.3320   -6.2050  -27.5530 C   0  0  0  0  0  0  0  0  0  0  0  0
    0.3940   -5.1680  -27.4700 C   0  0  0  0  0  0  0  0  0  0  0  0
   -0.8680   -5.3210  -26.8790 C   0  0  0  0  0  3  0  0  0  0  0  0
   -1.1750   -6.5260  -26.2820 C   0  0  0  0  0  0  0  0  0  0  0  0
   -0.2310   -7.5400  -26.2340 C   0  0  0  0  0  3  0  0  0  0  0  0
    1.0330   -7.3890  -26.8620 C   0  0  0  0  0  0  0  0  0  0  0  0
    0.7440   -3.7990  -27.8940 C   0  0  0  0  0  0  0  0  0  0  0  0
    0.1590   -2.7900  -27.1750 N   0  0  0  0  0  0  0  0  0  0  0  0
    1.4060   -3.5890  -28.8980 O   0  0  0  0  0  0  0  0  0  0  0  0
    0.3300   -1.8350  -27.4590 H   0  0  0  0  0  0  0  0  0  0  0  0
   -0.4040   -2.9630  -26.3540 H   0  0  0  0  0  0  0  0  0  0  0  0
   -2.3810   -6.7450  -25.6930 O   0  0  0  0  0  0  0  0  0  0  0  0
   -2.9640   -5.9850  -25.8660 H   0  0  0  0  0  0  0  0  0  0  0  0
  1 20  1  0  0  0  0
  1  6  1  0  0  0  0
  2  3  1  0  0  0  0
  2 10  1  0  0  0  0
  4  3  2  0  0  0  0
  5  4  1  0  0  0  0
  6  5  2  0  0  0  0
  6  7  1  0  0  0  0
  7  2  2  0  0  0  0
  8  9  2  0  0  0  0
 10  8  1  0  0  0  0
 11 10  1  0  0  0  0
 12 17  1  0  0  0  0
 13 14  1  0  0  0  0
 13 12  2  0  0  0  0
 14 15  2  0  0  0  0
 15  8  1  0  0  0  0
 15 16  1  0  0  0  0
 17 16  2  0  0  0  0
 18 19  1  0  0  0  0
 19 12  1  0  0  0  0
 20 21  1  0  0  0  0
 22 20  1  0  0  0  0
 23 22  2  0  0  0  0
 24 23  1  0  0  0  0
 25 24  2  0  0  0  0
 25 26  1  0  0  0  0
 26 27  2  0  0  0  0
 26 31  1  0  0  0  0
 27 28  1  0  0  0  0
 28 29  2  0  0  0  0
 29 30  1  0  0  0  0
 29 37  1  0  0  0  0
 31 22  1  0  0  0  0
 31 30  2  0  0  0  0
 32 27  1  0  0  0  0
 32 33  1  0  0  0  0
 33 36  1  0  0  0  0
 34 32  2  0  0  0  0
 35 33  1  0  0  0  0
 38 37  1  0  0  0  0
M  END
>  <minimizedAffinity>
-7.70726919

$$$$

 OpenBabel10152419573D

 38 41  0  0  0  0  0  0  0  0999 V2000
   -2.8240   -7.6110  -24.6580 C   0  0  0  0  0  2  0  0  0  0  0  0
   -2.2540   -9.4330  -21.3300 C   0  0  0  0  0  0  0  0  0  0  0  0
   -1.6160   -8.4530  -20.5710 C   0  0  0  0  0  3  0  0  0  0  0  0
   -1.2920   -7.2320  -21.1520 C   0  0  0  0  0  3  0  0  0  0  0  0
   -1.6480   -6.9770  -22.4760 C   0  0  0  0  0  3  0  0  0  0  0  0
   -2.3980   -7.8980  -23.2250 C   0  0  0  0  0  0  0  0  0  0  0  0
   -2.6920   -9.1330  -22.6290 C   0  0  0  0  0  3  0  0  0  0  0  0
   -2.0920  -11.9450  -21.2340 C   0  0  0  0  0  0  0  0  0  0  0  0
   -2.5380  -12.9590  -20.7020 O   0  0  0  0  0  0  0  0  0  0  0  0
   -2.4130  -10.6990  -20.7420 N   0  0  0  0  0  0  0  0  0  0  0  0
   -2.7820  -10.7340  -19.7980 H   0  0  0  0  0  0  0  0  0  0  0  0
    0.7010  -12.4610  -24.4420 C   0  0  0  0  0  0  0  0  0  0  0  0
    0.9780  -12.9590  -23.1650 C   0  0  0  0  0  3  0  0  0  0  0  0
    0.0760  -12.7730  -22.1140 C   0  0  0  0  0  3  0  0  0  0  0  0
   -1.1170  -12.0860  -22.3440 C   0  0  0  0  0  0  0  0  0  0  0  0
   -1.3630  -11.5230  -23.6040 C   0  0  0  0  0  3  0  0  0  0  0  0
   -0.4640  -11.7230  -24.6540 C   0  0  0  0  0  3  0  0  0  0  0  0
    1.3330  -12.3890  -26.7300 C   0  0  0  0  0  1  0  0  0  0  0  0
    1.6470  -12.7470  -25.3880 O   0  0  0  0  0  0  0  0  0  0  0  0
   -1.8380   -8.0650  -25.6270 N   0  0  0  0  0  0  0  0  0  0  0  0
   -2.0340   -8.8960  -26.1600 H   0  0  0  0  0  0  0  0  0  0  0  0
   -0.8330   -7.1940  -26.0190 C   0  0  0  0  0  0  0  0  0  0  0  0
   -1.2200   -6.0720  -26.6500 N   0  0  0  0  0  0  0  0  0  0  0  0
   -0.2900   -5.4110  -27.3340 C   0  0  0  0  0  3  0  0  0  0  0  0
    0.9660   -5.8190  -27.5240 N   0  0  0  0  0  0  0  0  0  0  0  0
    1.3720   -6.9150  -26.8550 C   0  0  0  0  0  0  0  0  0  0  0  0
    2.6610   -7.4370  -27.0220 C   0  0  0  0  0  0  0  0  0  0  0  0
    3.1630   -8.5010  -26.2600 C   0  0  0  0  0  3  0  0  0  0  0  0
    2.3240   -9.1170  -25.3540 C   0  0  0  0  0  0  0  0  0  0  0  0
    1.0020   -8.7120  -25.2430 C   0  0  0  0  0  3  0  0  0  0  0  0
    0.5110   -7.6130  -25.9960 C   0  0  0  0  0  0  0  0  0  0  0  0
    3.5290   -6.9660  -28.1190 C   0  0  0  0  0  0  0  0  0  0  0  0
    2.9420   -6.9150  -29.3550 N   0  0  0  0  0  0  0  0  0  0  0  0
    4.7210   -6.7630  -27.9510 O   0  0  0  0  0  0  0  0  0  0  0  0
    3.5100   -6.6450  -30.1470 H   0  0  0  0  0  0  0  0  0  0  0  0
    1.9590   -7.0990  -29.4990 H   0  0  0  0  0  0  0  0  0  0  0  0
    2.7440  -10.1530  -24.5800 O   0  0  0  0  0  0  0  0  0  0  0  0
    3.7010  -10.2780  -24.7070 H   0  0  0  0  0  0  0  0  0  0  0  0
  1  6  1  0  0  0  0
  2 10  1  0  0  0  0
  2  3  1  0  0  0  0
  4  3  2  0  0  0  0
  5  4  1  0  0  0  0
  6  7  1  0  0  0  0
  6  5  2  0  0  0  0
  7  2  2  0  0  0  0
  8 10  1  0  0  0  0
  8  9  2  0  0  0  0
 10 11  1  0  0  0  0
 12 13  1  0  0  0  0
 13 14  2  0  0  0  0
 15 14  1  0  0  0  0
 15  8  1  0  0  0  0
 16 15  2  0  0  0  0
 17 12  2  0  0  0  0
 17 16  1  0  0  0  0
 18 19  1  0  0  0  0
 19 12  1  0  0  0  0
 20  1  1  0  0  0  0
 21 20  1  0  0  0  0
 22 31  1  0  0  0  0
 22 20  1  0  0  0  0
 23 22  2  0  0  0  0
 24 23  1  0  0  0  0
 25 24  2  0  0  0  0
 25 26  1  0  0  0  0
 26 31  1  0  0  0  0
 27 26  2  0  0  0  0
 27 28  1  0  0  0  0
 28 29  2  0  0  0  0
 29 30  1  0  0  0  0
 29 37  1  0  0  0  0
 31 30  2  0  0  0  0
 32 34  2  0  0  0  0
 32 27  1  0  0  0  0
 33 32  1  0  0  0  0
 35 33  1  0  0  0  0
 36 33  1  0  0  0  0
 38 37  1  0  0  0  0
M  END
>  <minimizedAffinity>
-7.64548731

$$$$

 OpenBabel10152419573D

 38 41  0  0  0  0  0  0  0  0999 V2000
   -0.3290   -6.7350  -24.5470 C   0  0  0  0  0  2  0  0  0  0  0  0
   -1.5970   -9.4430  -22.1430 C   0  0  0  0  0  0  0  0  0  0  0  0
   -2.8730   -8.9760  -21.8290 C   0  0  0  0  0  3  0  0  0  0  0  0
   -3.2990   -7.7480  -22.3240 C   0  0  0  0  0  3  0  0  0  0  0  0
   -2.4670   -7.0120  -23.1670 C   0  0  0  0  0  3  0  0  0  0  0  0
   -1.2270   -7.5150  -23.5960 C   0  0  0  0  0  0  0  0  0  0  0  0
   -0.8050   -8.7420  -23.0660 C   0  0  0  0  0  3  0  0  0  0  0  0
   -0.6550  -11.7760  -22.0160 C   0  0  0  0  0  0  0  0  0  0  0  0
   -0.5730  -12.7880  -21.3220 O   0  0  0  0  0  0  0  0  0  0  0  0
   -1.1610  -10.6080  -21.4890 N   0  0  0  0  0  0  0  0  0  0  0  0
   -1.1720  -10.6080  -20.4750 H   0  0  0  0  0  0  0  0  0  0  0  0
    0.9670  -11.9570  -25.9770 C   0  0  0  0  0  0  0  0  0  0  0  0
    1.8040  -12.0090  -24.8570 C   0  0  0  0  0  3  0  0  0  0  0  0
    1.2760  -11.9290  -23.5660 C   0  0  0  0  0  3  0  0  0  0  0  0
   -0.1030  -11.8020  -23.3930 C   0  0  0  0  0  0  0  0  0  0  0  0
   -0.9370  -11.6770  -24.5130 C   0  0  0  0  0  3  0  0  0  0  0  0
   -0.4050  -11.7700  -25.8010 C   0  0  0  0  0  3  0  0  0  0  0  0
    2.7320  -12.9590  -27.2110 C   0  0  0  0  0  1  0  0  0  0  0  0
    1.6060  -12.0870  -27.1790 O   0  0  0  0  0  0  0  0  0  0  0  0
    0.5330   -7.6070  -25.3290 N   0  0  0  0  0  0  0  0  0  0  0  0
    0.3760   -8.6010  -25.2900 H   0  0  0  0  0  0  0  0  0  0  0  0
    1.3120   -7.0530  -26.3340 C   0  0  0  0  0  0  0  0  0  0  0  0
    0.8100   -5.9750  -26.9610 N   0  0  0  0  0  0  0  0  0  0  0  0
    1.3530   -5.6500  -28.1310 C   0  0  0  0  0  3  0  0  0  0  0  0
    2.2840   -6.3560  -28.7750 N   0  0  0  0  0  0  0  0  0  0  0  0
    2.8240   -7.4070  -28.1290 C   0  0  0  0  0  0  0  0  0  0  0  0
    3.7810   -8.2270  -28.7420 C   0  0  0  0  0  0  0  0  0  0  0  0
    4.4540   -9.2550  -28.0680 C   0  0  0  0  0  3  0  0  0  0  0  0
    4.1050   -9.5270  -26.7610 C   0  0  0  0  0  0  0  0  0  0  0  0
    3.0780   -8.8200  -26.1540 C   0  0  0  0  0  3  0  0  0  0  0  0
    2.4230   -7.7590  -26.8330 C   0  0  0  0  0  0  0  0  0  0  0  0
    4.0420   -8.1300  -30.1910 C   0  0  0  0  0  0  0  0  0  0  0  0
    3.7530   -9.2540  -30.9190 N   0  0  0  0  0  0  0  0  0  0  0  0
    4.5970   -7.1580  -30.6790 O   0  0  0  0  0  0  0  0  0  0  0  0
    3.9600   -9.2520  -31.9090 H   0  0  0  0  0  0  0  0  0  0  0  0
    3.3100  -10.0660  -30.5140 H   0  0  0  0  0  0  0  0  0  0  0  0
    4.7180  -10.5080  -26.0460 O   0  0  0  0  0  0  0  0  0  0  0  0
    5.4600  -10.8650  -26.5650 H   0  0  0  0  0  0  0  0  0  0  0  0
  1  6  1  0  0  0  0
  2  3  1  0  0  0  0
  2 10  1  0  0  0  0
  4  3  2  0  0  0  0
  5  4  1  0  0  0  0
  6  5  2  0  0  0  0
  6  7  1  0  0  0  0
  7  2  2  0  0  0  0
  8 10  1  0  0  0  0
  8  9  2  0  0  0  0
 10 11  1  0  0  0  0
 12 17  2  0  0  0  0
 12 13  1  0  0  0  0
 13 14  2  0  0  0  0
 14 15  1  0  0  0  0
 15  8  1  0  0  0  0
 16 15  2  0  0  0  0
 17 16  1  0  0  0  0
 18 19  1  0  0  0  0
 19 12  1  0  0  0  0
 20 21  1  0  0  0  0
 20  1  1  0  0  0  0
 22 20  1  0  0  0  0
 23 22  2  0  0  0  0
 24 23  1  0  0  0  0
 25 24  2  0  0  0  0
 25 26  1  0  0  0  0
 26 31  1  0  0  0  0
 27 26  2  0  0  0  0
 27 28  1  0  0  0  0
 28 29  2  0  0  0  0
 29 30  1  0  0  0  0
 29 37  1  0  0  0  0
 31 22  1  0  0  0  0
 31 30  2  0  0  0  0
 32 27  1  0  0  0  0
 33 36  1  0  0  0  0
 33 32  1  0  0  0  0
 34 32  2  0  0  0  0
 35 33  1  0  0  0  0
 38 37  1  0  0  0  0
M  END
>  <minimizedAffinity>
-7.60904741

$$$$

 OpenBabel10152419573D

 38 41  0  0  0  0  0  0  0  0999 V2000
    0.5160   -7.5730  -23.8430 C   0  0  0  0  0  2  0  0  0  0  0  0
    2.6350   -8.3980  -26.9330 C   0  0  0  0  0  0  0  0  0  0  0  0
    3.0660   -9.6930  -26.6490 C   0  0  0  0  0  3  0  0  0  0  0  0
    2.7470  -10.2750  -25.4270 C   0  0  0  0  0  3  0  0  0  0  0  0
    1.9590   -9.5780  -24.5110 C   0  0  0  0  0  3  0  0  0  0  0  0
    1.4100   -8.3230  -24.8210 C   0  0  0  0  0  0  0  0  0  0  0  0
    1.7650   -7.7440  -26.0470 C   0  0  0  0  0  3  0  0  0  0  0  0
    2.5700   -6.8020  -28.8820 C   0  0  0  0  0  0  0  0  0  0  0  0
    2.9920   -6.5870  -30.0160 O   0  0  0  0  0  0  0  0  0  0  0  0
    3.1190   -7.8040  -28.1100 N   0  0  0  0  0  0  0  0  0  0  0  0
    4.0240   -8.1080  -28.4500 H   0  0  0  0  0  0  0  0  0  0  0  0
   -0.4000   -4.2470  -27.1480 C   0  0  0  0  0  0  0  0  0  0  0  0
   -0.6600   -5.6050  -27.3600 C   0  0  0  0  0  3  0  0  0  0  0  0
    0.3020   -6.4340  -27.9450 C   0  0  0  0  0  3  0  0  0  0  0  0
    1.5370   -5.9000  -28.3160 C   0  0  0  0  0  0  0  0  0  0  0  0
    1.7730   -4.5260  -28.1700 C   0  0  0  0  0  3  0  0  0  0  0  0
    0.8130   -3.7050  -27.5740 C   0  0  0  0  0  3  0  0  0  0  0  0
   -1.1070   -2.2350  -26.1050 C   0  0  0  0  0  1  0  0  0  0  0  0
   -1.4090   -3.5590  -26.5320 O   0  0  0  0  0  0  0  0  0  0  0  0
   -0.8960   -7.8080  -24.0960 N   0  0  0  0  0  0  0  0  0  0  0  0
   -1.2430   -7.6930  -25.0350 H   0  0  0  0  0  0  0  0  0  0  0  0
   -1.6460   -8.4810  -23.1430 C   0  0  0  0  0  0  0  0  0  0  0  0
   -2.2860   -7.7230  -22.2350 N   0  0  0  0  0  0  0  0  0  0  0  0
   -2.7080   -8.3320  -21.1300 C   0  0  0  0  0  3  0  0  0  0  0  0
   -2.4650   -9.6040  -20.8070 N   0  0  0  0  0  0  0  0  0  0  0  0
   -1.8690  -10.3780  -21.7340 C   0  0  0  0  0  0  0  0  0  0  0  0
   -1.5440  -11.7150  -21.4700 C   0  0  0  0  0  0  0  0  0  0  0  0
   -1.0340  -12.5870  -22.4410 C   0  0  0  0  0  3  0  0  0  0  0  0
   -0.7660  -12.0880  -23.6990 C   0  0  0  0  0  0  0  0  0  0  0  0
   -0.9590  -10.7420  -23.9700 C   0  0  0  0  0  3  0  0  0  0  0  0
   -1.5050   -9.8730  -22.9900 C   0  0  0  0  0  0  0  0  0  0  0  0
   -1.6030  -12.2480  -20.0940 C   0  0  0  0  0  0  0  0  0  0  0  0
   -2.8540  -12.5750  -19.6410 N   0  0  0  0  0  0  0  0  0  0  0  0
   -0.6190  -12.2690  -19.3730 O   0  0  0  0  0  0  0  0  0  0  0  0
   -2.9510  -12.8990  -18.6890 H   0  0  0  0  0  0  0  0  0  0  0  0
   -3.6730  -12.5410  -20.2320 H   0  0  0  0  0  0  0  0  0  0  0  0
   -0.2720  -12.8780  -24.6910 O   0  0  0  0  0  0  0  0  0  0  0  0
   -0.2590  -13.8020  -24.3860 H   0  0  0  0  0  0  0  0  0  0  0  0
  2  3  2  0  0  0  0
  2  7  1  0  0  0  0
  3  4  1  0  0  0  0
  4  5  2  0  0  0  0
  6  5  1  0  0  0  0
  6  1  1  0  0  0  0
  7  6  2  0  0  0  0
  8 15  1  0  0  0  0
  8 10  1  0  0  0  0
  9  8  2  0  0  0  0
 10  2  1  0  0  0  0
 11 10  1  0  0  0  0
 12 19  1  0  0  0  0
 13 12  1  0  0  0  0
 14 13  2  0  0  0  0
 15 16  2  0  0  0  0
 15 14  1  0  0  0  0
 16 17  1  0  0  0  0
 17 12  2  0  0  0  0
 19 18  1  0  0  0  0
 20  1  1  0  0  0  0
 20 22  1  0  0  0  0
 21 20  1  0  0  0  0
 22 31  2  0  0  0  0
 22 23  1  0  0  0  0
 23 24  2  0  0  0  0
 24 25  1  0  0  0  0
 26 27  1  0  0  0  0
 26 25  2  0  0  0  0
 27 32  1  0  0  0  0
 28 27  2  0  0  0  0
 29 28  1  0  0  0  0
 30 29  2  0  0  0  0
 30 31  1  0  0  0  0
 31 26  1  0  0  0  0
 32 33  1  0  0  0  0
 32 34  2  0  0  0  0
 33 35  1  0  0  0  0
 36 33  1  0  0  0  0
 37 38  1  0  0  0  0
 37 29  1  0  0  0  0
M  END
>  <minimizedAffinity>
-7.33887768

$$$$

 OpenBabel10152419573D

 38 41  0  0  0  0  0  0  0  0999 V2000
    1.7230  -11.5740  -23.8950 C   0  0  0  0  0  2  0  0  0  0  0  0
   -1.3010  -10.5590  -21.7640 C   0  0  0  0  0  0  0  0  0  0  0  0
   -1.8480  -11.7970  -21.4320 C   0  0  0  0  0  3  0  0  0  0  0  0
   -1.2970  -12.9590  -21.9590 C   0  0  0  0  0  3  0  0  0  0  0  0
   -0.1720  -12.8840  -22.7810 C   0  0  0  0  0  3  0  0  0  0  0  0
    0.4710  -11.6610  -23.0320 C   0  0  0  0  0  0  0  0  0  0  0  0
   -0.1150  -10.4990  -22.5120 C   0  0  0  0  0  3  0  0  0  0  0  0
   -2.0340   -8.1510  -21.8820 C   0  0  0  0  0  0  0  0  0  0  0  0
   -2.4750   -7.2040  -21.2330 O   0  0  0  0  0  0  0  0  0  0  0  0
   -1.9930   -9.4150  -21.3320 N   0  0  0  0  0  0  0  0  0  0  0  0
   -2.5900   -9.5080  -20.5190 H   0  0  0  0  0  0  0  0  0  0  0  0
   -0.8200   -7.5460  -25.9460 C   0  0  0  0  0  0  0  0  0  0  0  0
   -0.5190   -6.6010  -24.9600 C   0  0  0  0  0  3  0  0  0  0  0  0
   -0.9330   -6.7890  -23.6380 C   0  0  0  0  0  3  0  0  0  0  0  0
   -1.6510   -7.9360  -23.2990 C   0  0  0  0  0  0  0  0  0  0  0  0
   -2.0170   -8.8490  -24.2970 C   0  0  0  0  0  3  0  0  0  0  0  0
   -1.5890   -8.6620  -25.6140 C   0  0  0  0  0  3  0  0  0  0  0  0
   -0.0370   -5.8930  -27.4590 C   0  0  0  0  0  1  0  0  0  0  0  0
   -0.3220   -7.2610  -27.1870 O   0  0  0  0  0  0  0  0  0  0  0  0
    1.4540  -10.9800  -25.1950 N   0  0  0  0  0  0  0  0  0  0  0  0
    0.5340  -11.0820  -25.5910 H   0  0  0  0  0  0  0  0  0  0  0  0
    2.3380  -10.0360  -25.6970 C   0  0  0  0  0  0  0  0  0  0  0  0
    2.3060   -8.8180  -25.1290 N   0  0  0  0  0  0  0  0  0  0  0  0
    2.8710   -7.8210  -25.8040 C   0  0  0  0  0  3  0  0  0  0  0  0
    3.3790   -7.9110  -27.0340 N   0  0  0  0  0  0  0  0  0  0  0  0
    3.4580   -9.1370  -27.5870 C   0  0  0  0  0  0  0  0  0  0  0  0
    3.9430   -9.3210  -28.8880 C   0  0  0  0  0  0  0  0  0  0  0  0
    4.1530  -10.5850  -29.4560 C   0  0  0  0  0  3  0  0  0  0  0  0
    3.7940  -11.7020  -28.7310 C   0  0  0  0  0  0  0  0  0  0  0  0
    3.1970  -11.5620  -27.4870 C   0  0  0  0  0  3  0  0  0  0  0  0
    3.0170  -10.2800  -26.9060 C   0  0  0  0  0  0  0  0  0  0  0  0
    4.1400   -8.1690  -29.7900 C   0  0  0  0  0  0  0  0  0  0  0  0
    4.5990   -7.0250  -29.1940 N   0  0  0  0  0  0  0  0  0  0  0  0
    3.7930   -8.2050  -30.9600 O   0  0  0  0  0  0  0  0  0  0  0  0
    4.7030   -6.1950  -29.7620 H   0  0  0  0  0  0  0  0  0  0  0  0
    4.8710   -6.9880  -28.2220 H   0  0  0  0  0  0  0  0  0  0  0  0
    3.9720  -12.9590  -29.2190 O   0  0  0  0  0  0  0  0  0  0  0  0
    4.4640  -12.9090  -30.0580 H   0  0  0  0  0  0  0  0  0  0  0  0
  1  6  1  0  0  0  0
  2  3  1  0  0  0  0
  2 10  1  0  0  0  0
  4  3  2  0  0  0  0
  5  4  1  0  0  0  0
  6  5  2  0  0  0  0
  6  7  1  0  0  0  0
  7  2  2  0  0  0  0
  8 10  1  0  0  0  0
  8  9  2  0  0  0  0
 10 11  1  0  0  0  0
 12 17  2  0  0  0  0
 12 13  1  0  0  0  0
 13 14  2  0  0  0  0
 14 15  1  0  0  0  0
 15  8  1  0  0  0  0
 16 15  2  0  0  0  0
 17 16  1  0  0  0  0
 18 19  1  0  0  0  0
 19 12  1  0  0  0  0
 20  1  1  0  0  0  0
 21 20  1  0  0  0  0
 22 20  1  0  0  0  0
 22 23  1  0  0  0  0
 24 23  2  0  0  0  0
 25 24  1  0  0  0  0
 26 25  2  0  0  0  0
 26 31  1  0  0  0  0
 27 26  1  0  0  0  0
 28 27  2  0  0  0  0
 28 29  1  0  0  0  0
 29 30  2  0  0  0  0
 30 31  1  0  0  0  0
 31 22  2  0  0  0  0
 32 33  1  0  0  0  0
 32 27  1  0  0  0  0
 33 36  1  0  0  0  0
 34 32  2  0  0  0  0
 35 33  1  0  0  0  0
 37 29  1  0  0  0  0
 38 37  1  0  0  0  0
M  END
>  <minimizedAffinity>
-7.29483604

$$$$
