
 OpenBabel10152418523D

 38 41  0  0  1  0  0  0  0  0999 V2000
   10.5480  -11.7120   11.9810 C   0  0  0  0  0  0  0  0  0  0  0  0
   10.3160  -11.1660   13.2460 C   0  0  0  0  0  3  0  0  0  0  0  0
   10.0390   -9.8090   13.3930 C   0  0  0  0  0  3  0  0  0  0  0  0
    9.9080   -8.9980   12.2660 C   0  0  0  0  0  3  0  0  0  0  0  0
   10.0680   -9.5290   10.9750 C   0  0  0  0  0  0  0  0  0  0  0  0
   10.4600  -10.8890   10.8480 C   0  0  0  0  0  3  0  0  0  0  0  0
   10.0900  -14.1070   12.6770 C   0  0  0  0  0  0  0  0  0  0  0  0
   10.7890  -15.0750   12.9870 O   0  0  0  0  0  0  0  0  0  0  0  0
   10.6600  -13.1130   11.9220 N   0  0  0  0  0  0  0  0  0  0  0  0
   11.4180  -13.4650   11.3510 H   0  0  0  0  0  0  0  0  0  0  0  0
    6.4320  -14.2220   12.8160 C   0  0  0  0  0  0  0  0  0  0  0  0
    7.5760  -13.6940   12.1540 C   0  0  0  0  0  3  0  0  0  0  0  0
    8.6660  -14.1280   12.8810 C   0  0  0  0  0  0  0  0  0  0  0  0
    8.1230  -14.8220   13.9300 N   0  0  0  0  0  0  0  0  0  0  0  0
    6.7850  -14.9080   13.9100 N   0  0  0  0  0  0  0  0  0  0  0  0
    8.6300  -15.3100   14.6600 H   0  0  0  0  0  0  0  0  0  0  0  0
    4.6470  -14.9130   11.2000 C   0  0  0  0  0  1  0  0  0  0  0  0
    4.9720  -14.1010   12.4600 C   0  0  0  0  0  3  0  0  0  0  0  0
    4.0310  -14.3870   13.6370 C   0  0  0  0  0  1  0  0  0  0  0  0
    9.6500   -8.7220    9.7380 C   0  0  1  0  0  3  0  0  0  0  0  0
   10.7820   -8.7160    8.7060 C   0  0  0  0  0  1  0  0  0  0  0  0
    8.4550   -9.2600    9.0860 N   0  0  0  0  0  0  0  0  0  0  0  0
    8.1960   -8.9150    8.1770 H   0  0  0  0  0  0  0  0  0  0  0  0
    8.0600  -10.5410    9.4650 C   0  0  0  0  0  0  0  0  0  0  0  0
    8.2630  -11.5280    8.5760 N   0  0  0  0  0  0  0  0  0  0  0  0
    7.4460  -12.5740    8.6550 C   0  0  0  0  0  3  0  0  0  0  0  0
    6.3830  -12.6430    9.4500 N   0  0  0  0  0  0  0  0  0  0  0  0
    6.2220  -11.6450   10.3440 C   0  0  0  0  0  0  0  0  0  0  0  0
    5.0170  -11.3870   10.9980 C   0  0  0  0  0  0  0  0  0  0  0  0
    4.9670  -10.7230   12.2310 C   0  0  0  0  0  3  0  0  0  0  0  0
    6.0620   -9.9710   12.6150 C   0  0  0  0  0  3  0  0  0  0  0  0
    7.1190   -9.8510   11.7140 C   0  0  0  0  0  3  0  0  0  0  0  0
    7.1830  -10.6740   10.5500 C   0  0  0  0  0  0  0  0  0  0  0  0
    3.9630  -10.9900   10.0130 C   0  0  0  0  0  0  0  0  0  0  0  0
    4.0940  -11.4540    8.7230 N   0  0  0  0  0  0  0  0  0  0  0  0
    2.9400  -10.4320   10.3410 O   0  0  0  0  0  0  0  0  0  0  0  0
    3.2930  -11.3360    8.1180 H   0  0  0  0  0  0  0  0  0  0  0  0
    4.8330  -12.0650    8.4140 H   0  0  0  0  0  0  0  0  0  0  0  0
  1  2  1  0  0  0  0
  2  3  2  0  0  0  0
  4  3  1  0  0  0  0
  5  4  2  0  0  0  0
  6  5  1  0  0  0  0
  6  1  2  0  0  0  0
  7 13  1  0  0  0  0
  7  8  2  0  0  0  0
  9  1  1  0  0  0  0
  9  7  1  0  0  0  0
 10  9  1  0  0  0  0
 11 15  2  0  0  0  0
 12 11  1  0  0  0  0
 12 13  2  0  0  0  0
 13 14  1  0  0  0  0
 14 16  1  0  0  0  0
 15 14  1  0  0  0  0
 17 18  1  0  0  0  0
 18 11  1  0  0  0  0
 18 19  1  0  0  0  0
 20 21  1  6  0  0  0
 20  5  1  0  0  0  0
 22 24  1  0  0  0  0
 22 20  1  0  0  0  0
 23 22  1  0  0  0  0
 24 33  1  0  0  0  0
 25 26  1  0  0  0  0
 25 24  2  0  0  0  0
 26 27  2  0  0  0  0
 27 28  1  0  0  0  0
 28 33  2  0  0  0  0
 28 29  1  0  0  0  0
 29 30  2  0  0  0  0
 30 31  1  0  0  0  0
 32 31  2  0  0  0  0
 33 32  1  0  0  0  0
 34 36  2  0  0  0  0
 34 29  1  0  0  0  0
 35 34  1  0  0  0  0
 37 35  1  0  0  0  0
 38 35  1  0  0  0  0
M  END
>  <minimizedAffinity>
10.1149778

$$$$
