
 OpenBabel10152419463D

 37 40  0  0  1  0  0  0  0  0999 V2000
    2.7570   -8.6230  -26.2380 C   0  0  2  0  0  3  0  0  0  0  0  0
    3.5830   -8.2650  -27.4780 C   0  0  0  0  0  1  0  0  0  0  0  0
    1.8110  -12.0960  -24.9060 C   0  0  0  0  0  0  0  0  0  0  0  0
    2.9360  -12.8440  -25.2570 C   0  0  0  0  0  3  0  0  0  0  0  0
    3.9490  -12.2700  -26.0250 C   0  0  0  0  0  3  0  0  0  0  0  0
    3.8810  -10.9230  -26.3770 C   0  0  0  0  0  3  0  0  0  0  0  0
    2.7950  -10.1310  -25.9710 C   0  0  0  0  0  0  0  0  0  0  0  0
    1.7320  -10.7500  -25.2790 C   0  0  0  0  0  3  0  0  0  0  0  0
    0.0370  -12.1270  -23.1320 C   0  0  0  0  0  0  0  0  0  0  0  0
   -0.2420  -12.7140  -22.0900 O   0  0  0  0  0  0  0  0  0  0  0  0
    0.8610  -12.7060  -24.0680 N   0  0  0  0  0  0  0  0  0  0  0  0
    0.8820  -13.7180  -24.0200 H   0  0  0  0  0  0  0  0  0  0  0  0
   -2.3310   -8.7110  -23.9090 C   0  0  0  0  0  0  0  0  0  0  0  0
   -2.0490   -9.5660  -24.9670 C   0  0  0  0  0  3  0  0  0  0  0  0
   -1.2100  -10.6610  -24.7480 C   0  0  0  0  0  3  0  0  0  0  0  0
   -0.6890  -10.8840  -23.4730 C   0  0  0  0  0  0  0  0  0  0  0  0
   -1.0460   -9.9980  -22.4700 C   0  0  0  0  0  3  0  0  0  0  0  0
   -1.8330   -8.9100  -22.6690 N   0  0  0  0  0  0  0  0  0  0  0  0
   -4.3030   -7.6530  -23.1420 C   0  0  0  0  0  1  0  0  0  0  0  0
   -3.1590   -7.6290  -23.9880 O   0  0  0  0  0  0  0  0  0  0  0  0
    1.3880   -8.1570  -26.4210 N   0  0  0  0  0  0  0  0  0  0  0  0
    0.6760   -8.7990  -26.7240 H   0  0  0  0  0  0  0  0  0  0  0  0
    1.0460   -6.9730  -25.7750 C   0  0  0  0  0  0  0  0  0  0  0  0
    0.5790   -7.0940  -24.5210 N   0  0  0  0  0  0  0  0  0  0  0  0
   -0.0980   -6.0600  -24.0340 C   0  0  0  0  0  3  0  0  0  0  0  0
   -0.4250   -4.9630  -24.7180 N   0  0  0  0  0  0  0  0  0  0  0  0
    0.0830   -4.8260  -25.9550 C   0  0  0  0  0  0  0  0  0  0  0  0
   -0.2680   -3.7500  -26.7730 C   0  0  0  0  0  0  0  0  0  0  0  0
    0.3180   -3.5060  -28.0230 C   0  0  0  0  0  3  0  0  0  0  0  0
    1.2590   -4.3950  -28.5130 C   0  0  0  0  0  3  0  0  0  0  0  0
    1.5360   -5.5480  -27.7830 C   0  0  0  0  0  3  0  0  0  0  0  0
    0.9340   -5.7830  -26.5140 C   0  0  0  0  0  0  0  0  0  0  0  0
   -1.4590   -2.9570  -26.4270 C   0  0  0  0  0  0  0  0  0  0  0  0
   -1.2450   -2.0470  -25.4230 N   0  0  0  0  0  0  0  0  0  0  0  0
   -2.5500   -3.1320  -26.9440 O   0  0  0  0  0  0  0  0  0  0  0  0
   -2.0210   -1.4870  -25.1030 H   0  0  0  0  0  0  0  0  0  0  0  0
   -0.3330   -1.9060  -25.0070 H   0  0  0  0  0  0  0  0  0  0  0  0
  1  2  1  6  0  0  0
  1  7  1  0  0  0  0
  3 11  1  0  0  0  0
  4  3  1  0  0  0  0
  5  4  2  0  0  0  0
  6  5  1  0  0  0  0
  6  7  2  0  0  0  0
  7  8  1  0  0  0  0
  8  3  2  0  0  0  0
  9 10  2  0  0  0  0
 11 12  1  0  0  0  0
 11  9  1  0  0  0  0
 13 18  2  0  0  0  0
 14 15  2  0  0  0  0
 14 13  1  0  0  0  0
 15 16  1  0  0  0  0
 16  9  1  0  0  0  0
 16 17  2  0  0  0  0
 18 17  1  0  0  0  0
 20 13  1  0  0  0  0
 20 19  1  0  0  0  0
 21  1  1  0  0  0  0
 21 23  1  0  0  0  0
 22 21  1  0  0  0  0
 23 24  1  0  0  0  0
 24 25  2  0  0  0  0
 26 25  1  0  0  0  0
 27 26  2  0  0  0  0
 28 33  1  0  0  0  0
 28 27  1  0  0  0  0
 29 28  2  0  0  0  0
 30 29  1  0  0  0  0
 30 31  2  0  0  0  0
 31 32  1  0  0  0  0
 32 27  1  0  0  0  0
 32 23  2  0  0  0  0
 33 34  1  0  0  0  0
 34 36  1  0  0  0  0
 34 37  1  0  0  0  0
 35 33  2  0  0  0  0
M  END
>  <minimizedAffinity>
-8.54775524

$$$$
