
 OpenBabel10152419463D

 37 40  0  0  1  0  0  0  0  0999 V2000
    2.8690   -7.7080  -27.0480 C   0  0  2  0  0  3  0  0  0  0  0  0
    4.0820   -6.7830  -27.1890 C   0  0  0  0  0  1  0  0  0  0  0  0
    3.6940  -11.4460  -26.7660 C   0  0  0  0  0  0  0  0  0  0  0  0
    4.1040  -11.7380  -28.0670 C   0  0  0  0  0  3  0  0  0  0  0  0
    4.0060  -10.7730  -29.0680 C   0  0  0  0  0  3  0  0  0  0  0  0
    3.5730   -9.4840  -28.7560 C   0  0  0  0  0  3  0  0  0  0  0  0
    3.2270   -9.1450  -27.4380 C   0  0  0  0  0  0  0  0  0  0  0  0
    3.2390  -10.1590  -26.4570 C   0  0  0  0  0  3  0  0  0  0  0  0
    3.4290  -12.4680  -24.4900 C   0  0  0  0  0  0  0  0  0  0  0  0
    4.1100  -12.9590  -23.5930 O   0  0  0  0  0  0  0  0  0  0  0  0
    3.8890  -12.4340  -25.7850 N   0  0  0  0  0  0  0  0  0  0  0  0
    4.5820  -13.1450  -25.9890 H   0  0  0  0  0  0  0  0  0  0  0  0
   -0.5220  -11.5140  -23.3210 C   0  0  0  0  0  0  0  0  0  0  0  0
   -0.3220  -12.6630  -24.0760 C   0  0  0  0  0  3  0  0  0  0  0  0
    0.9650  -12.9580  -24.5330 C   0  0  0  0  0  3  0  0  0  0  0  0
    2.0220  -12.1080  -24.2080 C   0  0  0  0  0  0  0  0  0  0  0  0
    1.7390  -11.0010  -23.4270 C   0  0  0  0  0  3  0  0  0  0  0  0
    0.4910  -10.6770  -23.0000 N   0  0  0  0  0  0  0  0  0  0  0  0
   -1.8620  -11.2910  -21.3850 C   0  0  0  0  0  1  0  0  0  0  0  0
   -1.7210  -11.1340  -22.7920 O   0  0  0  0  0  0  0  0  0  0  0  0
    1.7770   -7.1980  -27.8690 N   0  0  0  0  0  0  0  0  0  0  0  0
    1.7060   -7.4700  -28.8340 H   0  0  0  0  0  0  0  0  0  0  0  0
    0.6680   -6.7070  -27.1870 C   0  0  0  0  0  0  0  0  0  0  0  0
    0.7030   -5.4050  -26.8560 N   0  0  0  0  0  0  0  0  0  0  0  0
   -0.1310   -5.0100  -25.9000 C   0  0  0  0  0  3  0  0  0  0  0  0
   -0.9240   -5.8130  -25.1900 N   0  0  0  0  0  0  0  0  0  0  0  0
   -0.9910   -7.1050  -25.5560 C   0  0  0  0  0  0  0  0  0  0  0  0
   -1.7320   -8.0340  -24.8230 C   0  0  0  0  0  0  0  0  0  0  0  0
   -1.9210   -9.3640  -25.2260 C   0  0  0  0  0  3  0  0  0  0  0  0
   -1.3050   -9.8130  -26.3810 C   0  0  0  0  0  3  0  0  0  0  0  0
   -0.4520   -8.9500  -27.0650 C   0  0  0  0  0  3  0  0  0  0  0  0
   -0.2710   -7.6020  -26.6450 C   0  0  0  0  0  0  0  0  0  0  0  0
   -2.1520   -7.6840  -23.4570 C   0  0  0  0  0  0  0  0  0  0  0  0
   -1.1750   -7.8740  -22.5130 N   0  0  0  0  0  0  0  0  0  0  0  0
   -3.2810   -7.3140  -23.1780 O   0  0  0  0  0  0  0  0  0  0  0  0
   -1.3930   -7.6890  -21.5450 H   0  0  0  0  0  0  0  0  0  0  0  0
   -0.2390   -8.1740  -22.7570 H   0  0  0  0  0  0  0  0  0  0  0  0
  1  2  1  6  0  0  0
  3  8  1  0  0  0  0
  3 11  1  0  0  0  0
  4  3  2  0  0  0  0
  5  6  2  0  0  0  0
  5  4  1  0  0  0  0
  6  7  1  0  0  0  0
  7  1  1  0  0  0  0
  7  8  2  0  0  0  0
  9 16  1  0  0  0  0
  9 10  2  0  0  0  0
 11  9  1  0  0  0  0
 12 11  1  0  0  0  0
 13 18  2  0  0  0  0
 13 20  1  0  0  0  0
 14 13  1  0  0  0  0
 15 16  1  0  0  0  0
 15 14  2  0  0  0  0
 16 17  2  0  0  0  0
 17 18  1  0  0  0  0
 20 19  1  0  0  0  0
 21 23  1  0  0  0  0
 21  1  1  0  0  0  0
 22 21  1  0  0  0  0
 23 24  2  0  0  0  0
 23 32  1  0  0  0  0
 24 25  1  0  0  0  0
 25 26  2  0  0  0  0
 27 26  1  0  0  0  0
 27 28  1  0  0  0  0
 28 33  1  0  0  0  0
 29 28  2  0  0  0  0
 30 29  1  0  0  0  0
 31 32  1  0  0  0  0
 31 30  2  0  0  0  0
 32 27  2  0  0  0  0
 33 35  2  0  0  0  0
 33 34  1  0  0  0  0
 34 36  1  0  0  0  0
 37 34  1  0  0  0  0
M  END
>  <minimizedAffinity>
-8.4017849

$$$$
