
 OpenBabel10152419463D

 37 40  0  0  1  0  0  0  0  0999 V2000
   -1.3250   -8.1070  -25.5700 C   0  0  2  0  0  3  0  0  0  0  0  0
   -1.3070   -9.3910  -26.4060 C   0  0  0  0  0  1  0  0  0  0  0  0
    1.2800   -6.2400  -27.6830 C   0  0  0  0  0  0  0  0  0  0  0  0
    0.9330   -4.9100  -27.4390 C   0  0  0  0  0  3  0  0  0  0  0  0
   -0.2070   -4.6070  -26.6950 C   0  0  0  0  0  3  0  0  0  0  0  0
   -0.9610   -5.6310  -26.1220 C   0  0  0  0  0  3  0  0  0  0  0  0
   -0.5880   -6.9740  -26.2900 C   0  0  0  0  0  0  0  0  0  0  0  0
    0.5110   -7.2680  -27.1270 C   0  0  0  0  0  3  0  0  0  0  0  0
    3.5990   -7.1580  -27.9490 C   0  0  0  0  0  0  0  0  0  0  0  0
    4.7210   -6.7960  -28.2940 O   0  0  0  0  0  0  0  0  0  0  0  0
    2.4800   -6.4820  -28.3740 N   0  0  0  0  0  0  0  0  0  0  0  0
    2.6180   -5.9690  -29.2370 H   0  0  0  0  0  0  0  0  0  0  0  0
    2.8670  -10.9270  -26.1780 C   0  0  0  0  0  0  0  0  0  0  0  0
    2.6130   -9.7890  -25.4230 C   0  0  0  0  0  3  0  0  0  0  0  0
    2.9150   -8.5370  -25.9630 C   0  0  0  0  0  3  0  0  0  0  0  0
    3.4460   -8.4520  -27.2510 C   0  0  0  0  0  0  0  0  0  0  0  0
    3.6400   -9.6350  -27.9440 C   0  0  0  0  0  3  0  0  0  0  0  0
    3.3840  -10.8640  -27.4260 N   0  0  0  0  0  0  0  0  0  0  0  0
    3.1990  -12.6250  -24.5640 C   0  0  0  0  0  1  0  0  0  0  0  0
    2.5870  -12.2010  -25.7770 O   0  0  0  0  0  0  0  0  0  0  0  0
   -0.7300   -8.3730  -24.2660 N   0  0  0  0  0  0  0  0  0  0  0  0
    0.0700   -7.8460  -23.9620 H   0  0  0  0  0  0  0  0  0  0  0  0
   -1.5340   -9.0350  -23.3430 C   0  0  0  0  0  0  0  0  0  0  0  0
   -2.3240   -8.2600  -22.5800 N   0  0  0  0  0  0  0  0  0  0  0  0
   -2.7960   -8.8050  -21.4640 C   0  0  0  0  0  3  0  0  0  0  0  0
   -2.4760  -10.0150  -21.0030 N   0  0  0  0  0  0  0  0  0  0  0  0
   -1.7260  -10.8030  -21.7920 C   0  0  0  0  0  0  0  0  0  0  0  0
   -1.2780  -12.0530  -21.3590 C   0  0  0  0  0  0  0  0  0  0  0  0
   -0.5870  -12.9540  -22.1820 C   0  0  0  0  0  3  0  0  0  0  0  0
   -0.2780  -12.5840  -23.4800 C   0  0  0  0  0  3  0  0  0  0  0  0
   -0.5940  -11.2940  -23.9020 C   0  0  0  0  0  3  0  0  0  0  0  0
   -1.2960  -10.3900  -23.0550 C   0  0  0  0  0  0  0  0  0  0  0  0
   -1.3230  -12.3620  -19.9210 C   0  0  0  0  0  0  0  0  0  0  0  0
   -2.5800  -12.6610  -19.4600 N   0  0  0  0  0  0  0  0  0  0  0  0
   -0.3460  -12.3030  -19.1940 O   0  0  0  0  0  0  0  0  0  0  0  0
   -2.7030  -12.8520  -18.4760 H   0  0  0  0  0  0  0  0  0  0  0  0
   -3.3830  -12.7150  -20.0740 H   0  0  0  0  0  0  0  0  0  0  0  0
  1  2  1  6  0  0  0
  1 21  1  0  0  0  0
  3  4  2  0  0  0  0
  3  8  1  0  0  0  0
  4  5  1  0  0  0  0
  5  6  2  0  0  0  0
  7  6  1  0  0  0  0
  7  1  1  0  0  0  0
  8  7  2  0  0  0  0
  9 16  1  0  0  0  0
 10  9  2  0  0  0  0
 11  9  1  0  0  0  0
 11  3  1  0  0  0  0
 12 11  1  0  0  0  0
 13 20  1  0  0  0  0
 13 14  1  0  0  0  0
 15 14  2  0  0  0  0
 16 15  1  0  0  0  0
 17 18  1  0  0  0  0
 17 16  2  0  0  0  0
 18 13  2  0  0  0  0
 20 19  1  0  0  0  0
 21 22  1  0  0  0  0
 21 23  1  0  0  0  0
 23 32  2  0  0  0  0
 23 24  1  0  0  0  0
 24 25  2  0  0  0  0
 25 26  1  0  0  0  0
 27 28  1  0  0  0  0
 27 26  2  0  0  0  0
 28 33  1  0  0  0  0
 29 28  2  0  0  0  0
 30 29  1  0  0  0  0
 31 30  2  0  0  0  0
 31 32  1  0  0  0  0
 32 27  1  0  0  0  0
 33 34  1  0  0  0  0
 33 35  2  0  0  0  0
 34 36  1  0  0  0  0
 37 34  1  0  0  0  0
M  END
>  <minimizedAffinity>
-10.1439886

$$$$
