
 OpenBabel10152419463D

 37 40  0  0  1  0  0  0  0  0999 V2000
    1.9430  -12.1030  -24.6830 C   0  0  2  0  0  3  0  0  0  0  0  0
    1.8410  -10.8610  -23.7930 C   0  0  0  0  0  1  0  0  0  0  0  0
    4.0510  -10.2350  -27.2900 C   0  0  0  0  0  0  0  0  0  0  0  0
    3.9350  -11.0780  -28.3970 C   0  0  0  0  0  3  0  0  0  0  0  0
    3.2830  -12.3040  -28.2790 C   0  0  0  0  0  3  0  0  0  0  0  0
    2.6720  -12.6590  -27.0770 C   0  0  0  0  0  3  0  0  0  0  0  0
    2.7100  -11.7930  -25.9720 C   0  0  0  0  0  0  0  0  0  0  0  0
    3.4580  -10.6010  -26.0770 C   0  0  0  0  0  3  0  0  0  0  0  0
    4.0850   -7.8130  -27.9420 C   0  0  0  0  0  0  0  0  0  0  0  0
    4.7210   -7.0370  -28.6520 O   0  0  0  0  0  0  0  0  0  0  0  0
    4.6530   -8.9800  -27.4900 N   0  0  0  0  0  0  0  0  0  0  0  0
    5.6650   -8.9510  -27.4500 H   0  0  0  0  0  0  0  0  0  0  0  0
    0.5010   -6.2370  -26.3450 C   0  0  0  0  0  0  0  0  0  0  0  0
    1.2080   -7.1580  -25.5820 C   0  0  0  0  0  3  0  0  0  0  0  0
    2.3560   -7.7440  -26.1200 C   0  0  0  0  0  3  0  0  0  0  0  0
    2.7790   -7.3820  -27.3990 C   0  0  0  0  0  0  0  0  0  0  0  0
    2.0300   -6.4350  -28.0780 C   0  0  0  0  0  3  0  0  0  0  0  0
    0.8930   -5.8770  -27.5870 N   0  0  0  0  0  0  0  0  0  0  0  0
   -0.8620   -4.3120  -26.5310 C   0  0  0  0  0  1  0  0  0  0  0  0
   -0.6140   -5.5730  -25.9200 O   0  0  0  0  0  0  0  0  0  0  0  0
    0.6020  -12.5960  -24.9770 N   0  0  0  0  0  0  0  0  0  0  0  0
    0.3650  -13.5530  -24.7830 H   0  0  0  0  0  0  0  0  0  0  0  0
   -0.3940  -11.6340  -25.1160 C   0  0  0  0  0  0  0  0  0  0  0  0
   -0.5290  -11.0920  -26.3380 N   0  0  0  0  0  0  0  0  0  0  0  0
   -1.1820   -9.9370  -26.4090 C   0  0  0  0  0  3  0  0  0  0  0  0
   -1.6240   -9.2370  -25.3640 N   0  0  0  0  0  0  0  0  0  0  0  0
   -1.5290   -9.8050  -24.1490 C   0  0  0  0  0  0  0  0  0  0  0  0
   -1.8950   -9.1160  -22.9910 C   0  0  0  0  0  0  0  0  0  0  0  0
   -1.9160   -9.7020  -21.7170 C   0  0  0  0  0  3  0  0  0  0  0  0
   -1.5080  -11.0160  -21.5710 C   0  0  0  0  0  3  0  0  0  0  0  0
   -1.0120  -11.6920  -22.6840 C   0  0  0  0  0  3  0  0  0  0  0  0
   -0.9970  -11.0850  -23.9710 C   0  0  0  0  0  0  0  0  0  0  0  0
   -2.0480   -7.6540  -23.0560 C   0  0  0  0  0  0  0  0  0  0  0  0
   -0.8650   -6.9690  -22.9450 N   0  0  0  0  0  0  0  0  0  0  0  0
   -3.1310   -7.0990  -23.1430 O   0  0  0  0  0  0  0  0  0  0  0  0
   -0.8870   -5.9590  -22.9460 H   0  0  0  0  0  0  0  0  0  0  0  0
    0.0280   -7.4400  -22.8810 H   0  0  0  0  0  0  0  0  0  0  0  0
  1  2  1  1  0  0  0
  3  8  1  0  0  0  0
  4  5  1  0  0  0  0
  4  3  2  0  0  0  0
  5  6  2  0  0  0  0
  6  7  1  0  0  0  0
  7  1  1  0  0  0  0
  8  7  2  0  0  0  0
  9 11  1  0  0  0  0
  9 16  1  0  0  0  0
 10  9  2  0  0  0  0
 11 12  1  0  0  0  0
 11  3  1  0  0  0  0
 13 20  1  0  0  0  0
 13 14  1  0  0  0  0
 15 14  2  0  0  0  0
 16 15  1  0  0  0  0
 17 18  1  0  0  0  0
 17 16  2  0  0  0  0
 18 13  2  0  0  0  0
 19 20  1  0  0  0  0
 21 22  1  0  0  0  0
 21  1  1  0  0  0  0
 23 21  1  0  0  0  0
 23 32  1  0  0  0  0
 24 23  2  0  0  0  0
 25 24  1  0  0  0  0
 25 26  2  0  0  0  0
 26 27  1  0  0  0  0
 27 32  2  0  0  0  0
 27 28  1  0  0  0  0
 28 29  2  0  0  0  0
 29 30  1  0  0  0  0
 31 30  2  0  0  0  0
 32 31  1  0  0  0  0
 33 28  1  0  0  0  0
 33 34  1  0  0  0  0
 34 37  1  0  0  0  0
 35 33  2  0  0  0  0
 36 34  1  0  0  0  0
M  END
>  <minimizedAffinity>
-9.12416649

$$$$
