
 OpenBabel10152419463D

 37 40  0  0  1  0  0  0  0  0999 V2000
    0.2560  -11.8670  -25.3850 C   0  0  2  0  0  3  0  0  0  0  0  0
   -0.1100  -10.9210  -26.5330 C   0  0  0  0  0  1  0  0  0  0  0  0
   -1.6060   -9.7010  -22.8210 C   0  0  0  0  0  0  0  0  0  0  0  0
   -1.3250  -10.3760  -21.6320 C   0  0  0  0  0  3  0  0  0  0  0  0
   -0.6410  -11.5900  -21.6590 C   0  0  0  0  0  3  0  0  0  0  0  0
   -0.1620  -12.0970  -22.8670 C   0  0  0  0  0  3  0  0  0  0  0  0
   -0.3660  -11.3970  -24.0660 C   0  0  0  0  0  0  0  0  0  0  0  0
   -1.1450  -10.2200  -24.0360 C   0  0  0  0  0  3  0  0  0  0  0  0
   -1.7440   -7.2090  -23.0750 C   0  0  0  0  0  0  0  0  0  0  0  0
   -2.0310   -6.2100  -22.4200 O   0  0  0  0  0  0  0  0  0  0  0  0
   -2.2310   -8.4460  -22.7240 N   0  0  0  0  0  0  0  0  0  0  0  0
   -3.0890   -8.4070  -22.1850 H   0  0  0  0  0  0  0  0  0  0  0  0
    0.1050   -6.3850  -26.7870 C   0  0  0  0  0  0  0  0  0  0  0  0
   -0.9300   -7.3110  -26.7630 C   0  0  0  0  0  3  0  0  0  0  0  0
   -1.5070   -7.6500  -25.5370 C   0  0  0  0  0  3  0  0  0  0  0  0
   -1.0470   -7.0430  -24.3690 C   0  0  0  0  0  0  0  0  0  0  0  0
   -0.0300   -6.1100  -24.4870 C   0  0  0  0  0  3  0  0  0  0  0  0
    0.5660   -5.7890  -25.6640 N   0  0  0  0  0  0  0  0  0  0  0  0
    0.9240   -4.5420  -28.0240 C   0  0  0  0  0  1  0  0  0  0  0  0
    0.7270   -5.9480  -27.9210 O   0  0  0  0  0  0  0  0  0  0  0  0
    1.7080  -11.9550  -25.2780 N   0  0  0  0  0  0  0  0  0  0  0  0
    2.1670  -12.8420  -25.3910 H   0  0  0  0  0  0  0  0  0  0  0  0
    2.4130  -10.7660  -25.4400 C   0  0  0  0  0  0  0  0  0  0  0  0
    2.0930   -9.7670  -24.6010 N   0  0  0  0  0  0  0  0  0  0  0  0
    2.4560   -8.5420  -24.9670 C   0  0  0  0  0  3  0  0  0  0  0  0
    3.0210   -8.2220  -26.1310 N   0  0  0  0  0  0  0  0  0  0  0  0
    3.3820   -9.2290  -26.9460 C   0  0  0  0  0  0  0  0  0  0  0  0
    3.9080   -8.9860  -28.2160 C   0  0  0  0  0  0  0  0  0  0  0  0
    4.3980   -9.9970  -29.0550 C   0  0  0  0  0  3  0  0  0  0  0  0
    4.3180  -11.3160  -28.6430 C   0  0  0  0  0  3  0  0  0  0  0  0
    3.6800  -11.6040  -27.4390 C   0  0  0  0  0  3  0  0  0  0  0  0
    3.1870  -10.5670  -26.5970 C   0  0  0  0  0  0  0  0  0  0  0  0
    3.7420   -7.6490  -28.8080 C   0  0  0  0  0  0  0  0  0  0  0  0
    4.3810   -6.6540  -28.1120 N   0  0  0  0  0  0  0  0  0  0  0  0
    3.0540   -7.4350  -29.7920 O   0  0  0  0  0  0  0  0  0  0  0  0
    4.2880   -5.7010  -28.4330 H   0  0  0  0  0  0  0  0  0  0  0  0
    4.9550   -6.8450  -27.3010 H   0  0  0  0  0  0  0  0  0  0  0  0
  1  2  1  6  0  0  0
  1 21  1  0  0  0  0
  1  7  1  0  0  0  0
  3 11  1  0  0  0  0
  3  4  1  0  0  0  0
  5  4  2  0  0  0  0
  6  5  1  0  0  0  0
  7  8  1  0  0  0  0
  7  6  2  0  0  0  0
  8  3  2  0  0  0  0
  9 11  1  0  0  0  0
  9 10  2  0  0  0  0
 11 12  1  0  0  0  0
 13 14  1  0  0  0  0
 13 18  2  0  0  0  0
 14 15  2  0  0  0  0
 15 16  1  0  0  0  0
 16  9  1  0  0  0  0
 17 16  2  0  0  0  0
 18 17  1  0  0  0  0
 19 20  1  0  0  0  0
 20 13  1  0  0  0  0
 22 21  1  0  0  0  0
 23 21  1  0  0  0  0
 23 24  1  0  0  0  0
 25 24  2  0  0  0  0
 26 25  1  0  0  0  0
 27 32  1  0  0  0  0
 27 26  2  0  0  0  0
 28 27  1  0  0  0  0
 29 30  1  0  0  0  0
 29 28  2  0  0  0  0
 30 31  2  0  0  0  0
 31 32  1  0  0  0  0
 32 23  2  0  0  0  0
 33 28  1  0  0  0  0
 33 34  1  0  0  0  0
 34 37  1  0  0  0  0
 35 33  2  0  0  0  0
 36 34  1  0  0  0  0
M  END
>  <minimizedAffinity>
-8.76076508

$$$$
