
 OpenBabel10152419463D

 37 40  0  0  1  0  0  0  0  0999 V2000
    1.9850  -12.2470  -25.5630 C   0  0  2  0  0  3  0  0  0  0  0  0
    3.0910  -12.9570  -24.7770 C   0  0  0  0  0  1  0  0  0  0  0  0
    2.6620   -8.5780  -26.4620 C   0  0  0  0  0  0  0  0  0  0  0  0
    2.5870   -7.9670  -25.2090 C   0  0  0  0  0  3  0  0  0  0  0  0
    2.2030   -8.7050  -24.0910 C   0  0  0  0  0  3  0  0  0  0  0  0
    1.9690  -10.0750  -24.2030 C   0  0  0  0  0  3  0  0  0  0  0  0
    2.1130  -10.7260  -25.4390 C   0  0  0  0  0  0  0  0  0  0  0  0
    2.4070   -9.9490  -26.5790 C   0  0  0  0  0  3  0  0  0  0  0  0
    2.4080   -7.0680  -28.4490 C   0  0  0  0  0  0  0  0  0  0  0  0
    2.7770   -6.9790  -29.6180 O   0  0  0  0  0  0  0  0  0  0  0  0
    3.1290   -7.8010  -27.5370 N   0  0  0  0  0  0  0  0  0  0  0  0
    4.1070   -7.9070  -27.7820 H   0  0  0  0  0  0  0  0  0  0  0  0
   -0.5310   -4.5000  -26.8210 C   0  0  0  0  0  0  0  0  0  0  0  0
   -0.7470   -5.8700  -26.7500 C   0  0  0  0  0  3  0  0  0  0  0  0
    0.1760   -6.7340  -27.3440 C   0  0  0  0  0  3  0  0  0  0  0  0
    1.3010   -6.2070  -27.9790 C   0  0  0  0  0  0  0  0  0  0  0  0
    1.4530   -4.8310  -27.9780 C   0  0  0  0  0  3  0  0  0  0  0  0
    0.5520   -3.9720  -27.4350 N   0  0  0  0  0  0  0  0  0  0  0  0
   -0.9510   -2.2020  -26.4470 C   0  0  0  0  0  1  0  0  0  0  0  0
   -1.3390   -3.5580  -26.2540 O   0  0  0  0  0  0  0  0  0  0  0  0
    0.6850  -12.7040  -25.0850 N   0  0  0  0  0  0  0  0  0  0  0  0
    0.6300  -13.4740  -24.4400 H   0  0  0  0  0  0  0  0  0  0  0  0
   -0.3700  -11.8060  -25.2070 C   0  0  0  0  0  0  0  0  0  0  0  0
   -0.6150  -11.3430  -26.4450 N   0  0  0  0  0  0  0  0  0  0  0  0
   -1.3350  -10.2300  -26.5330 C   0  0  0  0  0  3  0  0  0  0  0  0
   -1.7470   -9.4950  -25.4990 N   0  0  0  0  0  0  0  0  0  0  0  0
   -1.5410   -9.9860  -24.2650 C   0  0  0  0  0  0  0  0  0  0  0  0
   -1.8680   -9.2510  -23.1240 C   0  0  0  0  0  0  0  0  0  0  0  0
   -1.7740   -9.7630  -21.8220 C   0  0  0  0  0  3  0  0  0  0  0  0
   -1.2840  -11.0440  -21.6330 C   0  0  0  0  0  3  0  0  0  0  0  0
   -0.8250  -11.7550  -22.7390 C   0  0  0  0  0  3  0  0  0  0  0  0
   -0.9280  -11.2240  -24.0550 C   0  0  0  0  0  0  0  0  0  0  0  0
   -2.1080   -7.8060  -23.2570 C   0  0  0  0  0  0  0  0  0  0  0  0
   -0.9610   -7.0530  -23.2590 N   0  0  0  0  0  0  0  0  0  0  0  0
   -3.2240   -7.3150  -23.3050 O   0  0  0  0  0  0  0  0  0  0  0  0
   -1.0400   -6.0490  -23.3130 H   0  0  0  0  0  0  0  0  0  0  0  0
   -0.0400   -7.4720  -23.2270 H   0  0  0  0  0  0  0  0  0  0  0  0
  1  7  1  0  0  0  0
  1 21  1  0  0  0  0
  1  2  1  1  0  0  0
  3  4  1  0  0  0  0
  4  5  2  0  0  0  0
  6  5  1  0  0  0  0
  7  6  2  0  0  0  0
  8  3  2  0  0  0  0
  8  7  1  0  0  0  0
  9 16  1  0  0  0  0
  9 11  1  0  0  0  0
 10  9  2  0  0  0  0
 11  3  1  0  0  0  0
 12 11  1  0  0  0  0
 13 14  1  0  0  0  0
 13 20  1  0  0  0  0
 15 14  2  0  0  0  0
 16 17  2  0  0  0  0
 16 15  1  0  0  0  0
 17 18  1  0  0  0  0
 18 13  2  0  0  0  0
 19 20  1  0  0  0  0
 21 22  1  0  0  0  0
 23 21  1  0  0  0  0
 23 32  1  0  0  0  0
 24 23  2  0  0  0  0
 25 24  1  0  0  0  0
 25 26  2  0  0  0  0
 26 27  1  0  0  0  0
 27 32  2  0  0  0  0
 27 28  1  0  0  0  0
 28 29  2  0  0  0  0
 29 30  1  0  0  0  0
 31 30  2  0  0  0  0
 32 31  1  0  0  0  0
 33 28  1  0  0  0  0
 34 33  1  0  0  0  0
 34 37  1  0  0  0  0
 35 33  2  0  0  0  0
 36 34  1  0  0  0  0
M  END
>  <minimizedAffinity>
-9.00747108

$$$$
