
 OpenBabel10152419463D

 37 40  0  0  1  0  0  0  0  0999 V2000
    1.5600  -11.3580  -26.3880 C   0  0  2  0  0  3  0  0  0  0  0  0
    0.3600  -10.4910  -26.7830 C   0  0  0  0  0  1  0  0  0  0  0  0
   -0.1600  -12.5530  -23.1710 C   0  0  0  0  0  0  0  0  0  0  0  0
    0.9340  -12.9560  -22.4050 C   0  0  0  0  0  3  0  0  0  0  0  0
    2.2150  -12.9580  -22.9560 C   0  0  0  0  0  3  0  0  0  0  0  0
    2.4200  -12.4820  -24.2500 C   0  0  0  0  0  3  0  0  0  0  0  0
    1.3440  -12.0000  -25.0140 C   0  0  0  0  0  0  0  0  0  0  0  0
    0.0420  -12.0960  -24.4780 C   0  0  0  0  0  3  0  0  0  0  0  0
   -1.8960  -11.5620  -21.6560 C   0  0  0  0  0  0  0  0  0  0  0  0
   -2.6370  -11.8880  -20.7320 O   0  0  0  0  0  0  0  0  0  0  0  0
   -1.4140  -12.5000  -22.5370 N   0  0  0  0  0  0  0  0  0  0  0  0
   -1.9910  -13.3310  -22.6020 H   0  0  0  0  0  0  0  0  0  0  0  0
   -1.6880   -7.3970  -22.3620 C   0  0  0  0  0  0  0  0  0  0  0  0
   -1.6960   -8.2480  -23.4610 C   0  0  0  0  0  3  0  0  0  0  0  0
   -1.6920   -9.6290  -23.2490 C   0  0  0  0  0  3  0  0  0  0  0  0
   -1.6990  -10.1240  -21.9440 C   0  0  0  0  0  0  0  0  0  0  0  0
   -1.7200   -9.2050  -20.9090 C   0  0  0  0  0  3  0  0  0  0  0  0
   -1.6910   -7.8600  -21.0920 N   0  0  0  0  0  0  0  0  0  0  0  0
   -0.7120   -5.4250  -23.2320 C   0  0  0  0  0  1  0  0  0  0  0  0
   -1.7230   -6.0350  -22.4370 O   0  0  0  0  0  0  0  0  0  0  0  0
    2.7680  -10.5420  -26.4000 N   0  0  0  0  0  0  0  0  0  0  0  0
    3.5970  -10.8790  -26.8580 H   0  0  0  0  0  0  0  0  0  0  0  0
    2.6000   -9.1830  -26.1510 C   0  0  0  0  0  0  0  0  0  0  0  0
    1.9930   -8.8620  -24.9960 N   0  0  0  0  0  0  0  0  0  0  0  0
    1.4840   -7.6380  -24.9090 C   0  0  0  0  0  3  0  0  0  0  0  0
    1.4480   -6.7480  -25.9010 N   0  0  0  0  0  0  0  0  0  0  0  0
    2.0970   -7.0540  -27.0370 C   0  0  0  0  0  0  0  0  0  0  0  0
    2.0480   -6.2180  -28.1540 C   0  0  0  0  0  0  0  0  0  0  0  0
    2.7940   -6.4400  -29.3200 C   0  0  0  0  0  3  0  0  0  0  0  0
    3.5890   -7.5700  -29.4080 C   0  0  0  0  0  3  0  0  0  0  0  0
    3.5600   -8.4930  -28.3650 C   0  0  0  0  0  3  0  0  0  0  0  0
    2.7980   -8.2540  -27.1870 C   0  0  0  0  0  0  0  0  0  0  0  0
    1.0050   -5.1810  -28.2170 C   0  0  0  0  0  0  0  0  0  0  0  0
   -0.2560   -5.6500  -27.9510 N   0  0  0  0  0  0  0  0  0  0  0  0
    1.2310   -4.0250  -28.5310 O   0  0  0  0  0  0  0  0  0  0  0  0
   -1.0340   -5.0090  -28.0070 H   0  0  0  0  0  0  0  0  0  0  0  0
   -0.4310   -6.6110  -27.6830 H   0  0  0  0  0  0  0  0  0  0  0  0
  1  2  1  1  0  0  0
  1  7  1  0  0  0  0
  3 11  1  0  0  0  0
  3  4  1  0  0  0  0
  5  4  2  0  0  0  0
  6  5  1  0  0  0  0
  7  8  1  0  0  0  0
  7  6  2  0  0  0  0
  8  3  2  0  0  0  0
  9 10  2  0  0  0  0
 11  9  1  0  0  0  0
 12 11  1  0  0  0  0
 13 18  2  0  0  0  0
 14 15  2  0  0  0  0
 14 13  1  0  0  0  0
 15 16  1  0  0  0  0
 16  9  1  0  0  0  0
 16 17  2  0  0  0  0
 18 17  1  0  0  0  0
 19 20  1  0  0  0  0
 20 13  1  0  0  0  0
 21  1  1  0  0  0  0
 21 23  1  0  0  0  0
 22 21  1  0  0  0  0
 23 24  1  0  0  0  0
 24 25  2  0  0  0  0
 26 25  1  0  0  0  0
 27 26  2  0  0  0  0
 28 27  1  0  0  0  0
 29 28  2  0  0  0  0
 30 29  1  0  0  0  0
 30 31  2  0  0  0  0
 31 32  1  0  0  0  0
 32 27  1  0  0  0  0
 32 23  2  0  0  0  0
 33 28  1  0  0  0  0
 33 34  1  0  0  0  0
 34 37  1  0  0  0  0
 35 33  2  0  0  0  0
 36 34  1  0  0  0  0
M  END
>  <minimizedAffinity>
-8.51246071

$$$$
