
 OpenBabel11232420453D

 37 41  0  0  1  0  0  0  0  0999 V2000
  -19.3800   26.0250   11.2760 C   0  0  1  0  0  3  0  0  0  0  0  0
  -20.1650   24.9580   11.2840 N   0  0  0  0  0  2  0  0  0  0  0  0
  -19.3730   23.8660   11.5250 C   0  0  2  0  0  3  0  0  0  0  0  0
  -18.0570   24.2540   11.5240 C   0  0  0  0  0  2  0  0  0  0  0  0
  -18.0670   25.5980   11.2250 N   0  0  0  0  0  0  0  0  0  0  0  0
  -19.8940   22.5190   11.7020 C   0  0  0  0  0  0  0  0  0  0  0  0
  -19.0890   21.4220   11.3620 C   0  0  0  0  0  3  0  0  0  0  0  0
  -19.5520   20.1170   11.5380 C   0  0  0  0  0  3  0  0  0  0  0  0
  -20.8270   19.9020   12.0450 C   0  0  0  0  0  0  0  0  0  0  0  0
  -21.2530   18.6440   12.2200 F   0  0  0  0  0  0  0  0  0  0  0  0
  -21.6650   20.9710   12.3700 C   0  0  0  0  0  0  0  0  0  0  0  0
  -23.0320   20.7130   12.9250 C   0  0  0  0  0  1  0  0  0  0  0  0
  -21.1840   22.2800   12.2060 C   0  0  0  0  0  3  0  0  0  0  0  0
  -19.9690   30.3030   11.6250 N   0  0  0  0  0  0  0  0  0  0  0  0
  -20.2530   29.4690   12.7900 C   0  0  0  0  0  2  0  0  0  0  0  0
  -19.6220   28.0860   12.6530 C   0  0  0  0  0  2  0  0  0  0  0  0
  -19.9730   27.4220   11.3020 C   0  0  1  0  0  3  0  0  0  0  0  0
  -19.6190   28.3630   10.1510 C   0  0  0  0  0  2  0  0  0  0  0  0
  -20.2750   29.7350   10.3240 C   0  0  0  0  0  2  0  0  0  0  0  0
  -18.7970   32.2870   12.3600 C   0  0  0  0  0  0  0  0  0  0  0  0
  -17.5870   32.9660   12.3740 C   0  0  0  0  0  0  0  0  0  0  0  0
  -17.4320   34.1890   12.9990 N   0  0  0  0  0  0  0  0  0  0  0  0
  -16.4670   32.4680   11.8410 N   0  0  0  0  0  0  0  0  0  0  0  0
  -16.5750   31.2770   11.2500 C   0  0  0  0  0  3  0  0  0  0  0  0
  -17.6900   30.5490   11.1330 N   0  0  0  0  0  0  0  0  0  0  0  0
  -18.7970   31.0560   11.7040 C   0  0  0  0  0  0  0  0  0  0  0  0
  -16.4790   34.5340   12.9440 H   0  0  0  0  0  0  0  0  0  0  0  0
  -18.1630   34.8760   12.8970 H   0  0  0  0  0  0  0  0  0  0  0  0
  -20.0690   32.6360   14.4980 C   0  0  0  0  0  1  0  0  0  0  0  0
  -20.0430   32.8530   12.9910 C   0  0  0  0  0  2  0  0  0  0  0  0
  -16.8660   26.2820   10.7740 C   0  0  0  0  0  2  0  0  0  0  0  0
  -16.1830   25.6140    9.5840 C   0  0  0  0  0  3  0  0  0  0  0  0
  -16.2610   26.2910    8.1970 C   0  0  0  0  0  2  0  0  0  0  0  0
  -14.8790   25.8420    7.9450 N   0  0  0  0  0  4  0  0  0  0  0  0
  -14.0490   26.9370    7.3810 C   0  0  0  0  0  1  0  0  0  0  0  0
  -14.6510   25.6890    9.3950 C   0  0  0  0  0  2  0  0  0  0  0  0
  -14.8130   24.9640    7.4140 H   0  0  0  0  0  0  0  0  0  0  0  0
  1  2  1  6  0  0  0
  1 17  1  0  0  0  0
  2  3  1  0  0  0  0
  3  6  1  6  0  0  0
  4  3  1  0  0  0  0
  5  1  1  0  0  0  0
  5  4  1  0  0  0  0
  6 13  1  0  0  0  0
  7  8  1  0  0  0  0
  7  6  2  0  0  0  0
  8  9  2  0  0  0  0
  9 10  1  0  0  0  0
  9 11  1  0  0  0  0
 11 12  1  0  0  0  0
 13 11  2  0  0  0  0
 14 26  1  0  0  0  0
 14 15  1  0  0  0  0
 16 15  1  0  0  0  0
 17 18  1  6  0  0  0
 17 16  1  0  0  0  0
 18 19  1  0  0  0  0
 19 14  1  0  0  0  0
 20 21  1  0  0  0  0
 20 30  1  0  0  0  0
 21 22  1  0  0  0  0
 23 21  2  0  0  0  0
 24 23  1  0  0  0  0
 25 24  2  0  0  0  0
 25 26  1  0  0  0  0
 26 20  2  0  0  0  0
 27 22  1  0  0  0  0
 28 22  1  0  0  0  0
 30 29  1  0  0  0  0
 31  5  1  0  0  0  0
 32 31  1  0  0  0  0
 33 32  1  0  0  0  0
 34 33  1  0  0  0  0
 34 36  1  0  0  0  0
 35 34  1  0  0  0  0
 36 32  1  0  0  0  0
 37 34  1  0  0  0  0
M  END
>  <minimizedAffinity>
-9.22668266

$$$$
