
 OpenBabel11232420453D

 37 41  0  0  1  0  0  0  0  0999 V2000
  -20.0620   20.8440   11.0770 C   0  0  1  0  0  3  0  0  0  0  0  0
  -20.6280   19.9650   11.8890 N   0  0  0  0  0  2  0  0  0  0  0  0
  -20.1000   18.7350   11.5970 C   0  0  2  0  0  3  0  0  0  0  0  0
  -19.2980   18.8400   10.4880 C   0  0  0  0  0  2  0  0  0  0  0  0
  -19.3940   20.1530   10.0850 N   0  0  0  0  0  0  0  0  0  0  0  0
  -20.4090   17.5280   12.3480 C   0  0  0  0  0  0  0  0  0  0  0  0
  -19.4940   16.4650   12.3470 C   0  0  0  0  0  3  0  0  0  0  0  0
  -19.7520   15.3020   13.0740 C   0  0  0  0  0  3  0  0  0  0  0  0
  -20.9330   15.1910   13.7970 C   0  0  0  0  0  0  0  0  0  0  0  0
  -21.1610   14.0730   14.5000 F   0  0  0  0  0  0  0  0  0  0  0  0
  -21.8780   16.2180   13.8000 C   0  0  0  0  0  0  0  0  0  0  0  0
  -23.1400   16.0790   14.5960 C   0  0  0  0  0  1  0  0  0  0  0  0
  -21.6020   17.3920   13.0800 C   0  0  0  0  0  3  0  0  0  0  0  0
  -19.3810   25.1030   11.5030 N   0  0  0  0  0  0  0  0  0  0  0  0
  -19.3200   24.2700   12.7010 C   0  0  0  0  0  2  0  0  0  0  0  0
  -19.1680   22.7930   12.3470 C   0  0  0  0  0  2  0  0  0  0  0  0
  -20.2250   22.3350   11.3150 C   0  0  1  0  0  3  0  0  0  0  0  0
  -20.1950   23.2550   10.0950 C   0  0  0  0  0  2  0  0  0  0  0  0
  -20.3540   24.7240   10.4930 C   0  0  0  0  0  2  0  0  0  0  0  0
  -17.7620   26.8780   11.2340 C   0  0  0  0  0  0  0  0  0  0  0  0
  -16.5260   27.2350   10.7130 C   0  0  0  0  0  0  0  0  0  0  0  0
  -16.0030   28.5070   10.8520 N   0  0  0  0  0  0  0  0  0  0  0  0
  -15.7200   26.3680   10.0910 N   0  0  0  0  0  0  0  0  0  0  0  0
  -16.1840   25.1240    9.9600 C   0  0  0  0  0  3  0  0  0  0  0  0
  -17.3700   24.6720   10.3780 N   0  0  0  0  0  0  0  0  0  0  0  0
  -18.1500   25.5540   11.0280 C   0  0  0  0  0  0  0  0  0  0  0  0
  -15.0790   28.5930   10.4420 H   0  0  0  0  0  0  0  0  0  0  0  0
  -16.6210   29.2950   10.7330 H   0  0  0  0  0  0  0  0  0  0  0  0
  -19.6030   28.5720   11.0090 C   0  0  0  0  0  1  0  0  0  0  0  0
  -18.6440   27.8640   11.9560 C   0  0  0  0  0  2  0  0  0  0  0  0
  -18.9890   20.5660    8.7510 C   0  0  0  0  0  2  0  0  0  0  0  0
  -17.4770   20.6570    8.5620 C   0  0  0  0  0  3  0  0  0  0  0  0
  -16.8200   19.8890    7.3930 C   0  0  0  0  0  2  0  0  0  0  0  0
  -15.8860   21.0200    7.2310 N   0  0  0  0  0  4  0  0  0  0  0  0
  -15.7520   21.4080    5.8030 C   0  0  0  0  0  1  0  0  0  0  0  0
  -16.8210   21.9120    7.9420 C   0  0  0  0  0  2  0  0  0  0  0  0
  -14.9830   20.8910    7.7060 H   0  0  0  0  0  0  0  0  0  0  0  0
  1 17  1  0  0  0  0
  1  2  1  6  0  0  0
  3  2  1  0  0  0  0
  3  6  1  6  0  0  0
  4  3  1  0  0  0  0
  5  4  1  0  0  0  0
  5  1  1  0  0  0  0
  6 13  1  0  0  0  0
  7  6  2  0  0  0  0
  7  8  1  0  0  0  0
  8  9  2  0  0  0  0
  9 11  1  0  0  0  0
  9 10  1  0  0  0  0
 11 12  1  0  0  0  0
 13 11  2  0  0  0  0
 14 15  1  0  0  0  0
 16 15  1  0  0  0  0
 17 18  1  6  0  0  0
 17 16  1  0  0  0  0
 18 19  1  0  0  0  0
 19 14  1  0  0  0  0
 20 30  1  0  0  0  0
 21 22  1  0  0  0  0
 21 20  2  0  0  0  0
 23 21  1  0  0  0  0
 24 23  2  0  0  0  0
 24 25  1  0  0  0  0
 25 26  2  0  0  0  0
 26 20  1  0  0  0  0
 26 14  1  0  0  0  0
 27 22  1  0  0  0  0
 28 22  1  0  0  0  0
 29 30  1  0  0  0  0
 31  5  1  0  0  0  0
 32 31  1  0  0  0  0
 33 32  1  0  0  0  0
 34 33  1  0  0  0  0
 34 37  1  0  0  0  0
 34 36  1  0  0  0  0
 35 34  1  0  0  0  0
 36 32  1  0  0  0  0
M  END
>  <minimizedAffinity>
-10.3191128

$$$$
