
 OpenBabel11232420453D

 37 41  0  0  1  0  0  0  0  0999 V2000
  -19.6380   20.6890   10.9130 C   0  0  1  0  0  3  0  0  0  0  0  0
  -19.4890   21.8430   11.5430 N   0  0  0  0  0  2  0  0  0  0  0  0
  -18.8540   22.7030   10.6850 C   0  0  2  0  0  3  0  0  0  0  0  0
  -18.4810   22.0190    9.5560 C   0  0  0  0  0  2  0  0  0  0  0  0
  -18.8580   20.7120    9.7730 N   0  0  0  0  0  0  0  0  0  0  0  0
  -18.6010   24.1020   10.9900 C   0  0  0  0  0  0  0  0  0  0  0  0
  -19.5750   24.8440   11.6740 C   0  0  0  0  0  3  0  0  0  0  0  0
  -19.3550   26.1830   11.9990 C   0  0  0  0  0  3  0  0  0  0  0  0
  -18.1610   26.7910   11.6320 C   0  0  0  0  0  0  0  0  0  0  0  0
  -17.9590   28.0740   11.9620 F   0  0  0  0  0  0  0  0  0  0  0  0
  -17.1800   26.0920   10.9270 C   0  0  0  0  0  0  0  0  0  0  0  0
  -15.8970   26.7680   10.5500 C   0  0  0  0  0  1  0  0  0  0  0  0
  -17.4040   24.7400   10.6190 C   0  0  0  0  0  3  0  0  0  0  0  0
  -21.2690   17.3920   13.2040 N   0  0  0  0  0  0  0  0  0  0  0  0
  -20.6630   17.1000   11.9070 C   0  0  0  0  0  2  0  0  0  0  0  0
  -19.7900   18.2550   11.4260 C   0  0  0  0  0  2  0  0  0  0  0  0
  -20.5390   19.6070   11.4810 C   0  0  1  0  0  3  0  0  0  0  0  0
  -21.1150   19.8270   12.8800 C   0  0  0  0  0  2  0  0  0  0  0  0
  -21.9860   18.6500   13.3220 C   0  0  0  0  0  2  0  0  0  0  0  0
  -20.9290   17.3610   15.5970 C   0  0  0  0  0  0  0  0  0  0  0  0
  -20.1040   16.9500   16.6350 C   0  0  0  0  0  0  0  0  0  0  0  0
  -20.3950   17.2100   17.9610 N   0  0  0  0  0  0  0  0  0  0  0  0
  -18.9990   16.2230   16.4410 N   0  0  0  0  0  0  0  0  0  0  0  0
  -18.7000   15.9340   15.1730 C   0  0  0  0  0  3  0  0  0  0  0  0
  -19.3880   16.3100   14.0910 N   0  0  0  0  0  0  0  0  0  0  0  0
  -20.5120   17.0130   14.3130 C   0  0  0  0  0  0  0  0  0  0  0  0
  -19.7080   16.8140   18.5930 H   0  0  0  0  0  0  0  0  0  0  0  0
  -20.7560   18.1200   18.2030 H   0  0  0  0  0  0  0  0  0  0  0  0
  -23.3550   17.2690   16.2430 C   0  0  0  0  0  1  0  0  0  0  0  0
  -22.1860   18.1570   15.8390 C   0  0  0  0  0  2  0  0  0  0  0  0
  -18.3120   19.6250    8.9770 C   0  0  0  0  0  2  0  0  0  0  0  0
  -17.7110   20.0710    7.6470 C   0  0  0  0  0  3  0  0  0  0  0  0
  -16.2510   20.5780    7.6160 C   0  0  0  0  0  2  0  0  0  0  0  0
  -16.0950   19.9210    6.3050 N   0  0  0  0  0  4  0  0  0  0  0  0
  -14.8270   19.1480    6.2360 C   0  0  0  0  0  1  0  0  0  0  0  0
  -17.2430   19.0410    6.5940 C   0  0  0  0  0  2  0  0  0  0  0  0
  -16.2350   20.5460    5.5010 H   0  0  0  0  0  0  0  0  0  0  0  0
  1 17  1  0  0  0  0
  1  2  1  1  0  0  0
  3  6  1  1  0  0  0
  3  2  1  0  0  0  0
  4  5  1  0  0  0  0
  4  3  1  0  0  0  0
  5  1  1  0  0  0  0
  6  7  1  0  0  0  0
  7  8  2  0  0  0  0
  9 10  1  0  0  0  0
  9  8  1  0  0  0  0
 11  9  2  0  0  0  0
 12 11  1  0  0  0  0
 13 11  1  0  0  0  0
 13  6  2  0  0  0  0
 14 19  1  0  0  0  0
 14 26  1  0  0  0  0
 15 14  1  0  0  0  0
 16 15  1  0  0  0  0
 17 16  1  1  0  0  0
 17 18  1  0  0  0  0
 18 19  1  0  0  0  0
 20 30  1  0  0  0  0
 20 21  1  0  0  0  0
 21 22  1  0  0  0  0
 22 28  1  0  0  0  0
 22 27  1  0  0  0  0
 23 21  2  0  0  0  0
 24 23  1  0  0  0  0
 25 26  1  0  0  0  0
 25 24  2  0  0  0  0
 26 20  2  0  0  0  0
 30 29  1  0  0  0  0
 31  5  1  0  0  0  0
 32 31  1  0  0  0  0
 33 32  1  0  0  0  0
 34 36  1  0  0  0  0
 34 33  1  0  0  0  0
 35 34  1  0  0  0  0
 36 32  1  0  0  0  0
 37 34  1  0  0  0  0
M  END
>  <minimizedAffinity>
-9.48291779

$$$$
