
 OpenBabel11232420453D

 37 41  0  0  1  0  0  0  0  0999 V2000
  -18.8780   20.4120   10.0850 C   0  0  1  0  0  3  0  0  0  0  0  0
  -19.7260   20.1460   11.0660 N   0  0  0  0  0  2  0  0  0  0  0  0
  -19.8580   18.7840   11.1390 C   0  0  2  0  0  3  0  0  0  0  0  0
  -19.1860   18.2090   10.0900 C   0  0  0  0  0  2  0  0  0  0  0  0
  -18.6870   19.2580    9.3500 N   0  0  0  0  0  0  0  0  0  0  0  0
  -20.6370   18.1050   12.1620 C   0  0  0  0  0  0  0  0  0  0  0  0
  -20.8380   16.7200   12.0680 C   0  0  0  0  0  3  0  0  0  0  0  0
  -21.5650   16.0360   13.0440 C   0  0  0  0  0  3  0  0  0  0  0  0
  -22.1040   16.7360   14.1150 C   0  0  0  0  0  0  0  0  0  0  0  0
  -22.7890   16.0640   15.0510 F   0  0  0  0  0  0  0  0  0  0  0  0
  -21.9470   18.1190   14.2280 C   0  0  0  0  0  0  0  0  0  0  0  0
  -22.5310   18.8500   15.3980 C   0  0  0  0  0  1  0  0  0  0  0  0
  -21.2000   18.7960   13.2500 C   0  0  0  0  0  3  0  0  0  0  0  0
  -18.2400   24.6980   10.1410 N   0  0  0  0  0  0  0  0  0  0  0  0
  -18.8390   24.1040    8.9490 C   0  0  0  0  0  2  0  0  0  0  0  0
  -19.3690   22.7010    9.2310 C   0  0  0  0  0  2  0  0  0  0  0  0
  -18.3070   21.8090    9.9130 C   0  0  1  0  0  3  0  0  0  0  0  0
  -17.7600   22.5080   11.1570 C   0  0  0  0  0  2  0  0  0  0  0  0
  -17.2350   23.9080   10.8310 C   0  0  0  0  0  2  0  0  0  0  0  0
  -18.9950   26.7990   11.0680 C   0  0  0  0  0  0  0  0  0  0  0  0
  -19.9070   27.4220   11.9100 C   0  0  0  0  0  0  0  0  0  0  0  0
  -19.9160   28.7890   12.1110 N   0  0  0  0  0  0  0  0  0  0  0  0
  -20.8810   26.7600   12.5440 N   0  0  0  0  0  0  0  0  0  0  0  0
  -20.9160   25.4400   12.3540 C   0  0  0  0  0  3  0  0  0  0  0  0
  -20.0700   24.7240   11.6060 N   0  0  0  0  0  0  0  0  0  0  0  0
  -19.1190   25.4150   10.9540 C   0  0  0  0  0  0  0  0  0  0  0  0
  -20.6640   29.0850   12.7290 H   0  0  0  0  0  0  0  0  0  0  0  0
  -19.0330   29.2640   12.2170 H   0  0  0  0  0  0  0  0  0  0  0  0
  -16.6440   27.6770   11.1610 C   0  0  0  0  0  1  0  0  0  0  0  0
  -17.9220   27.5670   10.3410 C   0  0  0  0  0  2  0  0  0  0  0  0
  -18.2380   19.0720    7.9800 C   0  0  0  0  0  2  0  0  0  0  0  0
  -16.7220   19.1360    7.8110 C   0  0  0  0  0  3  0  0  0  0  0  0
  -16.1000   18.7110    6.4610 C   0  0  0  0  0  2  0  0  0  0  0  0
  -15.1080   19.7900    6.6270 N   0  0  0  0  0  4  0  0  0  0  0  0
  -14.9460   20.5720    5.3740 C   0  0  0  0  0  1  0  0  0  0  0  0
  -15.9990   20.4810    7.5780 C   0  0  0  0  0  2  0  0  0  0  0  0
  -14.2150   19.4810    7.0340 H   0  0  0  0  0  0  0  0  0  0  0  0
  1  2  1  6  0  0  0
  2  3  1  0  0  0  0
  3  6  1  6  0  0  0
  4  3  1  0  0  0  0
  5  1  1  0  0  0  0
  5  4  1  0  0  0  0
  6 13  1  0  0  0  0
  7  6  2  0  0  0  0
  7  8  1  0  0  0  0
  8  9  2  0  0  0  0
  9 11  1  0  0  0  0
  9 10  1  0  0  0  0
 11 12  1  0  0  0  0
 13 11  2  0  0  0  0
 14 19  1  0  0  0  0
 14 26  1  0  0  0  0
 15 16  1  0  0  0  0
 15 14  1  0  0  0  0
 17 16  1  1  0  0  0
 17  1  1  0  0  0  0
 17 18  1  0  0  0  0
 19 18  1  0  0  0  0
 20 21  1  0  0  0  0
 21 22  1  0  0  0  0
 21 23  2  0  0  0  0
 22 28  1  0  0  0  0
 22 27  1  0  0  0  0
 24 23  1  0  0  0  0
 25 24  2  0  0  0  0
 26 20  2  0  0  0  0
 26 25  1  0  0  0  0
 30 20  1  0  0  0  0
 30 29  1  0  0  0  0
 31  5  1  0  0  0  0
 32 31  1  0  0  0  0
 33 34  1  0  0  0  0
 33 32  1  0  0  0  0
 34 37  1  0  0  0  0
 34 36  1  0  0  0  0
 35 34  1  0  0  0  0
 36 32  1  0  0  0  0
M  END
>  <minimizedAffinity>
-10.476819

$$$$
