
 OpenBabel11232420453D

 37 41  0  0  1  0  0  0  0  0999 V2000
  -19.3410   20.4630   10.6720 C   0  0  1  0  0  3  0  0  0  0  0  0
  -18.8390   20.1390    9.4910 N   0  0  0  0  0  2  0  0  0  0  0  0
  -17.7660   20.9620    9.2590 C   0  0  2  0  0  3  0  0  0  0  0  0
  -17.6970   21.9030   10.2560 C   0  0  0  0  0  2  0  0  0  0  0  0
  -18.7830   21.6630   11.0680 N   0  0  0  0  0  0  0  0  0  0  0  0
  -16.8970   20.8420    8.1000 C   0  0  0  0  0  0  0  0  0  0  0  0
  -16.4650   22.0030    7.4420 C   0  0  0  0  0  3  0  0  0  0  0  0
  -15.6150   21.9230    6.3380 C   0  0  0  0  0  3  0  0  0  0  0  0
  -15.2010   20.6800    5.8790 C   0  0  0  0  0  0  0  0  0  0  0  0
  -14.3740   20.6190    4.8260 F   0  0  0  0  0  0  0  0  0  0  0  0
  -15.6320   19.5020    6.4920 C   0  0  0  0  0  0  0  0  0  0  0  0
  -15.1630   18.1730    5.9840 C   0  0  0  0  0  1  0  0  0  0  0  0
  -16.4730   19.5930    7.6120 C   0  0  0  0  0  3  0  0  0  0  0  0
  -21.3360   17.5900   13.2300 N   0  0  0  0  0  0  0  0  0  0  0  0
  -20.8640   17.1410   11.9230 C   0  0  0  0  0  2  0  0  0  0  0  0
  -19.8490   18.1140   11.3320 C   0  0  0  0  0  2  0  0  0  0  0  0
  -20.3670   19.5700   11.3480 C   0  0  1  0  0  3  0  0  0  0  0  0
  -20.8140   19.9490   12.7590 C   0  0  0  0  0  2  0  0  0  0  0  0
  -21.8350   18.9520   13.3130 C   0  0  0  0  0  2  0  0  0  0  0  0
  -20.9340   17.5280   15.6140 C   0  0  0  0  0  0  0  0  0  0  0  0
  -20.1180   17.0470   16.6290 C   0  0  0  0  0  0  0  0  0  0  0  0
  -20.3500   17.3290   17.9620 N   0  0  0  0  0  0  0  0  0  0  0  0
  -19.0850   16.2290   16.4050 N   0  0  0  0  0  0  0  0  0  0  0  0
  -18.8460   15.9170   15.1300 C   0  0  0  0  0  3  0  0  0  0  0  0
  -19.5300   16.3510   14.0670 N   0  0  0  0  0  0  0  0  0  0  0  0
  -20.5840   17.1470   14.3190 C   0  0  0  0  0  0  0  0  0  0  0  0
  -19.6820   16.8760   18.5750 H   0  0  0  0  0  0  0  0  0  0  0  0
  -20.6260   18.2660   18.2130 H   0  0  0  0  0  0  0  0  0  0  0  0
  -23.3380   17.6430   16.3350 C   0  0  0  0  0  1  0  0  0  0  0  0
  -22.1120   18.4270   15.8890 C   0  0  0  0  0  2  0  0  0  0  0  0
  -19.2580   22.6630   12.0100 C   0  0  0  0  0  2  0  0  0  0  0  0
  -20.2920   23.6220   11.4280 C   0  0  0  0  0  3  0  0  0  0  0  0
  -20.5820   24.9500   12.1630 C   0  0  0  0  0  2  0  0  0  0  0  0
  -20.7330   25.5970   10.8460 N   0  0  0  0  0  4  0  0  0  0  0  0
  -19.9980   26.8870   10.7920 C   0  0  0  0  0  1  0  0  0  0  0  0
  -19.9610   24.5130   10.2100 C   0  0  0  0  0  2  0  0  0  0  0  0
  -21.7060   25.6690   10.5220 H   0  0  0  0  0  0  0  0  0  0  0  0
  1  2  1  6  0  0  0
  1  5  1  0  0  0  0
  1 17  1  0  0  0  0
  3  6  1  6  0  0  0
  3  2  1  0  0  0  0
  3  4  1  0  0  0  0
  4  5  1  0  0  0  0
  5 31  1  0  0  0  0
  7  6  2  0  0  0  0
  8  7  1  0  0  0  0
  9  8  2  0  0  0  0
  9 11  1  0  0  0  0
 10  9  1  0  0  0  0
 11 13  2  0  0  0  0
 12 11  1  0  0  0  0
 13  6  1  0  0  0  0
 14 19  1  0  0  0  0
 14 26  1  0  0  0  0
 15 14  1  0  0  0  0
 16 15  1  0  0  0  0
 17 16  1  1  0  0  0
 17 18  1  0  0  0  0
 18 19  1  0  0  0  0
 20 30  1  0  0  0  0
 20 21  1  0  0  0  0
 21 22  1  0  0  0  0
 22 28  1  0  0  0  0
 22 27  1  0  0  0  0
 23 21  2  0  0  0  0
 24 23  1  0  0  0  0
 25 26  1  0  0  0  0
 25 24  2  0  0  0  0
 26 20  2  0  0  0  0
 30 29  1  0  0  0  0
 32 31  1  0  0  0  0
 32 33  1  0  0  0  0
 34 33  1  0  0  0  0
 35 34  1  0  0  0  0
 36 34  1  0  0  0  0
 36 32  1  0  0  0  0
 37 34  1  0  0  0  0
M  END
>  <minimizedAffinity>
-10.0705547

$$$$
