
 OpenBabel11232420453D

 37 41  0  0  1  0  0  0  0  0999 V2000
  -18.8780   20.4120   10.0850 C   0  0  1  0  0  3  0  0  0  0  0  0
  -19.7260   20.1460   11.0660 N   0  0  0  0  0  2  0  0  0  0  0  0
  -19.8580   18.7840   11.1390 C   0  0  2  0  0  3  0  0  0  0  0  0
  -19.1860   18.2090   10.0900 C   0  0  0  0  0  2  0  0  0  0  0  0
  -18.6870   19.2580    9.3500 N   0  0  0  0  0  0  0  0  0  0  0  0
  -20.6370   18.1050   12.1620 C   0  0  0  0  0  0  0  0  0  0  0  0
  -20.8380   16.7200   12.0680 C   0  0  0  0  0  3  0  0  0  0  0  0
  -21.5650   16.0360   13.0440 C   0  0  0  0  0  3  0  0  0  0  0  0
  -22.1040   16.7360   14.1150 C   0  0  0  0  0  0  0  0  0  0  0  0
  -22.7890   16.0640   15.0510 F   0  0  0  0  0  0  0  0  0  0  0  0
  -21.9470   18.1190   14.2280 C   0  0  0  0  0  0  0  0  0  0  0  0
  -22.5310   18.8500   15.3980 C   0  0  0  0  0  1  0  0  0  0  0  0
  -21.2000   18.7960   13.2500 C   0  0  0  0  0  3  0  0  0  0  0  0
  -18.2400   24.6980   10.1410 N   0  0  0  0  0  0  0  0  0  0  0  0
  -18.8390   24.1040    8.9490 C   0  0  0  0  0  2  0  0  0  0  0  0
  -19.3690   22.7010    9.2310 C   0  0  0  0  0  2  0  0  0  0  0  0
  -18.3070   21.8090    9.9130 C   0  0  1  0  0  3  0  0  0  0  0  0
  -17.7600   22.5080   11.1570 C   0  0  0  0  0  2  0  0  0  0  0  0
  -17.2350   23.9080   10.8310 C   0  0  0  0  0  2  0  0  0  0  0  0
  -18.9950   26.7990   11.0680 C   0  0  0  0  0  0  0  0  0  0  0  0
  -19.9070   27.4220   11.9100 C   0  0  0  0  0  0  0  0  0  0  0  0
  -19.9160   28.7890   12.1110 N   0  0  0  0  0  0  0  0  0  0  0  0
  -20.8810   26.7600   12.5440 N   0  0  0  0  0  0  0  0  0  0  0  0
  -20.9160   25.4400   12.3540 C   0  0  0  0  0  3  0  0  0  0  0  0
  -20.0700   24.7240   11.6060 N   0  0  0  0  0  0  0  0  0  0  0  0
  -19.1190   25.4150   10.9540 C   0  0  0  0  0  0  0  0  0  0  0  0
  -20.6640   29.0850   12.7290 H   0  0  0  0  0  0  0  0  0  0  0  0
  -19.0330   29.2640   12.2170 H   0  0  0  0  0  0  0  0  0  0  0  0
  -16.6440   27.6770   11.1610 C   0  0  0  0  0  1  0  0  0  0  0  0
  -17.9220   27.5670   10.3410 C   0  0  0  0  0  2  0  0  0  0  0  0
  -18.2380   19.0720    7.9800 C   0  0  0  0  0  2  0  0  0  0  0  0
  -16.7220   19.1360    7.8110 C   0  0  0  0  0  3  0  0  0  0  0  0
  -16.1000   18.7110    6.4610 C   0  0  0  0  0  2  0  0  0  0  0  0
  -15.1080   19.7900    6.6270 N   0  0  0  0  0  4  0  0  0  0  0  0
  -14.9460   20.5720    5.3740 C   0  0  0  0  0  1  0  0  0  0  0  0
  -15.9990   20.4810    7.5780 C   0  0  0  0  0  2  0  0  0  0  0  0
  -14.2150   19.4810    7.0340 H   0  0  0  0  0  0  0  0  0  0  0  0
  1  2  1  6  0  0  0
  2  3  1  0  0  0  0
  3  6  1  6  0  0  0
  4  3  1  0  0  0  0
  5  1  1  0  0  0  0
  5  4  1  0  0  0  0
  6 13  1  0  0  0  0
  7  6  2  0  0  0  0
  7  8  1  0  0  0  0
  8  9  2  0  0  0  0
  9 11  1  0  0  0  0
  9 10  1  0  0  0  0
 11 12  1  0  0  0  0
 13 11  2  0  0  0  0
 14 19  1  0  0  0  0
 14 26  1  0  0  0  0
 15 16  1  0  0  0  0
 15 14  1  0  0  0  0
 17 16  1  1  0  0  0
 17  1  1  0  0  0  0
 17 18  1  0  0  0  0
 19 18  1  0  0  0  0
 20 21  1  0  0  0  0
 21 22  1  0  0  0  0
 21 23  2  0  0  0  0
 22 28  1  0  0  0  0
 22 27  1  0  0  0  0
 24 23  1  0  0  0  0
 25 24  2  0  0  0  0
 26 20  2  0  0  0  0
 26 25  1  0  0  0  0
 30 20  1  0  0  0  0
 30 29  1  0  0  0  0
 31  5  1  0  0  0  0
 32 31  1  0  0  0  0
 33 34  1  0  0  0  0
 33 32  1  0  0  0  0
 34 37  1  0  0  0  0
 34 36  1  0  0  0  0
 35 34  1  0  0  0  0
 36 32  1  0  0  0  0
M  END
>  <minimizedAffinity>
-10.476819

$$$$

 OpenBabel11232420453D

 37 41  0  0  1  0  0  0  0  0999 V2000
  -20.0620   20.8440   11.0770 C   0  0  1  0  0  3  0  0  0  0  0  0
  -20.6280   19.9650   11.8890 N   0  0  0  0  0  2  0  0  0  0  0  0
  -20.1000   18.7350   11.5970 C   0  0  2  0  0  3  0  0  0  0  0  0
  -19.2980   18.8400   10.4880 C   0  0  0  0  0  2  0  0  0  0  0  0
  -19.3940   20.1530   10.0850 N   0  0  0  0  0  0  0  0  0  0  0  0
  -20.4090   17.5280   12.3480 C   0  0  0  0  0  0  0  0  0  0  0  0
  -19.4940   16.4650   12.3470 C   0  0  0  0  0  3  0  0  0  0  0  0
  -19.7520   15.3020   13.0740 C   0  0  0  0  0  3  0  0  0  0  0  0
  -20.9330   15.1910   13.7970 C   0  0  0  0  0  0  0  0  0  0  0  0
  -21.1610   14.0730   14.5000 F   0  0  0  0  0  0  0  0  0  0  0  0
  -21.8780   16.2180   13.8000 C   0  0  0  0  0  0  0  0  0  0  0  0
  -23.1400   16.0790   14.5960 C   0  0  0  0  0  1  0  0  0  0  0  0
  -21.6020   17.3920   13.0800 C   0  0  0  0  0  3  0  0  0  0  0  0
  -19.3810   25.1030   11.5030 N   0  0  0  0  0  0  0  0  0  0  0  0
  -19.3200   24.2700   12.7010 C   0  0  0  0  0  2  0  0  0  0  0  0
  -19.1680   22.7930   12.3470 C   0  0  0  0  0  2  0  0  0  0  0  0
  -20.2250   22.3350   11.3150 C   0  0  1  0  0  3  0  0  0  0  0  0
  -20.1950   23.2550   10.0950 C   0  0  0  0  0  2  0  0  0  0  0  0
  -20.3540   24.7240   10.4930 C   0  0  0  0  0  2  0  0  0  0  0  0
  -17.7620   26.8780   11.2340 C   0  0  0  0  0  0  0  0  0  0  0  0
  -16.5260   27.2350   10.7130 C   0  0  0  0  0  0  0  0  0  0  0  0
  -16.0030   28.5070   10.8520 N   0  0  0  0  0  0  0  0  0  0  0  0
  -15.7200   26.3680   10.0910 N   0  0  0  0  0  0  0  0  0  0  0  0
  -16.1840   25.1240    9.9600 C   0  0  0  0  0  3  0  0  0  0  0  0
  -17.3700   24.6720   10.3780 N   0  0  0  0  0  0  0  0  0  0  0  0
  -18.1500   25.5540   11.0280 C   0  0  0  0  0  0  0  0  0  0  0  0
  -15.0790   28.5930   10.4420 H   0  0  0  0  0  0  0  0  0  0  0  0
  -16.6210   29.2950   10.7330 H   0  0  0  0  0  0  0  0  0  0  0  0
  -19.6030   28.5720   11.0090 C   0  0  0  0  0  1  0  0  0  0  0  0
  -18.6440   27.8640   11.9560 C   0  0  0  0  0  2  0  0  0  0  0  0
  -18.9890   20.5660    8.7510 C   0  0  0  0  0  2  0  0  0  0  0  0
  -17.4770   20.6570    8.5620 C   0  0  0  0  0  3  0  0  0  0  0  0
  -16.8200   19.8890    7.3930 C   0  0  0  0  0  2  0  0  0  0  0  0
  -15.8860   21.0200    7.2310 N   0  0  0  0  0  4  0  0  0  0  0  0
  -15.7520   21.4080    5.8030 C   0  0  0  0  0  1  0  0  0  0  0  0
  -16.8210   21.9120    7.9420 C   0  0  0  0  0  2  0  0  0  0  0  0
  -14.9830   20.8910    7.7060 H   0  0  0  0  0  0  0  0  0  0  0  0
  1 17  1  0  0  0  0
  1  2  1  6  0  0  0
  3  2  1  0  0  0  0
  3  6  1  6  0  0  0
  4  3  1  0  0  0  0
  5  4  1  0  0  0  0
  5  1  1  0  0  0  0
  6 13  1  0  0  0  0
  7  6  2  0  0  0  0
  7  8  1  0  0  0  0
  8  9  2  0  0  0  0
  9 11  1  0  0  0  0
  9 10  1  0  0  0  0
 11 12  1  0  0  0  0
 13 11  2  0  0  0  0
 14 15  1  0  0  0  0
 16 15  1  0  0  0  0
 17 18  1  6  0  0  0
 17 16  1  0  0  0  0
 18 19  1  0  0  0  0
 19 14  1  0  0  0  0
 20 30  1  0  0  0  0
 21 22  1  0  0  0  0
 21 20  2  0  0  0  0
 23 21  1  0  0  0  0
 24 23  2  0  0  0  0
 24 25  1  0  0  0  0
 25 26  2  0  0  0  0
 26 20  1  0  0  0  0
 26 14  1  0  0  0  0
 27 22  1  0  0  0  0
 28 22  1  0  0  0  0
 29 30  1  0  0  0  0
 31  5  1  0  0  0  0
 32 31  1  0  0  0  0
 33 32  1  0  0  0  0
 34 33  1  0  0  0  0
 34 37  1  0  0  0  0
 34 36  1  0  0  0  0
 35 34  1  0  0  0  0
 36 32  1  0  0  0  0
M  END
>  <minimizedAffinity>
-10.3191128

$$$$

 OpenBabel11232420453D

 37 41  0  0  1  0  0  0  0  0999 V2000
  -19.3410   20.4630   10.6720 C   0  0  1  0  0  3  0  0  0  0  0  0
  -18.8390   20.1390    9.4910 N   0  0  0  0  0  2  0  0  0  0  0  0
  -17.7660   20.9620    9.2590 C   0  0  2  0  0  3  0  0  0  0  0  0
  -17.6970   21.9030   10.2560 C   0  0  0  0  0  2  0  0  0  0  0  0
  -18.7830   21.6630   11.0680 N   0  0  0  0  0  0  0  0  0  0  0  0
  -16.8970   20.8420    8.1000 C   0  0  0  0  0  0  0  0  0  0  0  0
  -16.4650   22.0030    7.4420 C   0  0  0  0  0  3  0  0  0  0  0  0
  -15.6150   21.9230    6.3380 C   0  0  0  0  0  3  0  0  0  0  0  0
  -15.2010   20.6800    5.8790 C   0  0  0  0  0  0  0  0  0  0  0  0
  -14.3740   20.6190    4.8260 F   0  0  0  0  0  0  0  0  0  0  0  0
  -15.6320   19.5020    6.4920 C   0  0  0  0  0  0  0  0  0  0  0  0
  -15.1630   18.1730    5.9840 C   0  0  0  0  0  1  0  0  0  0  0  0
  -16.4730   19.5930    7.6120 C   0  0  0  0  0  3  0  0  0  0  0  0
  -21.3360   17.5900   13.2300 N   0  0  0  0  0  0  0  0  0  0  0  0
  -20.8640   17.1410   11.9230 C   0  0  0  0  0  2  0  0  0  0  0  0
  -19.8490   18.1140   11.3320 C   0  0  0  0  0  2  0  0  0  0  0  0
  -20.3670   19.5700   11.3480 C   0  0  1  0  0  3  0  0  0  0  0  0
  -20.8140   19.9490   12.7590 C   0  0  0  0  0  2  0  0  0  0  0  0
  -21.8350   18.9520   13.3130 C   0  0  0  0  0  2  0  0  0  0  0  0
  -20.9340   17.5280   15.6140 C   0  0  0  0  0  0  0  0  0  0  0  0
  -20.1180   17.0470   16.6290 C   0  0  0  0  0  0  0  0  0  0  0  0
  -20.3500   17.3290   17.9620 N   0  0  0  0  0  0  0  0  0  0  0  0
  -19.0850   16.2290   16.4050 N   0  0  0  0  0  0  0  0  0  0  0  0
  -18.8460   15.9170   15.1300 C   0  0  0  0  0  3  0  0  0  0  0  0
  -19.5300   16.3510   14.0670 N   0  0  0  0  0  0  0  0  0  0  0  0
  -20.5840   17.1470   14.3190 C   0  0  0  0  0  0  0  0  0  0  0  0
  -19.6820   16.8760   18.5750 H   0  0  0  0  0  0  0  0  0  0  0  0
  -20.6260   18.2660   18.2130 H   0  0  0  0  0  0  0  0  0  0  0  0
  -23.3380   17.6430   16.3350 C   0  0  0  0  0  1  0  0  0  0  0  0
  -22.1120   18.4270   15.8890 C   0  0  0  0  0  2  0  0  0  0  0  0
  -19.2580   22.6630   12.0100 C   0  0  0  0  0  2  0  0  0  0  0  0
  -20.2920   23.6220   11.4280 C   0  0  0  0  0  3  0  0  0  0  0  0
  -20.5820   24.9500   12.1630 C   0  0  0  0  0  2  0  0  0  0  0  0
  -20.7330   25.5970   10.8460 N   0  0  0  0  0  4  0  0  0  0  0  0
  -19.9980   26.8870   10.7920 C   0  0  0  0  0  1  0  0  0  0  0  0
  -19.9610   24.5130   10.2100 C   0  0  0  0  0  2  0  0  0  0  0  0
  -21.7060   25.6690   10.5220 H   0  0  0  0  0  0  0  0  0  0  0  0
  1  2  1  6  0  0  0
  1  5  1  0  0  0  0
  1 17  1  0  0  0  0
  3  6  1  6  0  0  0
  3  2  1  0  0  0  0
  3  4  1  0  0  0  0
  4  5  1  0  0  0  0
  5 31  1  0  0  0  0
  7  6  2  0  0  0  0
  8  7  1  0  0  0  0
  9  8  2  0  0  0  0
  9 11  1  0  0  0  0
 10  9  1  0  0  0  0
 11 13  2  0  0  0  0
 12 11  1  0  0  0  0
 13  6  1  0  0  0  0
 14 19  1  0  0  0  0
 14 26  1  0  0  0  0
 15 14  1  0  0  0  0
 16 15  1  0  0  0  0
 17 16  1  1  0  0  0
 17 18  1  0  0  0  0
 18 19  1  0  0  0  0
 20 30  1  0  0  0  0
 20 21  1  0  0  0  0
 21 22  1  0  0  0  0
 22 28  1  0  0  0  0
 22 27  1  0  0  0  0
 23 21  2  0  0  0  0
 24 23  1  0  0  0  0
 25 26  1  0  0  0  0
 25 24  2  0  0  0  0
 26 20  2  0  0  0  0
 30 29  1  0  0  0  0
 32 31  1  0  0  0  0
 32 33  1  0  0  0  0
 34 33  1  0  0  0  0
 35 34  1  0  0  0  0
 36 34  1  0  0  0  0
 36 32  1  0  0  0  0
 37 34  1  0  0  0  0
M  END
>  <minimizedAffinity>
-10.0705547

$$$$

 OpenBabel11232420453D

 37 41  0  0  1  0  0  0  0  0999 V2000
  -20.1990   20.2500   11.7350 C   0  0  1  0  0  3  0  0  0  0  0  0
  -19.5990   19.5110   10.8140 N   0  0  0  0  0  2  0  0  0  0  0  0
  -19.0680   20.3650    9.8820 C   0  0  2  0  0  3  0  0  0  0  0  0
  -19.4710   21.6460   10.1630 C   0  0  0  0  0  2  0  0  0  0  0  0
  -20.3020   21.5420   11.2570 N   0  0  0  0  0  0  0  0  0  0  0  0
  -18.2490   19.9250    8.7640 C   0  0  0  0  0  0  0  0  0  0  0  0
  -17.6620   18.6510    8.8010 C   0  0  0  0  0  3  0  0  0  0  0  0
  -16.8870   18.1920    7.7350 C   0  0  0  0  0  3  0  0  0  0  0  0
  -16.6850   19.0090    6.6300 C   0  0  0  0  0  0  0  0  0  0  0  0
  -15.9490   18.5500    5.6090 F   0  0  0  0  0  0  0  0  0  0  0  0
  -17.2320   20.2920    6.5700 C   0  0  0  0  0  0  0  0  0  0  0  0
  -17.0080   21.1510    5.3630 C   0  0  0  0  0  1  0  0  0  0  0  0
  -18.0240   20.7390    7.6400 C   0  0  0  0  0  3  0  0  0  0  0  0
  -22.1200   17.8000   14.7490 N   0  0  0  0  0  0  0  0  0  0  0  0
  -22.7430   19.0720   14.3920 C   0  0  0  0  0  2  0  0  0  0  0  0
  -22.2020   19.6060   13.0680 C   0  0  0  0  0  2  0  0  0  0  0  0
  -20.6570   19.6330   13.0440 C   0  0  1  0  0  3  0  0  0  0  0  0
  -20.1060   18.2550   13.4090 C   0  0  0  0  0  2  0  0  0  0  0  0
  -20.6680   17.7580   14.7430 C   0  0  0  0  0  2  0  0  0  0  0  0
  -23.3260   15.7430   15.1470 C   0  0  0  0  0  0  0  0  0  0  0  0
  -23.9360   14.6380   14.5670 C   0  0  0  0  0  0  0  0  0  0  0  0
  -24.5460   13.6510   15.3170 N   0  0  0  0  0  0  0  0  0  0  0  0
  -24.0350   14.4730   13.2440 N   0  0  0  0  0  0  0  0  0  0  0  0
  -23.4770   15.4210   12.4890 C   0  0  0  0  0  3  0  0  0  0  0  0
  -22.8260   16.5020   12.9280 N   0  0  0  0  0  0  0  0  0  0  0  0
  -22.7670   16.6640   14.2610 C   0  0  0  0  0  0  0  0  0  0  0  0
  -24.9700   12.9330   14.7400 H   0  0  0  0  0  0  0  0  0  0  0  0
  -24.0890   13.3370   16.1590 H   0  0  0  0  0  0  0  0  0  0  0  0
  -24.3420   16.8490   17.1600 C   0  0  0  0  0  1  0  0  0  0  0  0
  -23.2500   15.9250   16.6400 C   0  0  0  0  0  2  0  0  0  0  0  0
  -21.2080   22.6170   11.6230 C   0  0  0  0  0  2  0  0  0  0  0  0
  -20.5050   23.8920   12.0800 C   0  0  0  0  0  3  0  0  0  0  0  0
  -19.0140   23.8240   12.4830 C   0  0  0  0  0  2  0  0  0  0  0  0
  -18.8310   25.1540   11.8710 N   0  0  0  0  0  4  0  0  0  0  0  0
  -17.6190   25.1910   11.0130 C   0  0  0  0  0  1  0  0  0  0  0  0
  -20.0520   24.9660   11.0650 C   0  0  0  0  0  2  0  0  0  0  0  0
  -18.8830   25.9350   12.5380 H   0  0  0  0  0  0  0  0  0  0  0  0
  1  2  1  6  0  0  0
  1 17  1  0  0  0  0
  3  6  1  6  0  0  0
  3  4  1  0  0  0  0
  3  2  1  0  0  0  0
  4  5  1  0  0  0  0
  5 31  1  0  0  0  0
  5  1  1  0  0  0  0
  6  7  1  0  0  0  0
  8  7  2  0  0  0  0
  9  8  1  0  0  0  0
 10  9  1  0  0  0  0
 11  9  2  0  0  0  0
 11 13  1  0  0  0  0
 12 11  1  0  0  0  0
 13  6  2  0  0  0  0
 15 14  1  0  0  0  0
 16 15  1  0  0  0  0
 17 16  1  6  0  0  0
 17 18  1  0  0  0  0
 18 19  1  0  0  0  0
 19 14  1  0  0  0  0
 20 30  1  0  0  0  0
 21 20  1  0  0  0  0
 21 22  1  0  0  0  0
 22 28  1  0  0  0  0
 23 21  2  0  0  0  0
 24 25  2  0  0  0  0
 24 23  1  0  0  0  0
 25 26  1  0  0  0  0
 26 14  1  0  0  0  0
 26 20  2  0  0  0  0
 27 22  1  0  0  0  0
 30 29  1  0  0  0  0
 31 32  1  0  0  0  0
 32 33  1  0  0  0  0
 34 33  1  0  0  0  0
 34 37  1  0  0  0  0
 35 34  1  0  0  0  0
 36 34  1  0  0  0  0
 36 32  1  0  0  0  0
M  END
>  <minimizedAffinity>
-9.75991726

$$$$

 OpenBabel11232420453D

 37 41  0  0  1  0  0  0  0  0999 V2000
  -19.6380   20.6890   10.9130 C   0  0  1  0  0  3  0  0  0  0  0  0
  -19.4890   21.8430   11.5430 N   0  0  0  0  0  2  0  0  0  0  0  0
  -18.8540   22.7030   10.6850 C   0  0  2  0  0  3  0  0  0  0  0  0
  -18.4810   22.0190    9.5560 C   0  0  0  0  0  2  0  0  0  0  0  0
  -18.8580   20.7120    9.7730 N   0  0  0  0  0  0  0  0  0  0  0  0
  -18.6010   24.1020   10.9900 C   0  0  0  0  0  0  0  0  0  0  0  0
  -19.5750   24.8440   11.6740 C   0  0  0  0  0  3  0  0  0  0  0  0
  -19.3550   26.1830   11.9990 C   0  0  0  0  0  3  0  0  0  0  0  0
  -18.1610   26.7910   11.6320 C   0  0  0  0  0  0  0  0  0  0  0  0
  -17.9590   28.0740   11.9620 F   0  0  0  0  0  0  0  0  0  0  0  0
  -17.1800   26.0920   10.9270 C   0  0  0  0  0  0  0  0  0  0  0  0
  -15.8970   26.7680   10.5500 C   0  0  0  0  0  1  0  0  0  0  0  0
  -17.4040   24.7400   10.6190 C   0  0  0  0  0  3  0  0  0  0  0  0
  -21.2690   17.3920   13.2040 N   0  0  0  0  0  0  0  0  0  0  0  0
  -20.6630   17.1000   11.9070 C   0  0  0  0  0  2  0  0  0  0  0  0
  -19.7900   18.2550   11.4260 C   0  0  0  0  0  2  0  0  0  0  0  0
  -20.5390   19.6070   11.4810 C   0  0  1  0  0  3  0  0  0  0  0  0
  -21.1150   19.8270   12.8800 C   0  0  0  0  0  2  0  0  0  0  0  0
  -21.9860   18.6500   13.3220 C   0  0  0  0  0  2  0  0  0  0  0  0
  -20.9290   17.3610   15.5970 C   0  0  0  0  0  0  0  0  0  0  0  0
  -20.1040   16.9500   16.6350 C   0  0  0  0  0  0  0  0  0  0  0  0
  -20.3950   17.2100   17.9610 N   0  0  0  0  0  0  0  0  0  0  0  0
  -18.9990   16.2230   16.4410 N   0  0  0  0  0  0  0  0  0  0  0  0
  -18.7000   15.9340   15.1730 C   0  0  0  0  0  3  0  0  0  0  0  0
  -19.3880   16.3100   14.0910 N   0  0  0  0  0  0  0  0  0  0  0  0
  -20.5120   17.0130   14.3130 C   0  0  0  0  0  0  0  0  0  0  0  0
  -19.7080   16.8140   18.5930 H   0  0  0  0  0  0  0  0  0  0  0  0
  -20.7560   18.1200   18.2030 H   0  0  0  0  0  0  0  0  0  0  0  0
  -23.3550   17.2690   16.2430 C   0  0  0  0  0  1  0  0  0  0  0  0
  -22.1860   18.1570   15.8390 C   0  0  0  0  0  2  0  0  0  0  0  0
  -18.3120   19.6250    8.9770 C   0  0  0  0  0  2  0  0  0  0  0  0
  -17.7110   20.0710    7.6470 C   0  0  0  0  0  3  0  0  0  0  0  0
  -16.2510   20.5780    7.6160 C   0  0  0  0  0  2  0  0  0  0  0  0
  -16.0950   19.9210    6.3050 N   0  0  0  0  0  4  0  0  0  0  0  0
  -14.8270   19.1480    6.2360 C   0  0  0  0  0  1  0  0  0  0  0  0
  -17.2430   19.0410    6.5940 C   0  0  0  0  0  2  0  0  0  0  0  0
  -16.2350   20.5460    5.5010 H   0  0  0  0  0  0  0  0  0  0  0  0
  1 17  1  0  0  0  0
  1  2  1  1  0  0  0
  3  6  1  1  0  0  0
  3  2  1  0  0  0  0
  4  5  1  0  0  0  0
  4  3  1  0  0  0  0
  5  1  1  0  0  0  0
  6  7  1  0  0  0  0
  7  8  2  0  0  0  0
  9 10  1  0  0  0  0
  9  8  1  0  0  0  0
 11  9  2  0  0  0  0
 12 11  1  0  0  0  0
 13 11  1  0  0  0  0
 13  6  2  0  0  0  0
 14 19  1  0  0  0  0
 14 26  1  0  0  0  0
 15 14  1  0  0  0  0
 16 15  1  0  0  0  0
 17 16  1  1  0  0  0
 17 18  1  0  0  0  0
 18 19  1  0  0  0  0
 20 30  1  0  0  0  0
 20 21  1  0  0  0  0
 21 22  1  0  0  0  0
 22 28  1  0  0  0  0
 22 27  1  0  0  0  0
 23 21  2  0  0  0  0
 24 23  1  0  0  0  0
 25 26  1  0  0  0  0
 25 24  2  0  0  0  0
 26 20  2  0  0  0  0
 30 29  1  0  0  0  0
 31  5  1  0  0  0  0
 32 31  1  0  0  0  0
 33 32  1  0  0  0  0
 34 36  1  0  0  0  0
 34 33  1  0  0  0  0
 35 34  1  0  0  0  0
 36 32  1  0  0  0  0
 37 34  1  0  0  0  0
M  END
>  <minimizedAffinity>
-9.48291779

$$$$

 OpenBabel11232420453D

 37 41  0  0  1  0  0  0  0  0999 V2000
  -18.7180   25.9020   11.4300 C   0  0  1  0  0  3  0  0  0  0  0  0
  -19.5150   26.7670   12.0380 N   0  0  0  0  0  2  0  0  0  0  0  0
  -18.9600   28.0120   11.8930 C   0  0  2  0  0  3  0  0  0  0  0  0
  -17.7250   27.8890   11.3070 C   0  0  0  0  0  2  0  0  0  0  0  0
  -17.5230   26.5360   11.1470 N   0  0  0  0  0  0  0  0  0  0  0  0
  -19.6000   29.2360   12.3480 C   0  0  0  0  0  0  0  0  0  0  0  0
  -19.5000   30.3960   11.5660 C   0  0  0  0  0  3  0  0  0  0  0  0
  -20.1200   31.5810   11.9650 C   0  0  0  0  0  3  0  0  0  0  0  0
  -20.8340   31.6150   13.1560 C   0  0  0  0  0  0  0  0  0  0  0  0
  -21.4340   32.7570   13.5200 F   0  0  0  0  0  0  0  0  0  0  0  0
  -20.9320   30.4870   13.9730 C   0  0  0  0  0  0  0  0  0  0  0  0
  -21.7170   30.5470   15.2480 C   0  0  0  0  0  1  0  0  0  0  0  0
  -20.3200   29.2950   13.5550 C   0  0  0  0  0  3  0  0  0  0  0  0
  -19.2100   21.8980    9.8490 N   0  0  0  0  0  0  0  0  0  0  0  0
  -20.0970   22.9490    9.3570 C   0  0  0  0  0  2  0  0  0  0  0  0
  -19.5490   24.3370    9.6790 C   0  0  0  0  0  2  0  0  0  0  0  0
  -19.1740   24.4770   11.1720 C   0  0  1  0  0  3  0  0  0  0  0  0
  -18.2310   23.3470   11.5820 C   0  0  0  0  0  2  0  0  0  0  0  0
  -18.8190   21.9740   11.2460 C   0  0  0  0  0  2  0  0  0  0  0  0
  -18.2420   20.2000    8.4250 C   0  0  0  0  0  0  0  0  0  0  0  0
  -17.2060   19.8830    7.5570 C   0  0  0  0  0  0  0  0  0  0  0  0
  -17.1060   18.6500    6.9420 N   0  0  0  0  0  0  0  0  0  0  0  0
  -16.2610   20.7600    7.2020 N   0  0  0  0  0  0  0  0  0  0  0  0
  -16.3410   21.9700    7.7590 C   0  0  0  0  0  3  0  0  0  0  0  0
  -17.2600   22.3780    8.6390 N   0  0  0  0  0  0  0  0  0  0  0  0
  -18.2180   21.4890    8.9570 C   0  0  0  0  0  0  0  0  0  0  0  0
  -16.3110   18.5930    6.3160 H   0  0  0  0  0  0  0  0  0  0  0  0
  -17.3090   17.8250    7.4860 H   0  0  0  0  0  0  0  0  0  0  0  0
  -18.8830   18.2970    9.9340 C   0  0  0  0  0  1  0  0  0  0  0  0
  -19.3140   19.2070    8.7920 C   0  0  0  0  0  2  0  0  0  0  0  0
  -16.1970   25.9930   10.9030 C   0  0  0  0  0  2  0  0  0  0  0  0
  -15.9470   25.5970    9.4500 C   0  0  0  0  0  3  0  0  0  0  0  0
  -16.0860   26.6680    8.3450 C   0  0  0  0  0  2  0  0  0  0  0  0
  -14.9470   26.0390    7.6500 N   0  0  0  0  0  4  0  0  0  0  0  0
  -13.9650   27.0560    7.1920 C   0  0  0  0  0  1  0  0  0  0  0  0
  -14.5120   25.4040    8.9090 C   0  0  0  0  0  2  0  0  0  0  0  0
  -15.2190   25.3740    6.9150 H   0  0  0  0  0  0  0  0  0  0  0  0
  1  2  1  1  0  0  0
  3  2  1  0  0  0  0
  3  6  1  1  0  0  0
  4  3  1  0  0  0  0
  5  4  1  0  0  0  0
  5  1  1  0  0  0  0
  6 13  1  0  0  0  0
  7  8  1  0  0  0  0
  7  6  2  0  0  0  0
  8  9  2  0  0  0  0
  9 10  1  0  0  0  0
  9 11  1  0  0  0  0
 11 12  1  0  0  0  0
 13 11  2  0  0  0  0
 14 19  1  0  0  0  0
 15 16  1  0  0  0  0
 15 14  1  0  0  0  0
 17 16  1  6  0  0  0
 17  1  1  0  0  0  0
 17 18  1  0  0  0  0
 19 18  1  0  0  0  0
 20 30  1  0  0  0  0
 20 26  1  0  0  0  0
 21 20  2  0  0  0  0
 22 28  1  0  0  0  0
 22 21  1  0  0  0  0
 23 21  1  0  0  0  0
 23 24  2  0  0  0  0
 24 25  1  0  0  0  0
 25 26  2  0  0  0  0
 26 14  1  0  0  0  0
 27 22  1  0  0  0  0
 30 29  1  0  0  0  0
 31  5  1  0  0  0  0
 32 31  1  0  0  0  0
 33 32  1  0  0  0  0
 34 33  1  0  0  0  0
 34 36  1  0  0  0  0
 35 34  1  0  0  0  0
 36 32  1  0  0  0  0
 37 34  1  0  0  0  0
M  END
>  <minimizedAffinity>
-9.40812492

$$$$

 OpenBabel11232420453D

 37 41  0  0  1  0  0  0  0  0999 V2000
  -20.0750   24.8780   10.8830 C   0  0  1  0  0  3  0  0  0  0  0  0
  -20.9220   24.0500   11.4740 N   0  0  0  0  0  2  0  0  0  0  0  0
  -20.3670   22.7970   11.4360 C   0  0  2  0  0  3  0  0  0  0  0  0
  -19.2210   22.8340   10.6820 C   0  0  0  0  0  2  0  0  0  0  0  0
  -19.1230   24.1280   10.2210 N   0  0  0  0  0  0  0  0  0  0  0  0
  -20.9630   21.6340   12.0740 C   0  0  0  0  0  0  0  0  0  0  0  0
  -22.2510   21.7350   12.6220 C   0  0  0  0  0  3  0  0  0  0  0  0
  -22.8590   20.6320   13.2240 C   0  0  0  0  0  3  0  0  0  0  0  0
  -22.1770   19.4240   13.2900 C   0  0  0  0  0  0  0  0  0  0  0  0
  -22.7790   18.3700   13.8590 F   0  0  0  0  0  0  0  0  0  0  0  0
  -20.8850   19.2930   12.7790 C   0  0  0  0  0  0  0  0  0  0  0  0
  -20.1750   17.9760   12.8530 C   0  0  0  0  0  1  0  0  0  0  0  0
  -20.2880   20.4030   12.1600 C   0  0  0  0  0  3  0  0  0  0  0  0
  -19.4790   29.1230   11.5200 N   0  0  0  0  0  0  0  0  0  0  0  0
  -20.0420   28.3320   12.6120 C   0  0  0  0  0  2  0  0  0  0  0  0
  -19.8100   26.8390   12.3970 C   0  0  0  0  0  2  0  0  0  0  0  0
  -20.2610   26.3820   10.9910 C   0  0  1  0  0  3  0  0  0  0  0  0
  -19.6030   27.2540    9.9220 C   0  0  0  0  0  2  0  0  0  0  0  0
  -19.8630   28.7420   10.1720 C   0  0  0  0  0  2  0  0  0  0  0  0
  -17.7940   30.8560   11.5640 C   0  0  0  0  0  0  0  0  0  0  0  0
  -16.4470   31.1430   11.7390 C   0  0  0  0  0  0  0  0  0  0  0  0
  -15.9480   32.4290   11.6580 N   0  0  0  0  0  0  0  0  0  0  0  0
  -15.5400   30.2140   12.0570 N   0  0  0  0  0  0  0  0  0  0  0  0
  -15.9920   28.9630   12.1660 C   0  0  0  0  0  3  0  0  0  0  0  0
  -17.2510   28.5570   11.9780 N   0  0  0  0  0  0  0  0  0  0  0  0
  -18.1510   29.5130   11.6910 C   0  0  0  0  0  0  0  0  0  0  0  0
  -14.9510   32.4700   11.8420 H   0  0  0  0  0  0  0  0  0  0  0  0
  -16.2940   33.0340   10.9290 H   0  0  0  0  0  0  0  0  0  0  0  0
  -18.8750   32.2000    9.7390 C   0  0  0  0  0  1  0  0  0  0  0  0
  -18.8060   31.9220   11.2340 C   0  0  0  0  0  2  0  0  0  0  0  0
  -18.2580   24.4690    9.1030 C   0  0  0  0  0  2  0  0  0  0  0  0
  -16.7900   24.6370    9.4840 C   0  0  0  0  0  3  0  0  0  0  0  0
  -15.7030   24.3850    8.4150 C   0  0  0  0  0  2  0  0  0  0  0  0
  -14.9300   25.4970    8.9980 N   0  0  0  0  0  4  0  0  0  0  0  0
  -14.4140   26.4080    7.9430 C   0  0  0  0  0  1  0  0  0  0  0  0
  -16.1530   26.0380    9.6210 C   0  0  0  0  0  2  0  0  0  0  0  0
  -14.2100   25.2020    9.6700 H   0  0  0  0  0  0  0  0  0  0  0  0
  1 17  1  0  0  0  0
  1  2  1  6  0  0  0
  3  2  1  0  0  0  0
  3  6  1  6  0  0  0
  4  3  1  0  0  0  0
  5  4  1  0  0  0  0
  5  1  1  0  0  0  0
  6 13  2  0  0  0  0
  6  7  1  0  0  0  0
  7  8  2  0  0  0  0
  8  9  1  0  0  0  0
  9 10  1  0  0  0  0
 11 12  1  0  0  0  0
 11  9  2  0  0  0  0
 13 11  1  0  0  0  0
 14 26  1  0  0  0  0
 14 15  1  0  0  0  0
 16 15  1  0  0  0  0
 17 18  1  6  0  0  0
 17 16  1  0  0  0  0
 18 19  1  0  0  0  0
 19 14  1  0  0  0  0
 20 26  2  0  0  0  0
 20 21  1  0  0  0  0
 21 23  2  0  0  0  0
 22 21  1  0  0  0  0
 22 27  1  0  0  0  0
 23 24  1  0  0  0  0
 25 24  2  0  0  0  0
 26 25  1  0  0  0  0
 28 22  1  0  0  0  0
 29 30  1  0  0  0  0
 30 20  1  0  0  0  0
 31 32  1  0  0  0  0
 31  5  1  0  0  0  0
 32 36  1  0  0  0  0
 33 34  1  0  0  0  0
 33 32  1  0  0  0  0
 34 36  1  0  0  0  0
 34 37  1  0  0  0  0
 35 34  1  0  0  0  0
M  END
>  <minimizedAffinity>
-9.33441067

$$$$

 OpenBabel11232420453D

 37 41  0  0  1  0  0  0  0  0999 V2000
  -19.5050   23.9020   10.6580 C   0  0  1  0  0  3  0  0  0  0  0  0
  -20.4730   23.2080   11.2370 N   0  0  0  0  0  2  0  0  0  0  0  0
  -19.9770   21.9610   11.5140 C   0  0  2  0  0  3  0  0  0  0  0  0
  -18.7250   21.8410   10.9660 C   0  0  0  0  0  2  0  0  0  0  0  0
  -18.4950   23.0280   10.3050 N   0  0  0  0  0  0  0  0  0  0  0  0
  -20.7200   20.9430   12.2400 C   0  0  0  0  0  0  0  0  0  0  0  0
  -22.0190   21.2290   12.6860 C   0  0  0  0  0  3  0  0  0  0  0  0
  -22.7660   20.2670   13.3690 C   0  0  0  0  0  3  0  0  0  0  0  0
  -22.2140   19.0170   13.6180 C   0  0  0  0  0  0  0  0  0  0  0  0
  -22.9480   18.1000   14.2630 F   0  0  0  0  0  0  0  0  0  0  0  0
  -20.9150   18.7070   13.2120 C   0  0  0  0  0  0  0  0  0  0  0  0
  -20.3440   17.3490   13.4840 C   0  0  0  0  0  1  0  0  0  0  0  0
  -20.1770   19.6750   12.5110 C   0  0  0  0  0  3  0  0  0  0  0  0
  -19.1970   28.2050   11.0630 N   0  0  0  0  0  0  0  0  0  0  0  0
  -20.3520   27.5360   11.6560 C   0  0  0  0  0  2  0  0  0  0  0  0
  -20.1180   26.0340   11.7920 C   0  0  0  0  0  2  0  0  0  0  0  0
  -19.6360   25.4020   10.4660 C   0  0  1  0  0  3  0  0  0  0  0  0
  -18.4160   26.1580    9.9410 C   0  0  0  0  0  2  0  0  0  0  0  0
  -18.6940   27.6580    9.8150 C   0  0  0  0  0  2  0  0  0  0  0  0
  -18.6160   29.3410   13.1170 C   0  0  0  0  0  0  0  0  0  0  0  0
  -17.5840   29.7470   13.9530 C   0  0  0  0  0  0  0  0  0  0  0  0
  -17.8120   30.4330   15.1310 N   0  0  0  0  0  0  0  0  0  0  0  0
  -16.3010   29.4580   13.7160 N   0  0  0  0  0  0  0  0  0  0  0  0
  -16.0470   28.7760   12.5980 C   0  0  0  0  0  3  0  0  0  0  0  0
  -16.9460   28.3700   11.6970 N   0  0  0  0  0  0  0  0  0  0  0  0
  -18.2330   28.6450   11.9710 C   0  0  0  0  0  0  0  0  0  0  0  0
  -16.9550   30.6270   15.6380 H   0  0  0  0  0  0  0  0  0  0  0  0
  -18.5100   31.1610   15.1360 H   0  0  0  0  0  0  0  0  0  0  0  0
  -20.4830   30.9990   12.8450 C   0  0  0  0  0  1  0  0  0  0  0  0
  -20.0600   29.6520   13.4160 C   0  0  0  0  0  2  0  0  0  0  0  0
  -17.4480   23.1460    9.3040 C   0  0  0  0  0  2  0  0  0  0  0  0
  -17.1200   21.8360    8.5920 C   0  0  0  0  0  3  0  0  0  0  0  0
  -18.1290   21.2640    7.5720 C   0  0  0  0  0  2  0  0  0  0  0  0
  -16.9860   20.8140    6.7560 N   0  0  0  0  0  4  0  0  0  0  0  0
  -17.1770   21.1570    5.3230 C   0  0  0  0  0  1  0  0  0  0  0  0
  -16.1060   21.7900    7.4270 C   0  0  0  0  0  2  0  0  0  0  0  0
  -16.7200   19.8330    6.9080 H   0  0  0  0  0  0  0  0  0  0  0  0
  1  2  1  6  0  0  0
  2  3  1  0  0  0  0
  3  6  1  6  0  0  0
  4  3  1  0  0  0  0
  5  1  1  0  0  0  0
  5  4  1  0  0  0  0
  6 13  2  0  0  0  0
  6  7  1  0  0  0  0
  7  8  2  0  0  0  0
  8  9  1  0  0  0  0
  9 10  1  0  0  0  0
 11 12  1  0  0  0  0
 11  9  2  0  0  0  0
 13 11  1  0  0  0  0
 14 15  1  0  0  0  0
 14 26  1  0  0  0  0
 15 16  1  0  0  0  0
 17 18  1  1  0  0  0
 17  1  1  0  0  0  0
 17 16  1  0  0  0  0
 19 18  1  0  0  0  0
 19 14  1  0  0  0  0
 20 30  1  0  0  0  0
 20 21  1  0  0  0  0
 21 22  1  0  0  0  0
 22 28  1  0  0  0  0
 22 27  1  0  0  0  0
 23 21  2  0  0  0  0
 24 23  1  0  0  0  0
 25 26  1  0  0  0  0
 25 24  2  0  0  0  0
 26 20  2  0  0  0  0
 29 30  1  0  0  0  0
 31  5  1  0  0  0  0
 32 31  1  0  0  0  0
 33 32  1  0  0  0  0
 34 37  1  0  0  0  0
 34 36  1  0  0  0  0
 34 33  1  0  0  0  0
 35 34  1  0  0  0  0
 36 32  1  0  0  0  0
M  END
>  <minimizedAffinity>
-9.30187607

$$$$

 OpenBabel11232420453D

 37 41  0  0  1  0  0  0  0  0999 V2000
  -19.3800   26.0250   11.2760 C   0  0  1  0  0  3  0  0  0  0  0  0
  -20.1650   24.9580   11.2840 N   0  0  0  0  0  2  0  0  0  0  0  0
  -19.3730   23.8660   11.5250 C   0  0  2  0  0  3  0  0  0  0  0  0
  -18.0570   24.2540   11.5240 C   0  0  0  0  0  2  0  0  0  0  0  0
  -18.0670   25.5980   11.2250 N   0  0  0  0  0  0  0  0  0  0  0  0
  -19.8940   22.5190   11.7020 C   0  0  0  0  0  0  0  0  0  0  0  0
  -19.0890   21.4220   11.3620 C   0  0  0  0  0  3  0  0  0  0  0  0
  -19.5520   20.1170   11.5380 C   0  0  0  0  0  3  0  0  0  0  0  0
  -20.8270   19.9020   12.0450 C   0  0  0  0  0  0  0  0  0  0  0  0
  -21.2530   18.6440   12.2200 F   0  0  0  0  0  0  0  0  0  0  0  0
  -21.6650   20.9710   12.3700 C   0  0  0  0  0  0  0  0  0  0  0  0
  -23.0320   20.7130   12.9250 C   0  0  0  0  0  1  0  0  0  0  0  0
  -21.1840   22.2800   12.2060 C   0  0  0  0  0  3  0  0  0  0  0  0
  -19.9690   30.3030   11.6250 N   0  0  0  0  0  0  0  0  0  0  0  0
  -20.2530   29.4690   12.7900 C   0  0  0  0  0  2  0  0  0  0  0  0
  -19.6220   28.0860   12.6530 C   0  0  0  0  0  2  0  0  0  0  0  0
  -19.9730   27.4220   11.3020 C   0  0  1  0  0  3  0  0  0  0  0  0
  -19.6190   28.3630   10.1510 C   0  0  0  0  0  2  0  0  0  0  0  0
  -20.2750   29.7350   10.3240 C   0  0  0  0  0  2  0  0  0  0  0  0
  -18.7970   32.2870   12.3600 C   0  0  0  0  0  0  0  0  0  0  0  0
  -17.5870   32.9660   12.3740 C   0  0  0  0  0  0  0  0  0  0  0  0
  -17.4320   34.1890   12.9990 N   0  0  0  0  0  0  0  0  0  0  0  0
  -16.4670   32.4680   11.8410 N   0  0  0  0  0  0  0  0  0  0  0  0
  -16.5750   31.2770   11.2500 C   0  0  0  0  0  3  0  0  0  0  0  0
  -17.6900   30.5490   11.1330 N   0  0  0  0  0  0  0  0  0  0  0  0
  -18.7970   31.0560   11.7040 C   0  0  0  0  0  0  0  0  0  0  0  0
  -16.4790   34.5340   12.9440 H   0  0  0  0  0  0  0  0  0  0  0  0
  -18.1630   34.8760   12.8970 H   0  0  0  0  0  0  0  0  0  0  0  0
  -20.0690   32.6360   14.4980 C   0  0  0  0  0  1  0  0  0  0  0  0
  -20.0430   32.8530   12.9910 C   0  0  0  0  0  2  0  0  0  0  0  0
  -16.8660   26.2820   10.7740 C   0  0  0  0  0  2  0  0  0  0  0  0
  -16.1830   25.6140    9.5840 C   0  0  0  0  0  3  0  0  0  0  0  0
  -16.2610   26.2910    8.1970 C   0  0  0  0  0  2  0  0  0  0  0  0
  -14.8790   25.8420    7.9450 N   0  0  0  0  0  4  0  0  0  0  0  0
  -14.0490   26.9370    7.3810 C   0  0  0  0  0  1  0  0  0  0  0  0
  -14.6510   25.6890    9.3950 C   0  0  0  0  0  2  0  0  0  0  0  0
  -14.8130   24.9640    7.4140 H   0  0  0  0  0  0  0  0  0  0  0  0
  1  2  1  6  0  0  0
  1 17  1  0  0  0  0
  2  3  1  0  0  0  0
  3  6  1  6  0  0  0
  4  3  1  0  0  0  0
  5  1  1  0  0  0  0
  5  4  1  0  0  0  0
  6 13  1  0  0  0  0
  7  8  1  0  0  0  0
  7  6  2  0  0  0  0
  8  9  2  0  0  0  0
  9 10  1  0  0  0  0
  9 11  1  0  0  0  0
 11 12  1  0  0  0  0
 13 11  2  0  0  0  0
 14 26  1  0  0  0  0
 14 15  1  0  0  0  0
 16 15  1  0  0  0  0
 17 18  1  6  0  0  0
 17 16  1  0  0  0  0
 18 19  1  0  0  0  0
 19 14  1  0  0  0  0
 20 21  1  0  0  0  0
 20 30  1  0  0  0  0
 21 22  1  0  0  0  0
 23 21  2  0  0  0  0
 24 23  1  0  0  0  0
 25 24  2  0  0  0  0
 25 26  1  0  0  0  0
 26 20  2  0  0  0  0
 27 22  1  0  0  0  0
 28 22  1  0  0  0  0
 30 29  1  0  0  0  0
 31  5  1  0  0  0  0
 32 31  1  0  0  0  0
 33 32  1  0  0  0  0
 34 33  1  0  0  0  0
 34 36  1  0  0  0  0
 35 34  1  0  0  0  0
 36 32  1  0  0  0  0
 37 34  1  0  0  0  0
M  END
>  <minimizedAffinity>
-9.22668266

$$$$
