
 OpenBabel11232420453D

 37 41  0  0  1  0  0  0  0  0999 V2000
  -20.1990   20.2500   11.7350 C   0  0  1  0  0  3  0  0  0  0  0  0
  -19.5990   19.5110   10.8140 N   0  0  0  0  0  2  0  0  0  0  0  0
  -19.0680   20.3650    9.8820 C   0  0  2  0  0  3  0  0  0  0  0  0
  -19.4710   21.6460   10.1630 C   0  0  0  0  0  2  0  0  0  0  0  0
  -20.3020   21.5420   11.2570 N   0  0  0  0  0  0  0  0  0  0  0  0
  -18.2490   19.9250    8.7640 C   0  0  0  0  0  0  0  0  0  0  0  0
  -17.6620   18.6510    8.8010 C   0  0  0  0  0  3  0  0  0  0  0  0
  -16.8870   18.1920    7.7350 C   0  0  0  0  0  3  0  0  0  0  0  0
  -16.6850   19.0090    6.6300 C   0  0  0  0  0  0  0  0  0  0  0  0
  -15.9490   18.5500    5.6090 F   0  0  0  0  0  0  0  0  0  0  0  0
  -17.2320   20.2920    6.5700 C   0  0  0  0  0  0  0  0  0  0  0  0
  -17.0080   21.1510    5.3630 C   0  0  0  0  0  1  0  0  0  0  0  0
  -18.0240   20.7390    7.6400 C   0  0  0  0  0  3  0  0  0  0  0  0
  -22.1200   17.8000   14.7490 N   0  0  0  0  0  0  0  0  0  0  0  0
  -22.7430   19.0720   14.3920 C   0  0  0  0  0  2  0  0  0  0  0  0
  -22.2020   19.6060   13.0680 C   0  0  0  0  0  2  0  0  0  0  0  0
  -20.6570   19.6330   13.0440 C   0  0  1  0  0  3  0  0  0  0  0  0
  -20.1060   18.2550   13.4090 C   0  0  0  0  0  2  0  0  0  0  0  0
  -20.6680   17.7580   14.7430 C   0  0  0  0  0  2  0  0  0  0  0  0
  -23.3260   15.7430   15.1470 C   0  0  0  0  0  0  0  0  0  0  0  0
  -23.9360   14.6380   14.5670 C   0  0  0  0  0  0  0  0  0  0  0  0
  -24.5460   13.6510   15.3170 N   0  0  0  0  0  0  0  0  0  0  0  0
  -24.0350   14.4730   13.2440 N   0  0  0  0  0  0  0  0  0  0  0  0
  -23.4770   15.4210   12.4890 C   0  0  0  0  0  3  0  0  0  0  0  0
  -22.8260   16.5020   12.9280 N   0  0  0  0  0  0  0  0  0  0  0  0
  -22.7670   16.6640   14.2610 C   0  0  0  0  0  0  0  0  0  0  0  0
  -24.9700   12.9330   14.7400 H   0  0  0  0  0  0  0  0  0  0  0  0
  -24.0890   13.3370   16.1590 H   0  0  0  0  0  0  0  0  0  0  0  0
  -24.3420   16.8490   17.1600 C   0  0  0  0  0  1  0  0  0  0  0  0
  -23.2500   15.9250   16.6400 C   0  0  0  0  0  2  0  0  0  0  0  0
  -21.2080   22.6170   11.6230 C   0  0  0  0  0  2  0  0  0  0  0  0
  -20.5050   23.8920   12.0800 C   0  0  0  0  0  3  0  0  0  0  0  0
  -19.0140   23.8240   12.4830 C   0  0  0  0  0  2  0  0  0  0  0  0
  -18.8310   25.1540   11.8710 N   0  0  0  0  0  4  0  0  0  0  0  0
  -17.6190   25.1910   11.0130 C   0  0  0  0  0  1  0  0  0  0  0  0
  -20.0520   24.9660   11.0650 C   0  0  0  0  0  2  0  0  0  0  0  0
  -18.8830   25.9350   12.5380 H   0  0  0  0  0  0  0  0  0  0  0  0
  1  2  1  6  0  0  0
  1 17  1  0  0  0  0
  3  6  1  6  0  0  0
  3  4  1  0  0  0  0
  3  2  1  0  0  0  0
  4  5  1  0  0  0  0
  5 31  1  0  0  0  0
  5  1  1  0  0  0  0
  6  7  1  0  0  0  0
  8  7  2  0  0  0  0
  9  8  1  0  0  0  0
 10  9  1  0  0  0  0
 11  9  2  0  0  0  0
 11 13  1  0  0  0  0
 12 11  1  0  0  0  0
 13  6  2  0  0  0  0
 15 14  1  0  0  0  0
 16 15  1  0  0  0  0
 17 16  1  6  0  0  0
 17 18  1  0  0  0  0
 18 19  1  0  0  0  0
 19 14  1  0  0  0  0
 20 30  1  0  0  0  0
 21 20  1  0  0  0  0
 21 22  1  0  0  0  0
 22 28  1  0  0  0  0
 23 21  2  0  0  0  0
 24 25  2  0  0  0  0
 24 23  1  0  0  0  0
 25 26  1  0  0  0  0
 26 14  1  0  0  0  0
 26 20  2  0  0  0  0
 27 22  1  0  0  0  0
 30 29  1  0  0  0  0
 31 32  1  0  0  0  0
 32 33  1  0  0  0  0
 34 33  1  0  0  0  0
 34 37  1  0  0  0  0
 35 34  1  0  0  0  0
 36 34  1  0  0  0  0
 36 32  1  0  0  0  0
M  END
>  <minimizedAffinity>
-9.75991726

$$$$
