
 OpenBabel11232420533D

 38 42  0  0  1  0  0  0  0  0999 V2000
  -18.8260   24.2460   10.4440 C   0  0  0  0  0  0  0  0  0  0  0  0
  -18.6590   25.5530   10.4220 N   0  0  0  0  0  0  0  0  0  0  0  0
  -19.0660   26.0390   11.6380 C   0  0  0  0  0  0  0  0  0  0  0  0
  -19.5460   25.0060   12.4100 C   0  0  0  0  0  3  0  0  0  0  0  0
  -19.4080   23.8760   11.6410 N   0  0  0  0  0  0  0  0  0  0  0  0
  -18.9820   27.4460   11.9940 C   0  0  0  0  0  0  0  0  0  0  0  0
  -20.1130   28.1970   12.3520 C   0  0  0  0  0  3  0  0  0  0  0  0
  -19.9910   29.5450   12.6990 C   0  0  0  0  0  3  0  0  0  0  0  0
  -18.7390   30.1510   12.6910 C   0  0  0  0  0  0  0  0  0  0  0  0
  -18.6480   31.4460   13.0270 F   0  0  0  0  0  0  0  0  0  0  0  0
  -17.6060   29.4230   12.3410 C   0  0  0  0  0  0  0  0  0  0  0  0
  -16.0530   30.1670   12.3280 Cl  0  0  0  0  0  0  0  0  0  0  0  0
  -17.7260   28.0770   11.9960 C   0  0  0  0  0  3  0  0  0  0  0  0
  -18.1230   20.7570    8.1280 N   0  0  0  0  0  0  0  0  0  0  0  0
  -16.9020   21.4520    8.5470 C   0  0  0  0  0  2  0  0  0  0  0  0
  -17.1990   22.4850    9.6330 C   0  0  0  0  0  2  0  0  0  0  0  0
  -18.4190   23.3560    9.2930 C   0  0  1  0  0  3  0  0  0  0  0  0
  -19.6080   22.5830    8.7080 C   0  0  0  0  0  2  0  0  0  0  0  0
  -19.1720   21.6260    7.6070 C   0  0  0  0  0  2  0  0  0  0  0  0
  -17.8450   18.3920    8.6090 C   0  0  0  0  0  0  0  0  0  0  0  0
  -18.3100   17.3170    9.3620 C   0  0  0  0  0  0  0  0  0  0  0  0
  -17.8110   16.0370    9.2140 N   0  0  0  0  0  0  0  0  0  0  0  0
  -19.3040   17.4230   10.2490 N   0  0  0  0  0  0  0  0  0  0  0  0
  -19.7860   18.6460   10.4420 C   0  0  0  0  0  3  0  0  0  0  0  0
  -19.5020   19.7250    9.7100 N   0  0  0  0  0  0  0  0  0  0  0  0
  -18.4950   19.6100    8.8180 C   0  0  0  0  0  0  0  0  0  0  0  0
  -18.2470   15.3680    9.8390 H   0  0  0  0  0  0  0  0  0  0  0  0
  -16.8100   15.9310    9.1100 H   0  0  0  0  0  0  0  0  0  0  0  0
  -16.9290   18.6440    6.2850 C   0  0  0  0  0  1  0  0  0  0  0  0
  -16.6260   18.2590    7.7270 C   0  0  0  0  0  2  0  0  0  0  0  0
  -19.8280   22.5590   12.0780 C   0  0  0  0  0  2  0  0  0  0  0  0
  -21.3200   22.3170   11.8410 C   0  0  0  0  0  2  0  0  0  0  0  0
  -21.7020   20.8960   12.2110 N   0  0  0  0  0  4  0  0  0  0  0  0
  -23.0110   20.7790   12.9800 C   0  0  0  0  0  2  0  0  0  0  0  0
  -22.7060   19.8630   14.1530 C   0  0  0  0  0  2  0  0  0  0  0  0
  -21.4790   19.0860   13.7220 C   0  0  0  0  0  2  0  0  0  0  0  0
  -20.6620   20.1340   12.9990 C   0  0  0  0  0  2  0  0  0  0  0  0
  -21.8600   20.3700   11.3330 H   0  0  0  0  0  0  0  0  0  0  0  0
  1  5  1  0  0  0  0
  2  1  2  0  0  0  0
  2  3  1  0  0  0  0
  3  6  1  0  0  0  0
  3  4  2  0  0  0  0
  5 31  1  0  0  0  0
  5  4  1  0  0  0  0
  6 13  2  0  0  0  0
  6  7  1  0  0  0  0
  7  8  2  0  0  0  0
  9  8  1  0  0  0  0
  9 10  1  0  0  0  0
 11  9  2  0  0  0  0
 12 11  1  0  0  0  0
 13 11  1  0  0  0  0
 14 15  1  0  0  0  0
 14 26  1  0  0  0  0
 15 16  1  0  0  0  0
 17 16  1  0  0  0  0
 17  1  1  1  0  0  0
 18 17  1  0  0  0  0
 19 14  1  0  0  0  0
 19 18  1  0  0  0  0
 20 26  2  0  0  0  0
 20 21  1  0  0  0  0
 21 23  2  0  0  0  0
 22 21  1  0  0  0  0
 22 27  1  0  0  0  0
 23 24  1  0  0  0  0
 25 24  2  0  0  0  0
 26 25  1  0  0  0  0
 28 22  1  0  0  0  0
 29 30  1  0  0  0  0
 30 20  1  0  0  0  0
 32 31  1  0  0  0  0
 32 33  1  0  0  0  0
 33 34  1  0  0  0  0
 33 37  1  0  0  0  0
 34 35  1  0  0  0  0
 36 35  1  0  0  0  0
 37 36  1  0  0  0  0
 38 33  1  0  0  0  0
M  END
>  <minimizedAffinity>
-9.09234047

$$$$
