
 OpenBabel11232420533D

 38 42  0  0  1  0  0  0  0  0999 V2000
  -21.1620   17.1190   14.3130 C   0  0  0  0  0  0  0  0  0  0  0  0
  -20.5020   16.8060   13.2150 N   0  0  0  0  0  0  0  0  0  0  0  0
  -20.4180   17.9400   12.4500 C   0  0  0  0  0  0  0  0  0  0  0  0
  -21.0910   18.9670   13.0710 C   0  0  0  0  0  3  0  0  0  0  0  0
  -21.5750   18.4360   14.2410 N   0  0  0  0  0  0  0  0  0  0  0  0
  -19.7130   17.9840   11.1790 C   0  0  0  0  0  0  0  0  0  0  0  0
  -19.0940   16.8500   10.6270 C   0  0  0  0  0  3  0  0  0  0  0  0
  -18.4350   16.9290    9.3960 C   0  0  0  0  0  3  0  0  0  0  0  0
  -18.3910   18.1380    8.7110 C   0  0  0  0  0  0  0  0  0  0  0  0
  -17.7520   18.1880    7.5330 F   0  0  0  0  0  0  0  0  0  0  0  0
  -19.0010   19.2710    9.2410 C   0  0  0  0  0  0  0  0  0  0  0  0
  -18.9500   20.7710    8.3970 Cl  0  0  0  0  0  0  0  0  0  0  0  0
  -19.6600   19.1950   10.4680 C   0  0  0  0  0  3  0  0  0  0  0  0
  -20.5570   13.8690   16.9770 N   0  0  0  0  0  0  0  0  0  0  0  0
  -21.6660   13.6740   16.0400 C   0  0  0  0  0  2  0  0  0  0  0  0
  -21.6260   14.7040   14.9120 C   0  0  0  0  0  2  0  0  0  0  0  0
  -21.3900   16.1310   15.4320 C   0  0  1  0  0  3  0  0  0  0  0  0
  -20.3230   16.2390   16.5290 C   0  0  0  0  0  2  0  0  0  0  0  0
  -20.5140   15.1840   17.6090 C   0  0  0  0  0  2  0  0  0  0  0  0
  -19.1170   11.9220   17.1730 C   0  0  0  0  0  0  0  0  0  0  0  0
  -17.8770   11.3810   16.8460 C   0  0  0  0  0  0  0  0  0  0  0  0
  -17.4720   10.1340   17.2840 N   0  0  0  0  0  0  0  0  0  0  0  0
  -16.9610   12.0380   16.1260 N   0  0  0  0  0  0  0  0  0  0  0  0
  -17.3270   13.2260   15.6590 C   0  0  0  0  0  3  0  0  0  0  0  0
  -18.4360   13.8910   15.9930 N   0  0  0  0  0  0  0  0  0  0  0  0
  -19.3570   13.2200   16.7170 C   0  0  0  0  0  0  0  0  0  0  0  0
  -16.5470    9.8810   16.9550 H   0  0  0  0  0  0  0  0  0  0  0  0
  -18.1510    9.3850   17.2630 H   0  0  0  0  0  0  0  0  0  0  0  0
  -20.1530   11.2910   19.3700 C   0  0  0  0  0  1  0  0  0  0  0  0
  -20.1740   11.0910   17.8610 C   0  0  0  0  0  2  0  0  0  0  0  0
  -22.3760   19.1880   15.1860 C   0  0  0  0  0  2  0  0  0  0  0  0
  -23.2800   18.2860   16.0300 C   0  0  0  0  0  2  0  0  0  0  0  0
  -23.0030   18.4750   17.5090 N   0  0  0  0  0  4  0  0  0  0  0  0
  -24.0080   19.3660   18.2250 C   0  0  0  0  0  2  0  0  0  0  0  0
  -23.1710   20.3400   19.0390 C   0  0  0  0  0  2  0  0  0  0  0  0
  -21.8310   19.6520   19.1970 C   0  0  0  0  0  2  0  0  0  0  0  0
  -21.6290   19.0080   17.8440 C   0  0  0  0  0  2  0  0  0  0  0  0
  -23.0880   17.5520   17.9690 H   0  0  0  0  0  0  0  0  0  0  0  0
  2  1  2  0  0  0  0
  3  4  2  0  0  0  0
  3  2  1  0  0  0  0
  4  5  1  0  0  0  0
  5  1  1  0  0  0  0
  5 31  1  0  0  0  0
  6  3  1  0  0  0  0
  7  6  1  0  0  0  0
  8  7  2  0  0  0  0
  9 11  2  0  0  0  0
  9  8  1  0  0  0  0
 10  9  1  0  0  0  0
 11 13  1  0  0  0  0
 12 11  1  0  0  0  0
 13  6  2  0  0  0  0
 14 19  1  0  0  0  0
 15 14  1  0  0  0  0
 16 17  1  0  0  0  0
 16 15  1  0  0  0  0
 17  1  1  6  0  0  0
 17 18  1  0  0  0  0
 18 19  1  0  0  0  0
 20 30  1  0  0  0  0
 21 20  1  0  0  0  0
 21 22  1  0  0  0  0
 23 21  2  0  0  0  0
 24 25  2  0  0  0  0
 24 23  1  0  0  0  0
 25 26  1  0  0  0  0
 26 14  1  0  0  0  0
 26 20  2  0  0  0  0
 27 22  1  0  0  0  0
 28 22  1  0  0  0  0
 30 29  1  0  0  0  0
 31 32  1  0  0  0  0
 32 33  1  0  0  0  0
 33 37  1  0  0  0  0
 33 38  1  0  0  0  0
 33 34  1  0  0  0  0
 34 35  1  0  0  0  0
 35 36  1  0  0  0  0
 37 36  1  0  0  0  0
M  END
>  <minimizedAffinity>
-8.94796467

$$$$
