
 OpenBabel11232420533D

 38 42  0  0  1  0  0  0  0  0999 V2000
  -20.3170   19.3470   11.4870 C   0  0  0  0  0  0  0  0  0  0  0  0
  -19.5740   18.7950   10.5490 N   0  0  0  0  0  0  0  0  0  0  0  0
  -18.8370   19.7960    9.9690 C   0  0  0  0  0  0  0  0  0  0  0  0
  -19.1760   21.0050   10.5330 C   0  0  0  0  0  3  0  0  0  0  0  0
  -20.1270   20.7150   11.4810 N   0  0  0  0  0  0  0  0  0  0  0  0
  -17.8630   19.5510    8.9180 C   0  0  0  0  0  0  0  0  0  0  0  0
  -17.5070   18.2540    8.5150 C   0  0  0  0  0  3  0  0  0  0  0  0
  -16.5740   18.0580    7.4920 C   0  0  0  0  0  3  0  0  0  0  0  0
  -15.9940   19.1560    6.8650 C   0  0  0  0  0  0  0  0  0  0  0  0
  -15.1020   18.9420    5.8880 F   0  0  0  0  0  0  0  0  0  0  0  0
  -16.3370   20.4500    7.2490 C   0  0  0  0  0  0  0  0  0  0  0  0
  -15.6220   21.8120    6.4780 Cl  0  0  0  0  0  0  0  0  0  0  0  0
  -17.2680   20.6460    8.2690 C   0  0  0  0  0  3  0  0  0  0  0  0
  -21.5790   16.6180   14.4870 N   0  0  0  0  0  0  0  0  0  0  0  0
  -21.8990   16.1940   13.1210 C   0  0  0  0  0  2  0  0  0  0  0  0
  -21.1430   17.0300   12.0900 C   0  0  0  0  0  2  0  0  0  0  0  0
  -21.2170   18.5360   12.3910 C   0  0  1  0  0  3  0  0  0  0  0  0
  -21.0300   18.8970   13.8700 C   0  0  0  0  0  2  0  0  0  0  0  0
  -21.8780   18.0160   14.7780 C   0  0  0  0  0  2  0  0  0  0  0  0
  -20.6390   15.3400   16.3270 C   0  0  0  0  0  0  0  0  0  0  0  0
  -19.4770   14.7910   16.8600 C   0  0  0  0  0  0  0  0  0  0  0  0
  -19.4530   14.1420   18.0800 N   0  0  0  0  0  0  0  0  0  0  0  0
  -18.2840   14.8890   16.2640 N   0  0  0  0  0  0  0  0  0  0  0  0
  -18.2720   15.4770   15.0730 C   0  0  0  0  0  3  0  0  0  0  0  0
  -19.2920   16.1330   14.5140 N   0  0  0  0  0  0  0  0  0  0  0  0
  -20.4930   16.0270   15.1200 C   0  0  0  0  0  0  0  0  0  0  0  0
  -18.5340   13.7930   18.3250 H   0  0  0  0  0  0  0  0  0  0  0  0
  -20.2170   13.5140   18.2930 H   0  0  0  0  0  0  0  0  0  0  0  0
  -22.3480   16.1560   17.9760 C   0  0  0  0  0  1  0  0  0  0  0  0
  -21.9860   15.0810   16.9590 C   0  0  0  0  0  2  0  0  0  0  0  0
  -20.7760   21.7260   12.2930 C   0  0  0  0  0  2  0  0  0  0  0  0
  -20.9530   23.0480   11.5420 C   0  0  0  0  0  2  0  0  0  0  0  0
  -20.1330   24.1490   12.1870 N   0  0  0  0  0  4  0  0  0  0  0  0
  -20.8390   25.4970   12.2560 C   0  0  0  0  0  2  0  0  0  0  0  0
  -19.8230   26.5070   11.7490 C   0  0  0  0  0  2  0  0  0  0  0  0
  -18.4820   25.8290   11.9390 C   0  0  0  0  0  2  0  0  0  0  0  0
  -18.7800   24.3950   11.5600 C   0  0  0  0  0  2  0  0  0  0  0  0
  -19.9650   23.8850   13.1730 H   0  0  0  0  0  0  0  0  0  0  0  0
  2  1  2  0  0  0  0
  3  4  2  0  0  0  0
  3  2  1  0  0  0  0
  4  5  1  0  0  0  0
  5  1  1  0  0  0  0
  5 31  1  0  0  0  0
  6  3  1  0  0  0  0
  7  6  1  0  0  0  0
  8  7  2  0  0  0  0
  9 11  2  0  0  0  0
  9  8  1  0  0  0  0
 10  9  1  0  0  0  0
 11 13  1  0  0  0  0
 12 11  1  0  0  0  0
 13  6  2  0  0  0  0
 14 19  1  0  0  0  0
 14 26  1  0  0  0  0
 15 14  1  0  0  0  0
 16 17  1  0  0  0  0
 16 15  1  0  0  0  0
 17  1  1  6  0  0  0
 17 18  1  0  0  0  0
 18 19  1  0  0  0  0
 20 21  1  0  0  0  0
 20 30  1  0  0  0  0
 21 22  1  0  0  0  0
 22 28  1  0  0  0  0
 22 27  1  0  0  0  0
 23 21  2  0  0  0  0
 24 23  1  0  0  0  0
 25 24  2  0  0  0  0
 25 26  1  0  0  0  0
 26 20  2  0  0  0  0
 30 29  1  0  0  0  0
 32 33  1  0  0  0  0
 32 31  1  0  0  0  0
 33 34  1  0  0  0  0
 33 38  1  0  0  0  0
 35 36  1  0  0  0  0
 35 34  1  0  0  0  0
 37 36  1  0  0  0  0
 37 33  1  0  0  0  0
M  END
>  <minimizedAffinity>
-9.68758488

$$$$
