
 OpenBabel11232420533D

 38 42  0  0  1  0  0  0  0  0999 V2000
  -19.3220   22.2260   10.5580 C   0  0  0  0  0  0  0  0  0  0  0  0
  -18.5290   22.3110    9.5080 N   0  0  0  0  0  0  0  0  0  0  0  0
  -18.2690   21.0330    9.0860 C   0  0  0  0  0  0  0  0  0  0  0  0
  -18.8780   20.1340    9.9320 C   0  0  0  0  0  3  0  0  0  0  0  0
  -19.5280   20.8960   10.8730 N   0  0  0  0  0  0  0  0  0  0  0  0
  -17.4600   20.7380    7.9150 C   0  0  0  0  0  0  0  0  0  0  0  0
  -17.8240   21.1630    6.6270 C   0  0  0  0  0  3  0  0  0  0  0  0
  -17.0150   20.8700    5.5260 C   0  0  0  0  0  3  0  0  0  0  0  0
  -15.8370   20.1520    5.7050 C   0  0  0  0  0  0  0  0  0  0  0  0
  -15.0780   19.8820    4.6330 F   0  0  0  0  0  0  0  0  0  0  0  0
  -15.4580   19.7240    6.9740 C   0  0  0  0  0  0  0  0  0  0  0  0
  -14.0020   18.8340    7.2020 Cl  0  0  0  0  0  0  0  0  0  0  0  0
  -16.2640   20.0170    8.0740 C   0  0  0  0  0  3  0  0  0  0  0  0
  -19.6510   26.1820   12.0650 N   0  0  0  0  0  0  0  0  0  0  0  0
  -19.5100   25.1570   13.1030 C   0  0  0  0  0  2  0  0  0  0  0  0
  -19.0690   23.8220   12.5070 C   0  0  0  0  0  2  0  0  0  0  0  0
  -19.8790   23.4450   11.2560 C   0  0  1  0  0  3  0  0  0  0  0  0
  -20.1260   24.6070   10.2850 C   0  0  0  0  0  2  0  0  0  0  0  0
  -20.6060   25.8560   11.0110 C   0  0  0  0  0  2  0  0  0  0  0  0
  -18.4640   28.3020   12.0440 C   0  0  0  0  0  0  0  0  0  0  0  0
  -17.2930   28.9510   11.6640 C   0  0  0  0  0  0  0  0  0  0  0  0
  -17.1070   30.3090   11.8400 N   0  0  0  0  0  0  0  0  0  0  0  0
  -16.2770   28.3290   11.0570 N   0  0  0  0  0  0  0  0  0  0  0  0
  -16.4060   27.0160   10.9010 C   0  0  0  0  0  3  0  0  0  0  0  0
  -17.5150   26.3060   11.1210 N   0  0  0  0  0  0  0  0  0  0  0  0
  -18.5350   26.9410   11.7370 C   0  0  0  0  0  0  0  0  0  0  0  0
  -16.2000   30.6290   11.5200 H   0  0  0  0  0  0  0  0  0  0  0  0
  -17.4170   30.7170   12.7120 H   0  0  0  0  0  0  0  0  0  0  0  0
  -20.4710   29.8080   11.9710 C   0  0  0  0  0  1  0  0  0  0  0  0
  -19.5220   29.0100   12.8560 C   0  0  0  0  0  2  0  0  0  0  0  0
  -20.2760   20.3300   11.9770 C   0  0  0  0  0  2  0  0  0  0  0  0
  -20.4200   18.8110   11.8630 C   0  0  0  0  0  2  0  0  0  0  0  0
  -20.8160   18.2040   13.1960 N   0  0  0  0  0  4  0  0  0  0  0  0
  -21.3190   16.7690   13.1060 C   0  0  0  0  0  2  0  0  0  0  0  0
  -22.5960   16.7410   13.9290 C   0  0  0  0  0  2  0  0  0  0  0  0
  -22.4760   17.9280   14.8620 C   0  0  0  0  0  2  0  0  0  0  0  0
  -21.8500   18.9820   13.9760 C   0  0  0  0  0  2  0  0  0  0  0  0
  -19.9680   18.1530   13.7870 H   0  0  0  0  0  0  0  0  0  0  0  0
  1  5  1  0  0  0  0
  2  1  2  0  0  0  0
  3  2  1  0  0  0  0
  3  4  2  0  0  0  0
  4  5  1  0  0  0  0
  5 31  1  0  0  0  0
  6 13  1  0  0  0  0
  6  3  1  0  0  0  0
  7  6  2  0  0  0  0
  8  9  2  0  0  0  0
  8  7  1  0  0  0  0
  9 11  1  0  0  0  0
 10  9  1  0  0  0  0
 11 12  1  0  0  0  0
 11 13  2  0  0  0  0
 14 15  1  0  0  0  0
 16 15  1  0  0  0  0
 17  1  1  6  0  0  0
 17 16  1  0  0  0  0
 18 19  1  0  0  0  0
 18 17  1  0  0  0  0
 19 14  1  0  0  0  0
 20 30  1  0  0  0  0
 21 22  1  0  0  0  0
 21 20  2  0  0  0  0
 22 28  1  0  0  0  0
 23 21  1  0  0  0  0
 24 23  2  0  0  0  0
 24 25  1  0  0  0  0
 25 26  2  0  0  0  0
 26 20  1  0  0  0  0
 26 14  1  0  0  0  0
 27 22  1  0  0  0  0
 29 30  1  0  0  0  0
 32 31  1  0  0  0  0
 32 33  1  0  0  0  0
 33 38  1  0  0  0  0
 33 37  1  0  0  0  0
 34 33  1  0  0  0  0
 34 35  1  0  0  0  0
 35 36  1  0  0  0  0
 37 36  1  0  0  0  0
M  END
>  <minimizedAffinity>
-9.18800545

$$$$
