
 OpenBabel11232420533D

 38 42  0  0  1  0  0  0  0  0999 V2000
  -20.3720   21.3480   12.0000 C   0  0  0  0  0  0  0  0  0  0  0  0
  -21.2240   20.7780   12.8280 N   0  0  0  0  0  0  0  0  0  0  0  0
  -21.0390   19.4220   12.7380 C   0  0  0  0  0  0  0  0  0  0  0  0
  -20.0800   19.1500   11.7880 C   0  0  0  0  0  3  0  0  0  0  0  0
  -19.6760   20.3730   11.3130 N   0  0  0  0  0  0  0  0  0  0  0  0
  -21.7790   18.4690   13.5480 C   0  0  0  0  0  0  0  0  0  0  0  0
  -22.0300   17.1560   13.1170 C   0  0  0  0  0  3  0  0  0  0  0  0
  -22.7360   16.2640   13.9290 C   0  0  0  0  0  3  0  0  0  0  0  0
  -23.1940   16.6770   15.1760 C   0  0  0  0  0  0  0  0  0  0  0  0
  -23.8700   15.8030   15.9350 F   0  0  0  0  0  0  0  0  0  0  0  0
  -22.9530   17.9730   15.6210 C   0  0  0  0  0  0  0  0  0  0  0  0
  -23.5170   18.4910   17.1630 Cl  0  0  0  0  0  0  0  0  0  0  0  0
  -22.2470   18.8640   14.8130 C   0  0  0  0  0  3  0  0  0  0  0  0
  -18.9030   25.1620   10.8480 N   0  0  0  0  0  0  0  0  0  0  0  0
  -18.7260   24.8590   12.2710 C   0  0  0  0  0  2  0  0  0  0  0  0
  -18.9620   23.3770   12.5550 C   0  0  0  0  0  2  0  0  0  0  0  0
  -20.2380   22.8480   11.8800 C   0  0  1  0  0  3  0  0  0  0  0  0
  -20.4420   23.3350   10.4390 C   0  0  0  0  0  2  0  0  0  0  0  0
  -20.2210   24.8360   10.3130 C   0  0  0  0  0  2  0  0  0  0  0  0
  -17.0220   26.1550    9.6740 C   0  0  0  0  0  0  0  0  0  0  0  0
  -15.9450   25.9090    8.8280 C   0  0  0  0  0  0  0  0  0  0  0  0
  -15.1260   26.9170    8.3550 N   0  0  0  0  0  0  0  0  0  0  0  0
  -15.6430   24.6910    8.3660 N   0  0  0  0  0  0  0  0  0  0  0  0
  -16.3880   23.6920    8.8250 C   0  0  0  0  0  3  0  0  0  0  0  0
  -17.5060   23.8140    9.5450 N   0  0  0  0  0  0  0  0  0  0  0  0
  -17.8010   25.0460   10.0100 C   0  0  0  0  0  0  0  0  0  0  0  0
  -14.3830   26.5750    7.7570 H   0  0  0  0  0  0  0  0  0  0  0  0
  -14.8490   27.6410    9.0050 H   0  0  0  0  0  0  0  0  0  0  0  0
  -16.3300   27.7460   11.4880 C   0  0  0  0  0  1  0  0  0  0  0  0
  -17.2380   27.5190   10.2870 C   0  0  0  0  0  2  0  0  0  0  0  0
  -18.6860   20.5320   10.2650 C   0  0  0  0  0  2  0  0  0  0  0  0
  -19.3070   20.4830    8.8670 C   0  0  0  0  0  2  0  0  0  0  0  0
  -18.3400   19.8790    7.8670 N   0  0  0  0  0  4  0  0  0  0  0  0
  -18.1130   18.3840    8.0400 C   0  0  0  0  0  2  0  0  0  0  0  0
  -16.6050   18.2000    7.9900 C   0  0  0  0  0  2  0  0  0  0  0  0
  -16.0940   19.4280    7.2670 C   0  0  0  0  0  2  0  0  0  0  0  0
  -16.9760   20.5270    7.8180 C   0  0  0  0  0  2  0  0  0  0  0  0
  -18.7550   19.9790    6.9230 H   0  0  0  0  0  0  0  0  0  0  0  0
  1  2  2  0  0  0  0
  3  2  1  0  0  0  0
  3  6  1  0  0  0  0
  4  3  2  0  0  0  0
  5  4  1  0  0  0  0
  5  1  1  0  0  0  0
  6 13  1  0  0  0  0
  7  6  2  0  0  0  0
  7  8  1  0  0  0  0
  8  9  2  0  0  0  0
  9 11  1  0  0  0  0
  9 10  1  0  0  0  0
 11 12  1  0  0  0  0
 13 11  2  0  0  0  0
 14 15  1  0  0  0  0
 15 16  1  0  0  0  0
 17  1  1  6  0  0  0
 17 16  1  0  0  0  0
 18 17  1  0  0  0  0
 19 18  1  0  0  0  0
 19 14  1  0  0  0  0
 20 26  1  0  0  0  0
 20 30  1  0  0  0  0
 21 20  2  0  0  0  0
 22 21  1  0  0  0  0
 22 28  1  0  0  0  0
 23 24  2  0  0  0  0
 23 21  1  0  0  0  0
 24 25  1  0  0  0  0
 25 26  2  0  0  0  0
 26 14  1  0  0  0  0
 27 22  1  0  0  0  0
 30 29  1  0  0  0  0
 31  5  1  0  0  0  0
 32 31  1  0  0  0  0
 33 34  1  0  0  0  0
 33 32  1  0  0  0  0
 35 34  1  0  0  0  0
 36 37  1  0  0  0  0
 36 35  1  0  0  0  0
 37 33  1  0  0  0  0
 38 33  1  0  0  0  0
M  END
>  <minimizedAffinity>
-8.94232464

$$$$
