
 OpenBabel11232420533D

 38 42  0  0  1  0  0  0  0  0999 V2000
  -18.4140   22.7400   10.1970 C   0  0  0  0  0  0  0  0  0  0  0  0
  -19.3410   22.5750   11.1200 N   0  0  0  0  0  0  0  0  0  0  0  0
  -19.6470   21.2390   11.1570 C   0  0  0  0  0  0  0  0  0  0  0  0
  -18.9260   20.5720   10.1930 C   0  0  0  0  0  3  0  0  0  0  0  0
  -18.1610   21.5320    9.5770 N   0  0  0  0  0  0  0  0  0  0  0  0
  -20.6040   20.6740   12.0960 C   0  0  0  0  0  0  0  0  0  0  0  0
  -21.8210   21.3080   12.3950 C   0  0  0  0  0  3  0  0  0  0  0  0
  -22.7210   20.7290   13.2950 C   0  0  0  0  0  3  0  0  0  0  0  0
  -22.4110   19.5150   13.8990 C   0  0  0  0  0  0  0  0  0  0  0  0
  -23.2900   18.9810   14.7580 F   0  0  0  0  0  0  0  0  0  0  0  0
  -21.2110   18.8710   13.6120 C   0  0  0  0  0  0  0  0  0  0  0  0
  -20.8210   17.3680   14.3570 Cl  0  0  0  0  0  0  0  0  0  0  0  0
  -20.3120   19.4470   12.7140 C   0  0  0  0  0  3  0  0  0  0  0  0
  -17.6250   26.9100   10.3370 N   0  0  0  0  0  0  0  0  0  0  0  0
  -18.1530   26.4450    9.0520 C   0  0  0  0  0  2  0  0  0  0  0  0
  -18.7210   25.0320    9.1650 C   0  0  0  0  0  2  0  0  0  0  0  0
  -17.7770   24.0810    9.9190 C   0  0  1  0  0  3  0  0  0  0  0  0
  -17.1320   24.6890   11.1720 C   0  0  0  0  0  2  0  0  0  0  0  0
  -16.5680   26.0760   10.9010 C   0  0  0  0  0  2  0  0  0  0  0  0
  -18.1810   28.8090   11.7470 C   0  0  0  0  0  0  0  0  0  0  0  0
  -19.1320   29.3550   12.6040 C   0  0  0  0  0  0  0  0  0  0  0  0
  -18.9360   30.5530   13.2650 N   0  0  0  0  0  0  0  0  0  0  0  0
  -20.2870   28.7470   12.8950 N   0  0  0  0  0  0  0  0  0  0  0  0
  -20.5260   27.6100   12.2520 C   0  0  0  0  0  3  0  0  0  0  0  0
  -19.6540   26.9370   11.4990 N   0  0  0  0  0  0  0  0  0  0  0  0
  -18.4920   27.5590   11.2070 C   0  0  0  0  0  0  0  0  0  0  0  0
  -19.7230   30.8180   13.8450 H   0  0  0  0  0  0  0  0  0  0  0  0
  -18.5150   31.3120   12.7460 H   0  0  0  0  0  0  0  0  0  0  0  0
  -15.8040   29.3920   12.3020 C   0  0  0  0  0  1  0  0  0  0  0  0
  -16.9600   29.5950   11.3320 C   0  0  0  0  0  2  0  0  0  0  0  0
  -17.2680   21.2490    8.4700 C   0  0  0  0  0  2  0  0  0  0  0  0
  -18.0250   20.9640    7.1710 C   0  0  0  0  0  2  0  0  0  0  0  0
  -17.0720   20.5260    6.0750 N   0  0  0  0  0  4  0  0  0  0  0  0
  -16.4500   19.1550    6.2970 C   0  0  0  0  0  2  0  0  0  0  0  0
  -14.9640   19.3430    6.0360 C   0  0  0  0  0  2  0  0  0  0  0  0
  -14.8810   20.5870    5.1770 C   0  0  0  0  0  2  0  0  0  0  0  0
  -15.9370   21.4820    5.7900 C   0  0  0  0  0  2  0  0  0  0  0  0
  -17.6160   20.4340    5.1990 H   0  0  0  0  0  0  0  0  0  0  0  0
  1  2  2  0  0  0  0
  2  3  1  0  0  0  0
  3  6  1  0  0  0  0
  4  3  2  0  0  0  0
  5  4  1  0  0  0  0
  5  1  1  0  0  0  0
  6  7  2  0  0  0  0
  6 13  1  0  0  0  0
  7  8  1  0  0  0  0
  8  9  2  0  0  0  0
  9 10  1  0  0  0  0
 11  9  1  0  0  0  0
 11 12  1  0  0  0  0
 13 11  2  0  0  0  0
 14 19  1  0  0  0  0
 14 26  1  0  0  0  0
 15 16  1  0  0  0  0
 15 14  1  0  0  0  0
 16 17  1  0  0  0  0
 17  1  1  1  0  0  0
 17 18  1  0  0  0  0
 19 18  1  0  0  0  0
 20 21  1  0  0  0  0
 21 23  2  0  0  0  0
 21 22  1  0  0  0  0
 22 27  1  0  0  0  0
 24 23  1  0  0  0  0
 25 24  2  0  0  0  0
 26 25  1  0  0  0  0
 26 20  2  0  0  0  0
 28 22  1  0  0  0  0
 30 20  1  0  0  0  0
 30 29  1  0  0  0  0
 31  5  1  0  0  0  0
 32 31  1  0  0  0  0
 33 34  1  0  0  0  0
 33 32  1  0  0  0  0
 35 34  1  0  0  0  0
 36 37  1  0  0  0  0
 36 35  1  0  0  0  0
 37 33  1  0  0  0  0
 38 33  1  0  0  0  0
M  END
>  <minimizedAffinity>
-9.87165833

$$$$
