
 OpenBabel11232420533D

 38 42  0  0  1  0  0  0  0  0999 V2000
  -19.4700   20.3580   10.9290 C   0  0  0  0  0  0  0  0  0  0  0  0
  -19.9830   20.3800   12.1440 N   0  0  0  0  0  0  0  0  0  0  0  0
  -20.4580   19.1210   12.4100 C   0  0  0  0  0  0  0  0  0  0  0  0
  -20.2800   18.3170   11.3080 C   0  0  0  0  0  3  0  0  0  0  0  0
  -19.6700   19.1110   10.3680 N   0  0  0  0  0  0  0  0  0  0  0  0
  -21.0550   18.7570   13.6850 C   0  0  0  0  0  0  0  0  0  0  0  0
  -22.1600   19.4420   14.2170 C   0  0  0  0  0  3  0  0  0  0  0  0
  -22.7140   19.0550   15.4410 C   0  0  0  0  0  3  0  0  0  0  0  0
  -22.1680   17.9830   16.1400 C   0  0  0  0  0  0  0  0  0  0  0  0
  -22.7170   17.6320   17.3110 F   0  0  0  0  0  0  0  0  0  0  0  0
  -21.0750   17.2910   15.6270 C   0  0  0  0  0  0  0  0  0  0  0  0
  -20.3950   15.9640   16.4870 Cl  0  0  0  0  0  0  0  0  0  0  0  0
  -20.5220   17.6750   14.4050 C   0  0  0  0  0  3  0  0  0  0  0  0
  -18.4250   24.3890   10.1020 N   0  0  0  0  0  0  0  0  0  0  0  0
  -19.1080   23.7110    8.9970 C   0  0  0  0  0  2  0  0  0  0  0  0
  -19.7440   22.4010    9.4600 C   0  0  0  0  0  2  0  0  0  0  0  0
  -18.7860   21.5570   10.3160 C   0  0  1  0  0  3  0  0  0  0  0  0
  -17.9830   22.3580   11.3480 C   0  0  0  0  0  2  0  0  0  0  0  0
  -17.3680   23.6100   10.7380 C   0  0  0  0  0  2  0  0  0  0  0  0
  -18.8060   26.6190   10.9890 C   0  0  0  0  0  0  0  0  0  0  0  0
  -19.6220   27.4000   11.8020 C   0  0  0  0  0  0  0  0  0  0  0  0
  -19.3590   28.7330   12.0560 N   0  0  0  0  0  0  0  0  0  0  0  0
  -20.6930   26.9170   12.4410 N   0  0  0  0  0  0  0  0  0  0  0  0
  -20.9970   25.6480   12.1950 C   0  0  0  0  0  3  0  0  0  0  0  0
  -20.2370   24.7760   11.5290 N   0  0  0  0  0  0  0  0  0  0  0  0
  -19.1590   25.2720   10.8840 C   0  0  0  0  0  0  0  0  0  0  0  0
  -20.0500   29.1640   12.6590 H   0  0  0  0  0  0  0  0  0  0  0  0
  -19.0540   29.3080   11.2810 H   0  0  0  0  0  0  0  0  0  0  0  0
  -16.3600   27.1760   10.9030 C   0  0  0  0  0  1  0  0  0  0  0  0
  -17.6960   27.2360   10.1730 C   0  0  0  0  0  2  0  0  0  0  0  0
  -19.3300   18.6510    9.0360 C   0  0  0  0  0  2  0  0  0  0  0  0
  -17.8650   18.2210    8.9260 C   0  0  0  0  0  2  0  0  0  0  0  0
  -17.0660   19.2270    8.1200 N   0  0  0  0  0  4  0  0  0  0  0  0
  -17.9070   20.1040    7.2020 C   0  0  0  0  0  2  0  0  0  0  0  0
  -17.1960   20.0730    5.8580 C   0  0  0  0  0  2  0  0  0  0  0  0
  -15.7720   19.6780    6.1880 C   0  0  0  0  0  2  0  0  0  0  0  0
  -15.9600   18.6410    7.2740 C   0  0  0  0  0  2  0  0  0  0  0  0
  -16.6210   19.8850    8.7840 H   0  0  0  0  0  0  0  0  0  0  0  0
  1  2  2  0  0  0  0
  2  3  1  0  0  0  0
  3  6  1  0  0  0  0
  4  3  2  0  0  0  0
  5  1  1  0  0  0  0
  5  4  1  0  0  0  0
  6  7  2  0  0  0  0
  6 13  1  0  0  0  0
  7  8  1  0  0  0  0
  8  9  2  0  0  0  0
  9 10  1  0  0  0  0
 11  9  1  0  0  0  0
 11 12  1  0  0  0  0
 13 11  2  0  0  0  0
 14 19  1  0  0  0  0
 14 26  1  0  0  0  0
 15 16  1  0  0  0  0
 15 14  1  0  0  0  0
 16 17  1  0  0  0  0
 17  1  1  1  0  0  0
 17 18  1  0  0  0  0
 19 18  1  0  0  0  0
 20 21  1  0  0  0  0
 21 22  1  0  0  0  0
 21 23  2  0  0  0  0
 22 27  1  0  0  0  0
 24 23  1  0  0  0  0
 25 24  2  0  0  0  0
 26 20  2  0  0  0  0
 26 25  1  0  0  0  0
 28 22  1  0  0  0  0
 30 29  1  0  0  0  0
 30 20  1  0  0  0  0
 31  5  1  0  0  0  0
 32 31  1  0  0  0  0
 33 38  1  0  0  0  0
 33 32  1  0  0  0  0
 34 33  1  0  0  0  0
 35 36  1  0  0  0  0
 35 34  1  0  0  0  0
 36 37  1  0  0  0  0
 37 33  1  0  0  0  0
M  END
>  <minimizedAffinity>
-10.6154909

$$$$
