
 OpenBabel11232419053D

 40 45  0  0  1  0  0  0  0  0999 V2000
   20.4020   68.8810   17.3900 C   0  0  0  0  0  0  0  0  0  0  0  0
   19.5620   69.2430   18.4300 C   0  0  0  0  0  3  0  0  0  0  0  0
   19.7950   68.9120   19.7180 N   0  0  0  0  0  0  0  0  0  0  0  0
   20.9260   68.2110   19.9810 C   0  0  0  0  0  3  0  0  0  0  0  0
   21.8500   67.8260   19.0120 C   0  0  0  0  0  0  0  0  0  0  0  0
   21.5710   68.1860   17.6880 C   0  0  0  0  0  3  0  0  0  0  0  0
   23.0550   67.0650   19.3360 C   0  0  0  0  0  0  0  0  0  0  0  0
   24.3000   67.7230   19.4900 C   0  0  0  0  0  3  0  0  0  0  0  0
   25.4790   67.0090   19.7360 C   0  0  0  0  0  3  0  0  0  0  0  0
   25.3820   65.6380   19.8130 C   0  0  0  0  0  0  0  0  0  0  0  0
   24.1730   64.9620   19.6660 C   0  0  0  0  0  0  0  0  0  0  0  0
   22.9980   65.6640   19.4440 C   0  0  0  0  0  3  0  0  0  0  0  0
   24.4010   63.4760   19.8180 C   0  0  2  0  0  3  0  0  0  0  0  0
   25.9310   63.4260   20.0590 C   0  0  0  0  0  0  0  0  0  0  0  0
   26.6240   62.4380   20.2490 O   0  0  0  0  0  0  0  0  0  0  0  0
   26.4050   64.7340   20.0410 N   0  0  0  0  0  0  0  0  0  0  0  0
   27.3790   64.9600   20.1830 H   0  0  0  0  0  0  0  0  0  0  0  0
   24.0490   62.6270   18.6410 C   0  0  0  0  0  0  0  0  0  0  0  0
   23.7590   61.2810   18.5180 C   0  0  0  0  0  3  0  0  0  0  0  0
   23.4570   61.0490   17.1560 C   0  0  0  0  0  3  0  0  0  0  0  0
   23.5730   62.2650   16.5280 C   0  0  0  0  0  3  0  0  0  0  0  0
   23.9280   63.2290   17.4160 O   0  0  0  0  0  0  0  0  0  0  0  0
   20.1330   69.2730   16.1090 O   0  0  0  0  0  0  0  0  0  0  0  0
   20.4080   68.2110   15.1730 C   0  0  0  0  0  2  0  0  0  0  0  0
   19.7920   66.9280   15.7590 C   0  0  1  0  0  3  0  0  0  0  0  0
   19.7330   65.8980   14.6570 N   0  0  0  0  0  4  0  0  0  0  0  0
   20.6600   65.5590   14.3750 H   0  0  0  0  0  0  0  0  0  0  0  0
   19.3030   66.3390   13.8270 H   0  0  0  0  0  0  0  0  0  0  0  0
   19.1500   65.0920   14.9150 H   0  0  0  0  0  0  0  0  0  0  0  0
   20.5760   66.3530   16.9440 C   0  0  0  0  0  2  0  0  0  0  0  0
   20.1910   64.9470   17.2510 C   0  0  0  0  0  0  0  0  0  0  0  0
   19.8310   64.4630   18.4940 C   0  0  0  0  0  3  0  0  0  0  0  0
   19.5380   63.1300   18.3700 N   0  0  0  0  0  0  0  0  0  0  0  0
   19.7130   62.7290   17.0680 C   0  0  0  0  0  0  0  0  0  0  0  0
   19.5380   61.4660   16.4910 C   0  0  0  0  0  3  0  0  0  0  0  0
   19.7740   61.3400   15.1200 C   0  0  0  0  0  3  0  0  0  0  0  0
   20.1630   62.4390   14.3590 C   0  0  0  0  0  3  0  0  0  0  0  0
   20.3310   63.6970   14.9500 C   0  0  0  0  0  3  0  0  0  0  0  0
   20.1090   63.8480   16.3360 C   0  0  0  0  0  0  0  0  0  0  0  0
   19.2280   62.5220   19.1180 H   0  0  0  0  0  0  0  0  0  0  0  0
  1  6  2  0  0  0  0
  1  2  1  0  0  0  0
  2  3  2  0  0  0  0
  3  4  1  0  0  0  0
  5  7  1  0  0  0  0
  5  4  2  0  0  0  0
  6  5  1  0  0  0  0
  7 12  2  0  0  0  0
  7  8  1  0  0  0  0
  8  9  2  0  0  0  0
  9 10  1  0  0  0  0
 10 16  1  0  0  0  0
 11 10  2  0  0  0  0
 11 13  1  0  0  0  0
 12 11  1  0  0  0  0
 13 18  1  6  0  0  0
 13 14  1  0  0  0  0
 14 15  2  0  0  0  0
 16 14  1  0  0  0  0
 16 17  1  0  0  0  0
 19 18  2  0  0  0  0
 20 19  1  0  0  0  0
 21 20  2  0  0  0  0
 21 22  1  0  0  0  0
 22 18  1  0  0  0  0
 23  1  1  0  0  0  0
 24 23  1  0  0  0  0
 25 24  1  6  0  0  0
 25 30  1  0  0  0  0
 26 29  1  0  0  0  0
 26 25  1  0  0  0  0
 27 26  1  0  0  0  0
 28 26  1  0  0  0  0
 30 31  1  0  0  0  0
 31 32  2  0  0  0  0
 33 32  1  0  0  0  0
 33 40  1  0  0  0  0
 34 33  1  0  0  0  0
 35 34  1  0  0  0  0
 36 35  2  0  0  0  0
 37 38  2  0  0  0  0
 37 36  1  0  0  0  0
 38 39  1  0  0  0  0
 39 34  2  0  0  0  0
 39 31  1  0  0  0  0
M  END
>  <minimizedAffinity>
14.1097183

$$$$
