
 OpenBabel11232419053D

 40 45  0  0  1  0  0  0  0  0999 V2000
   20.6070   68.3670   16.1370 C   0  0  0  0  0  0  0  0  0  0  0  0
   19.6630   69.1700   16.7540 C   0  0  0  0  0  3  0  0  0  0  0  0
   19.5450   69.2750   18.0950 N   0  0  0  0  0  0  0  0  0  0  0  0
   20.4210   68.5650   18.8500 C   0  0  0  0  0  3  0  0  0  0  0  0
   21.4250   67.7540   18.3260 C   0  0  0  0  0  0  0  0  0  0  0  0
   21.5130   67.6710   16.9320 C   0  0  0  0  0  3  0  0  0  0  0  0
   22.3470   67.0000   19.1740 C   0  0  0  0  0  0  0  0  0  0  0  0
   23.1890   67.6720   20.0940 C   0  0  0  0  0  3  0  0  0  0  0  0
   24.1250   66.9790   20.8700 C   0  0  0  0  0  3  0  0  0  0  0  0
   24.2010   65.6140   20.6980 C   0  0  0  0  0  0  0  0  0  0  0  0
   23.3870   64.9250   19.8020 C   0  0  0  0  0  0  0  0  0  0  0  0
   22.4430   65.6030   19.0460 C   0  0  0  0  0  3  0  0  0  0  0  0
   23.7060   63.4490   19.8600 C   0  0  2  0  0  3  0  0  0  0  0  0
   24.8360   63.4240   20.9190 C   0  0  0  0  0  0  0  0  0  0  0  0
   25.4440   62.4500   21.3380 O   0  0  0  0  0  0  0  0  0  0  0  0
   25.0460   64.7310   21.3460 N   0  0  0  0  0  0  0  0  0  0  0  0
   25.7350   64.9690   22.0450 H   0  0  0  0  0  0  0  0  0  0  0  0
   24.1890   62.8250   18.5930 C   0  0  0  0  0  0  0  0  0  0  0  0
   25.1240   63.2260   17.6560 C   0  0  0  0  0  3  0  0  0  0  0  0
   25.1920   62.2040   16.6810 C   0  0  0  0  0  3  0  0  0  0  0  0
   24.3040   61.2360   17.0820 C   0  0  0  0  0  3  0  0  0  0  0  0
   23.6920   61.5990   18.2380 O   0  0  0  0  0  0  0  0  0  0  0  0
   20.7020   68.3260   14.7740 O   0  0  0  0  0  0  0  0  0  0  0  0
   19.6730   67.4890   14.2070 C   0  0  0  0  0  2  0  0  0  0  0  0
   19.6880   66.1670   14.9960 C   0  0  1  0  0  3  0  0  0  0  0  0
   20.9770   65.4510   14.6740 N   0  0  0  0  0  4  0  0  0  0  0  0
   21.8040   65.9200   15.0620 H   0  0  0  0  0  0  0  0  0  0  0  0
   21.0880   65.4340   13.6470 H   0  0  0  0  0  0  0  0  0  0  0  0
   20.9660   64.4760   15.0000 H   0  0  0  0  0  0  0  0  0  0  0  0
   19.5810   66.3550   16.5140 C   0  0  0  0  0  2  0  0  0  0  0  0
   19.5970   65.0590   17.2480 C   0  0  0  0  0  0  0  0  0  0  0  0
   19.6370   63.8040   16.6700 C   0  0  0  0  0  3  0  0  0  0  0  0
   19.6490   62.8680   17.6690 N   0  0  0  0  0  0  0  0  0  0  0  0
   19.6050   63.4870   18.8950 C   0  0  0  0  0  0  0  0  0  0  0  0
   19.5920   62.9280   20.1780 C   0  0  0  0  0  3  0  0  0  0  0  0
   19.5600   63.8030   21.2660 C   0  0  0  0  0  3  0  0  0  0  0  0
   19.5470   65.1820   21.0740 C   0  0  0  0  0  3  0  0  0  0  0  0
   19.5640   65.7260   19.7840 C   0  0  0  0  0  3  0  0  0  0  0  0
   19.5850   64.8630   18.6670 C   0  0  0  0  0  0  0  0  0  0  0  0
   19.6940   61.8650   17.5380 H   0  0  0  0  0  0  0  0  0  0  0  0
  1  2  2  0  0  0  0
  1  6  1  0  0  0  0
  2  3  1  0  0  0  0
  3  4  2  0  0  0  0
  5  4  1  0  0  0  0
  5  7  1  0  0  0  0
  6  5  2  0  0  0  0
  7  8  1  0  0  0  0
  8  9  2  0  0  0  0
 10  9  1  0  0  0  0
 10 16  1  0  0  0  0
 11 13  1  0  0  0  0
 11 10  2  0  0  0  0
 12  7  2  0  0  0  0
 12 11  1  0  0  0  0
 13 18  1  6  0  0  0
 13 14  1  0  0  0  0
 14 15  2  0  0  0  0
 14 16  1  0  0  0  0
 16 17  1  0  0  0  0
 19 18  2  0  0  0  0
 20 21  2  0  0  0  0
 20 19  1  0  0  0  0
 21 22  1  0  0  0  0
 22 18  1  0  0  0  0
 23  1  1  0  0  0  0
 24 23  1  0  0  0  0
 25 24  1  6  0  0  0
 25 30  1  0  0  0  0
 26 25  1  0  0  0  0
 26 29  1  0  0  0  0
 26 27  1  0  0  0  0
 28 26  1  0  0  0  0
 30 31  1  0  0  0  0
 31 39  1  0  0  0  0
 32 31  2  0  0  0  0
 32 33  1  0  0  0  0
 33 34  1  0  0  0  0
 34 35  1  0  0  0  0
 35 36  2  0  0  0  0
 37 36  1  0  0  0  0
 38 37  2  0  0  0  0
 39 34  2  0  0  0  0
 39 38  1  0  0  0  0
 40 33  1  0  0  0  0
M  END
>  <minimizedAffinity>
11.9477329

$$$$
