
 OpenBabel11232419053D

 40 43  0  0  1  0  0  0  0  0999 V2000
   20.1230   66.6100   14.9800 C   0  0  2  0  0  3  0  0  0  0  0  0
   19.7180   67.6840   14.2060 C   0  0  0  0  0  3  0  0  0  0  0  0
   20.2720   68.9120   14.2970 N   0  0  0  0  0  0  0  0  0  0  0  0
   21.2890   69.0670   15.1830 C   0  0  0  0  0  3  0  0  0  0  0  0
   21.7900   68.0430   15.9840 C   0  0  0  0  0  3  0  0  0  0  0  0
   21.1870   66.7860   15.8610 C   0  0  0  0  0  2  0  0  0  0  0  0
   22.8840   68.2520   16.9310 C   0  0  0  0  0  0  0  0  0  0  0  0
   23.9660   69.1040   16.6000 C   0  0  0  0  0  3  0  0  0  0  0  0
   25.0560   69.2690   17.4630 C   0  0  0  0  0  3  0  0  0  0  0  0
   25.0380   68.5630   18.6450 C   0  0  0  0  0  0  0  0  0  0  0  0
   23.9890   67.7190   18.9980 C   0  0  0  0  0  0  0  0  0  0  0  0
   22.8960   67.5660   18.1590 C   0  0  0  0  0  3  0  0  0  0  0  0
   24.2640   67.1070   20.3530 C   0  0  2  0  0  3  0  0  0  0  0  0
   25.6390   67.7330   20.6950 C   0  0  0  0  0  0  0  0  0  0  0  0
   26.3070   67.5600   21.7040 O   0  0  0  0  0  0  0  0  0  0  0  0
   26.0000   68.5650   19.6400 N   0  0  0  0  0  0  0  0  0  0  0  0
   26.8610   69.0930   19.6360 H   0  0  0  0  0  0  0  0  0  0  0  0
   24.3610   65.6180   20.4010 C   0  0  0  0  0  0  0  0  0  0  0  0
   23.8860   64.6830   21.3020 C   0  0  0  0  0  3  0  0  0  0  0  0
   24.2490   63.4110   20.8040 C   0  0  0  0  0  3  0  0  0  0  0  0
   24.9170   63.6400   19.6260 C   0  0  0  0  0  3  0  0  0  0  0  0
   24.9890   64.9720   19.3690 O   0  0  0  0  0  0  0  0  0  0  0  0
   19.5480   65.3810   14.8200 O   0  0  0  0  0  0  0  0  0  0  0  0
   20.5000   64.4240   14.3120 C   0  0  0  0  0  2  0  0  0  0  0  0
   21.7260   64.4770   15.2420 C   0  0  0  0  0  2  0  0  0  0  0  0
   21.9480   65.9190   15.6310 N   0  0  0  0  0  2  0  0  0  0  0  0
   21.2160   66.2840   16.2520 H   0  0  0  0  0  0  0  0  0  0  0  0
   21.9340   66.4900   14.7700 H   0  0  0  0  0  0  0  0  0  0  0  0
   22.8620   66.0590   16.0800 H   0  0  0  0  0  0  0  0  0  0  0  0
   21.5740   63.6310   16.5110 C   0  0  0  0  0  2  0  0  0  0  0  0
   20.8230   64.3440   17.5820 C   0  0  0  0  0  0  0  0  0  0  0  0
   20.0890   65.5040   17.4170 C   0  0  0  0  0  3  0  0  0  0  0  0
   19.5420   65.8440   18.6250 N   0  0  0  0  0  0  0  0  0  0  0  0
   19.9150   64.9340   19.5850 C   0  0  0  0  0  0  0  0  0  0  0  0
   19.5980   64.8910   20.9470 C   0  0  0  0  0  3  0  0  0  0  0  0
   20.1070   63.8290   21.6980 C   0  0  0  0  0  3  0  0  0  0  0  0
   20.8950   62.8480   21.1050 C   0  0  0  0  0  3  0  0  0  0  0  0
   21.2010   62.9030   19.7390 C   0  0  0  0  0  3  0  0  0  0  0  0
   20.7080   63.9720   18.9600 C   0  0  0  0  0  0  0  0  0  0  0  0
   18.9410   66.6400   18.7980 H   0  0  0  0  0  0  0  0  0  0  0  0
  1  2  1  6  0  0  0
  1  6  1  0  0  0  0
  2  3  2  0  0  0  0
  3  4  1  0  0  0  0
  4  5  2  0  0  0  0
  5  7  1  0  0  0  0
  6 27  1  0  0  0  0
  7 12  1  0  0  0  0
  8  7  2  0  0  0  0
  8  9  1  0  0  0  0
  9 10  2  0  0  0  0
 10 11  1  0  0  0  0
 10 16  1  0  0  0  0
 11 13  1  0  0  0  0
 12 11  2  0  0  0  0
 13 18  1  6  0  0  0
 13 14  1  0  0  0  0
 14 15  2  0  0  0  0
 16 14  1  0  0  0  0
 17 16  1  0  0  0  0
 18 19  2  0  0  0  0
 20 19  1  0  0  0  0
 21 20  2  0  0  0  0
 22 21  1  0  0  0  0
 22 18  1  0  0  0  0
 23  1  1  0  0  0  0
 24 23  1  0  0  0  0
 24 25  1  0  0  0  0
 25 30  1  0  0  0  0
 26 29  1  0  0  0  0
 28 26  1  0  0  0  0
 30 31  1  0  0  0  0
 31 39  1  0  0  0  0
 32 31  2  0  0  0  0
 32 33  1  0  0  0  0
 33 40  1  0  0  0  0
 33 34  1  0  0  0  0
 34 35  1  0  0  0  0
 35 36  2  0  0  0  0
 37 36  1  0  0  0  0
 38 37  2  0  0  0  0
 39 34  2  0  0  0  0
 39 38  1  0  0  0  0
M  END
>  <minimizedAffinity>
12.6866608

$$$$
