
 OpenBabel10152418413D

 36 39  0  0  0  0  0  0  0  0999 V2000
    1.1740  -10.7330  -25.3700 C   0  0  0  0  0  0  0  0  0  0  0  0
    0.5530  -11.7170  -26.1440 C   0  0  0  0  0  3  0  0  0  0  0  0
   -0.7980  -11.9930  -25.9670 C   0  0  0  0  0  3  0  0  0  0  0  0
   -1.5380  -11.2740  -25.0280 C   0  0  0  0  0  3  0  0  0  0  0  0
   -0.9690  -10.2310  -24.2820 C   0  0  0  0  0  0  0  0  0  0  0  0
    0.3990   -9.9800  -24.4660 C   0  0  0  0  0  3  0  0  0  0  0  0
    4.0330   -8.7070  -28.3760 C   0  0  0  0  0  0  0  0  0  0  0  0
    4.9740   -9.5040  -27.7670 C   0  0  0  0  0  3  0  0  0  0  0  0
    4.5410  -10.1940  -26.6470 N   0  0  0  0  0  0  0  0  0  0  0  0
    3.2570   -9.9820  -26.4500 C   0  0  0  0  0  0  0  0  0  0  0  0
    2.5680  -10.5800  -25.4510 N   0  0  0  0  0  0  0  0  0  0  0  0
    2.5640   -8.8050  -27.5150 S   0  0  0  0  0  0  0  0  0  0  0  0
    3.1020  -10.9700  -24.6850 H   0  0  0  0  0  0  0  0  0  0  0  0
    4.1110   -7.8940  -29.5600 C   0  0  0  0  0  0  0  0  0  0  0  0
    3.5000   -6.8600  -29.7690 O   0  0  0  0  0  0  0  0  0  0  0  0
    4.9290   -8.5090  -30.4670 O   0  0  0  0  0  0  0  0  0  0  0  0
    4.7520  -10.8090  -31.2550 C   0  0  0  0  0  1  0  0  0  0  0  0
    4.2680   -9.3760  -31.4010 C   0  0  0  0  0  2  0  0  0  0  0  0
   -1.7720   -9.4570  -23.2420 C   0  0  0  0  0  2  0  0  0  0  0  0
   -2.2200   -8.1550  -23.7200 N   0  0  0  0  0  0  0  0  0  0  0  0
   -3.2070   -7.9600  -23.6950 H   0  0  0  0  0  0  0  0  0  0  0  0
   -1.3100   -7.0990  -23.6960 C   0  0  0  0  0  0  0  0  0  0  0  0
   -1.1940   -6.4220  -22.5400 N   0  0  0  0  0  0  0  0  0  0  0  0
   -0.7590   -5.1660  -22.6260 C   0  0  0  0  0  3  0  0  0  0  0  0
   -0.5580   -4.5030  -23.7640 N   0  0  0  0  0  0  0  0  0  0  0  0
   -0.5920   -5.2140  -24.9090 C   0  0  0  0  0  0  0  0  0  0  0  0
   -0.4790   -4.6140  -26.1660 C   0  0  0  0  0  0  0  0  0  0  0  0
   -0.3260   -5.3370  -27.3580 C   0  0  0  0  0  3  0  0  0  0  0  0
   -0.3690   -6.7190  -27.3190 C   0  0  0  0  0  3  0  0  0  0  0  0
   -0.6800   -7.3410  -26.1130 C   0  0  0  0  0  3  0  0  0  0  0  0
   -0.8260   -6.5900  -24.9130 C   0  0  0  0  0  0  0  0  0  0  0  0
   -0.8710   -3.2020  -26.3030 C   0  0  0  0  0  0  0  0  0  0  0  0
   -0.1820   -2.5430  -27.2920 N   0  0  0  0  0  0  0  0  0  0  0  0
   -1.6630   -2.6510  -25.5570 O   0  0  0  0  0  0  0  0  0  0  0  0
   -0.3690   -1.5630  -27.4450 H   0  0  0  0  0  0  0  0  0  0  0  0
    0.4960   -3.0070  -27.8850 H   0  0  0  0  0  0  0  0  0  0  0  0
  1  6  1  0  0  0  0
  2  3  1  0  0  0  0
  2  1  2  0  0  0  0
  3  4  2  0  0  0  0
  4  5  1  0  0  0  0
  5 19  1  0  0  0  0
  6  5  2  0  0  0  0
  7  8  2  0  0  0  0
  7 12  1  0  0  0  0
  8  9  1  0  0  0  0
  9 10  2  0  0  0  0
 10 11  1  0  0  0  0
 11  1  1  0  0  0  0
 11 13  1  0  0  0  0
 12 10  1  0  0  0  0
 14  7  1  0  0  0  0
 15 14  2  0  0  0  0
 16 14  1  0  0  0  0
 18 17  1  0  0  0  0
 18 16  1  0  0  0  0
 20 22  1  0  0  0  0
 20 21  1  0  0  0  0
 20 19  1  0  0  0  0
 22 23  1  0  0  0  0
 24 23  2  0  0  0  0
 25 24  1  0  0  0  0
 26 25  2  0  0  0  0
 27 26  1  0  0  0  0
 28 29  1  0  0  0  0
 28 27  2  0  0  0  0
 29 30  2  0  0  0  0
 30 31  1  0  0  0  0
 31 26  1  0  0  0  0
 31 22  2  0  0  0  0
 32 27  1  0  0  0  0
 32 34  2  0  0  0  0
 33 32  1  0  0  0  0
 35 33  1  0  0  0  0
 36 33  1  0  0  0  0
M  END
>  <minimizedAffinity>
-6.85757542

$$$$
