
 OpenBabel10152418413D

 36 39  0  0  0  0  0  0  0  0999 V2000
    3.4320   -7.7160  -29.5720 C   0  0  0  0  0  0  0  0  0  0  0  0
    3.6280   -8.1780  -30.8760 C   0  0  0  0  0  3  0  0  0  0  0  0
    3.9890   -9.5020  -31.0990 C   0  0  0  0  0  3  0  0  0  0  0  0
    4.1380  -10.3730  -30.0200 C   0  0  0  0  0  3  0  0  0  0  0  0
    3.8820   -9.9680  -28.7020 C   0  0  0  0  0  0  0  0  0  0  0  0
    3.5330   -8.6240  -28.4990 C   0  0  0  0  0  3  0  0  0  0  0  0
    0.3370   -5.2460  -27.1980 C   0  0  0  0  0  0  0  0  0  0  0  0
    0.7790   -4.2230  -28.0050 C   0  0  0  0  0  3  0  0  0  0  0  0
    1.8740   -4.5170  -28.8000 N   0  0  0  0  0  0  0  0  0  0  0  0
    2.2160   -5.7790  -28.6550 C   0  0  0  0  0  0  0  0  0  0  0  0
    3.2250   -6.3430  -29.3590 N   0  0  0  0  0  0  0  0  0  0  0  0
    1.3290   -6.6140  -27.4230 S   0  0  0  0  0  0  0  0  0  0  0  0
    3.8970   -5.7210  -29.7880 H   0  0  0  0  0  0  0  0  0  0  0  0
   -0.7760   -5.3150  -26.2900 C   0  0  0  0  0  0  0  0  0  0  0  0
   -1.6470   -6.1680  -26.2770 O   0  0  0  0  0  0  0  0  0  0  0  0
   -0.7540   -4.2160  -25.4780 O   0  0  0  0  0  0  0  0  0  0  0  0
   -1.4320   -1.9250  -24.9910 C   0  0  0  0  0  1  0  0  0  0  0  0
   -1.3620   -3.0360  -26.0260 C   0  0  0  0  0  2  0  0  0  0  0  0
    4.0630  -10.9140  -27.5210 C   0  0  0  0  0  2  0  0  0  0  0  0
    2.8190  -11.1810  -26.8080 N   0  0  0  0  0  0  0  0  0  0  0  0
    2.6680  -12.1140  -26.4610 H   0  0  0  0  0  0  0  0  0  0  0  0
    2.1690  -10.1070  -26.2010 C   0  0  0  0  0  0  0  0  0  0  0  0
    2.9460   -9.1540  -25.6580 N   0  0  0  0  0  0  0  0  0  0  0  0
    2.4060   -8.4350  -24.6750 C   0  0  0  0  0  3  0  0  0  0  0  0
    1.2200   -8.6720  -24.1150 N   0  0  0  0  0  0  0  0  0  0  0  0
    0.4180   -9.5690  -24.7230 C   0  0  0  0  0  0  0  0  0  0  0  0
   -0.8090   -9.9610  -24.1820 C   0  0  0  0  0  0  0  0  0  0  0  0
   -1.7450  -10.7450  -24.8740 C   0  0  0  0  0  3  0  0  0  0  0  0
   -1.4200  -11.2350  -26.1260 C   0  0  0  0  0  3  0  0  0  0  0  0
   -0.1300  -11.0300  -26.6060 C   0  0  0  0  0  3  0  0  0  0  0  0
    0.8030  -10.2260  -25.8930 C   0  0  0  0  0  0  0  0  0  0  0  0
   -1.0000   -9.8470  -22.7270 C   0  0  0  0  0  0  0  0  0  0  0  0
   -1.0450   -8.5460  -22.2880 N   0  0  0  0  0  0  0  0  0  0  0  0
   -1.0260  -10.8090  -21.9780 O   0  0  0  0  0  0  0  0  0  0  0  0
   -1.1520   -8.3700  -21.3000 H   0  0  0  0  0  0  0  0  0  0  0  0
   -0.9910   -7.7560  -22.9200 H   0  0  0  0  0  0  0  0  0  0  0  0
  1 11  1  0  0  0  0
  1  6  1  0  0  0  0
  2  1  2  0  0  0  0
  3  2  1  0  0  0  0
  3  4  2  0  0  0  0
  4  5  1  0  0  0  0
  5  6  2  0  0  0  0
  5 19  1  0  0  0  0
  7 14  1  0  0  0  0
  8  7  2  0  0  0  0
  9 10  2  0  0  0  0
  9  8  1  0  0  0  0
 10 12  1  0  0  0  0
 11 10  1  0  0  0  0
 12  7  1  0  0  0  0
 13 11  1  0  0  0  0
 14 15  2  0  0  0  0
 14 16  1  0  0  0  0
 18 16  1  0  0  0  0
 18 17  1  0  0  0  0
 19 20  1  0  0  0  0
 20 21  1  0  0  0  0
 20 22  1  0  0  0  0
 22 31  2  0  0  0  0
 22 23  1  0  0  0  0
 23 24  2  0  0  0  0
 24 25  1  0  0  0  0
 26 27  1  0  0  0  0
 26 25  2  0  0  0  0
 27 32  1  0  0  0  0
 28 27  2  0  0  0  0
 29 28  1  0  0  0  0
 30 29  2  0  0  0  0
 30 31  1  0  0  0  0
 31 26  1  0  0  0  0
 32 33  1  0  0  0  0
 32 34  2  0  0  0  0
 33 35  1  0  0  0  0
 36 33  1  0  0  0  0
M  END
>  <minimizedAffinity>
-6.12246132

$$$$
