
 OpenBabel10152418413D

 36 39  0  0  0  0  0  0  0  0999 V2000
   -0.8290  -11.4760  -22.7990 C   0  0  0  0  0  0  0  0  0  0  0  0
   -0.7690  -12.0290  -21.5170 C   0  0  0  0  0  3  0  0  0  0  0  0
   -1.4110  -11.4000  -20.4560 C   0  0  0  0  0  3  0  0  0  0  0  0
   -2.1300  -10.2250  -20.6760 C   0  0  0  0  0  3  0  0  0  0  0  0
   -2.2740   -9.6760  -21.9590 C   0  0  0  0  0  0  0  0  0  0  0  0
   -1.6060  -10.3190  -23.0120 C   0  0  0  0  0  3  0  0  0  0  0  0
    2.3290   -9.8160  -25.7290 C   0  0  0  0  0  0  0  0  0  0  0  0
    2.0520  -10.9710  -26.4240 C   0  0  0  0  0  3  0  0  0  0  0  0
    1.2260  -11.8750  -25.7780 N   0  0  0  0  0  0  0  0  0  0  0  0
    0.8160  -11.3780  -24.6310 C   0  0  0  0  0  0  0  0  0  0  0  0
   -0.0460  -12.0360  -23.8210 N   0  0  0  0  0  0  0  0  0  0  0  0
    1.5500   -9.8660  -24.2130 S   0  0  0  0  0  0  0  0  0  0  0  0
   -0.1530  -13.0320  -23.9660 H   0  0  0  0  0  0  0  0  0  0  0  0
    3.1000   -8.6590  -26.0960 C   0  0  0  0  0  0  0  0  0  0  0  0
    2.9920   -7.5390  -25.6260 O   0  0  0  0  0  0  0  0  0  0  0  0
    3.9340   -8.9900  -27.1280 O   0  0  0  0  0  0  0  0  0  0  0  0
    4.1590   -7.6730  -29.1670 C   0  0  0  0  0  1  0  0  0  0  0  0
    4.6250   -7.8880  -27.7360 C   0  0  0  0  0  2  0  0  0  0  0  0
   -3.0440   -8.3830  -22.1990 C   0  0  0  0  0  2  0  0  0  0  0  0
   -2.7540   -7.7770  -23.4930 N   0  0  0  0  0  0  0  0  0  0  0  0
   -3.5330   -7.5320  -24.0810 H   0  0  0  0  0  0  0  0  0  0  0  0
   -1.5400   -7.1090  -23.6460 C   0  0  0  0  0  0  0  0  0  0  0  0
   -1.2170   -6.2080  -22.7010 N   0  0  0  0  0  0  0  0  0  0  0  0
   -0.3810   -5.2370  -23.0650 C   0  0  0  0  0  3  0  0  0  0  0  0
    0.0500   -5.0240  -24.3080 N   0  0  0  0  0  0  0  0  0  0  0  0
   -0.2070   -5.9800  -25.2240 C   0  0  0  0  0  0  0  0  0  0  0  0
    0.1200   -5.8290  -26.5740 C   0  0  0  0  0  0  0  0  0  0  0  0
    0.0360   -6.8690  -27.5120 C   0  0  0  0  0  3  0  0  0  0  0  0
   -0.4740   -8.0930  -27.1180 C   0  0  0  0  0  3  0  0  0  0  0  0
   -0.9950   -8.2130  -25.8330 C   0  0  0  0  0  3  0  0  0  0  0  0
   -0.8950   -7.1490  -24.8940 C   0  0  0  0  0  0  0  0  0  0  0  0
    0.2330   -4.4660  -27.1180 C   0  0  0  0  0  0  0  0  0  0  0  0
   -0.7480   -3.6200  -26.6610 N   0  0  0  0  0  0  0  0  0  0  0  0
    1.0580   -4.1450  -27.9560 O   0  0  0  0  0  0  0  0  0  0  0  0
   -0.7650   -2.6680  -26.9970 H   0  0  0  0  0  0  0  0  0  0  0  0
   -1.4460   -3.9090  -25.9870 H   0  0  0  0  0  0  0  0  0  0  0  0
  1  2  1  0  0  0  0
  2  3  2  0  0  0  0
  4  3  1  0  0  0  0
  5  4  2  0  0  0  0
  6  1  2  0  0  0  0
  6  5  1  0  0  0  0
  7 12  1  0  0  0  0
  8  9  1  0  0  0  0
  8  7  2  0  0  0  0
  9 10  2  0  0  0  0
 10 12  1  0  0  0  0
 10 11  1  0  0  0  0
 11  1  1  0  0  0  0
 13 11  1  0  0  0  0
 14  7  1  0  0  0  0
 14 15  2  0  0  0  0
 16 14  1  0  0  0  0
 17 18  1  0  0  0  0
 18 16  1  0  0  0  0
 19  5  1  0  0  0  0
 20 19  1  0  0  0  0
 21 20  1  0  0  0  0
 22 20  1  0  0  0  0
 22 23  1  0  0  0  0
 24 23  2  0  0  0  0
 25 24  1  0  0  0  0
 26 31  1  0  0  0  0
 26 25  2  0  0  0  0
 27 26  1  0  0  0  0
 28 29  1  0  0  0  0
 28 27  2  0  0  0  0
 29 30  2  0  0  0  0
 30 31  1  0  0  0  0
 31 22  2  0  0  0  0
 32 33  1  0  0  0  0
 32 27  1  0  0  0  0
 33 36  1  0  0  0  0
 34 32  2  0  0  0  0
 35 33  1  0  0  0  0
M  END
>  <minimizedAffinity>
-7.92306042

$$$$

 OpenBabel10152418413D

 36 39  0  0  0  0  0  0  0  0999 V2000
    3.4610   -9.3200  -27.4600 C   0  0  0  0  0  0  0  0  0  0  0  0
    4.5430  -10.1170  -27.8420 C   0  0  0  0  0  3  0  0  0  0  0  0
    4.8250  -11.2890  -27.1480 C   0  0  0  0  0  3  0  0  0  0  0  0
    4.0150  -11.6770  -26.0810 C   0  0  0  0  0  3  0  0  0  0  0  0
    2.8790  -10.9430  -25.7110 C   0  0  0  0  0  0  0  0  0  0  0  0
    2.6220   -9.7570  -26.4150 C   0  0  0  0  0  3  0  0  0  0  0  0
    0.5810   -5.7740  -26.7940 C   0  0  0  0  0  0  0  0  0  0  0  0
    0.9770   -5.4270  -28.0650 C   0  0  0  0  0  3  0  0  0  0  0  0
    2.0080   -6.1820  -28.5990 N   0  0  0  0  0  0  0  0  0  0  0  0
    2.3420   -7.1480  -27.7690 C   0  0  0  0  0  0  0  0  0  0  0  0
    3.2890   -8.0670  -28.0680 N   0  0  0  0  0  0  0  0  0  0  0  0
    1.5350   -7.0730  -26.2380 S   0  0  0  0  0  0  0  0  0  0  0  0
    3.9370   -7.8420  -28.8110 H   0  0  0  0  0  0  0  0  0  0  0  0
   -0.4640   -5.2480  -25.9570 C   0  0  0  0  0  0  0  0  0  0  0  0
   -0.7500   -5.6260  -24.8330 O   0  0  0  0  0  0  0  0  0  0  0  0
   -1.1540   -4.2960  -26.6540 O   0  0  0  0  0  0  0  0  0  0  0  0
   -1.4460   -2.3330  -25.2380 C   0  0  0  0  0  1  0  0  0  0  0  0
   -0.7280   -2.9430  -26.4310 C   0  0  0  0  0  2  0  0  0  0  0  0
    2.0030  -11.3560  -24.5330 C   0  0  0  0  0  2  0  0  0  0  0  0
    0.7150  -11.9030  -24.9430 N   0  0  0  0  0  0  0  0  0  0  0  0
    0.6200  -12.9040  -24.9760 H   0  0  0  0  0  0  0  0  0  0  0  0
   -0.4180  -11.1090  -24.7690 C   0  0  0  0  0  0  0  0  0  0  0  0
   -0.7010  -10.2310  -25.7470 N   0  0  0  0  0  0  0  0  0  0  0  0
   -1.4170   -9.1630  -25.4000 C   0  0  0  0  0  3  0  0  0  0  0  0
   -1.7570   -8.8430  -24.1510 N   0  0  0  0  0  0  0  0  0  0  0  0
   -1.5460   -9.7700  -23.1960 C   0  0  0  0  0  0  0  0  0  0  0  0
   -1.7830   -9.5170  -21.8420 C   0  0  0  0  0  0  0  0  0  0  0  0
   -1.7490  -10.5090  -20.8510 C   0  0  0  0  0  3  0  0  0  0  0  0
   -1.3840  -11.7970  -21.1980 C   0  0  0  0  0  3  0  0  0  0  0  0
   -0.9480  -12.0370  -22.4980 C   0  0  0  0  0  3  0  0  0  0  0  0
   -0.9950  -11.0180  -23.4910 C   0  0  0  0  0  0  0  0  0  0  0  0
   -1.7310   -8.1220  -21.3730 C   0  0  0  0  0  0  0  0  0  0  0  0
   -1.0850   -7.2820  -22.2470 N   0  0  0  0  0  0  0  0  0  0  0  0
   -2.1410   -7.7680  -20.2810 O   0  0  0  0  0  0  0  0  0  0  0  0
   -0.9810   -6.3090  -21.9990 H   0  0  0  0  0  0  0  0  0  0  0  0
   -0.7220   -7.5970  -23.1380 H   0  0  0  0  0  0  0  0  0  0  0  0
  1  6  1  0  0  0  0
  2  1  2  0  0  0  0
  2  3  1  0  0  0  0
  3  4  2  0  0  0  0
  4  5  1  0  0  0  0
  5 19  1  0  0  0  0
  6  5  2  0  0  0  0
  7 12  1  0  0  0  0
  7 14  1  0  0  0  0
  8  7  2  0  0  0  0
  9  8  1  0  0  0  0
  9 10  2  0  0  0  0
 10 12  1  0  0  0  0
 11 10  1  0  0  0  0
 11  1  1  0  0  0  0
 13 11  1  0  0  0  0
 14 15  2  0  0  0  0
 16 18  1  0  0  0  0
 16 14  1  0  0  0  0
 18 17  1  0  0  0  0
 20 22  1  0  0  0  0
 20 19  1  0  0  0  0
 21 20  1  0  0  0  0
 22 31  1  0  0  0  0
 23 24  1  0  0  0  0
 23 22  2  0  0  0  0
 24 25  2  0  0  0  0
 25 26  1  0  0  0  0
 26 27  1  0  0  0  0
 27 32  1  0  0  0  0
 27 28  2  0  0  0  0
 29 28  1  0  0  0  0
 30 29  2  0  0  0  0
 31 26  2  0  0  0  0
 31 30  1  0  0  0  0
 32 34  2  0  0  0  0
 33 35  1  0  0  0  0
 33 32  1  0  0  0  0
 36 33  1  0  0  0  0
M  END
>  <minimizedAffinity>
-7.89525127

$$$$

 OpenBabel10152418413D

 36 39  0  0  0  0  0  0  0  0999 V2000
   -0.6520   -9.4700  -23.0590 C   0  0  0  0  0  0  0  0  0  0  0  0
   -1.0670  -10.5810  -22.3210 C   0  0  0  0  0  3  0  0  0  0  0  0
   -0.8810  -11.8630  -22.8270 C   0  0  0  0  0  3  0  0  0  0  0  0
   -0.2620  -12.0390  -24.0640 C   0  0  0  0  0  3  0  0  0  0  0  0
    0.2320  -10.9540  -24.8040 C   0  0  0  0  0  0  0  0  0  0  0  0
    0.0210   -9.6700  -24.2820 C   0  0  0  0  0  3  0  0  0  0  0  0
   -0.7720   -5.2850  -25.0050 C   0  0  0  0  0  0  0  0  0  0  0  0
   -0.7680   -4.8570  -23.6980 C   0  0  0  0  0  3  0  0  0  0  0  0
   -0.8970   -5.8510  -22.7420 N   0  0  0  0  0  0  0  0  0  0  0  0
   -0.9230   -7.0350  -23.3160 C   0  0  0  0  0  0  0  0  0  0  0  0
   -0.9910   -8.1850  -22.6060 N   0  0  0  0  0  0  0  0  0  0  0  0
   -0.9620   -6.9790  -25.0470 S   0  0  0  0  0  0  0  0  0  0  0  0
   -1.3070   -8.1220  -21.6470 H   0  0  0  0  0  0  0  0  0  0  0  0
   -0.6210   -4.5550  -26.2350 C   0  0  0  0  0  0  0  0  0  0  0  0
   -0.8950   -3.3820  -26.4180 O   0  0  0  0  0  0  0  0  0  0  0  0
   -0.1900   -5.4120  -27.2100 O   0  0  0  0  0  0  0  0  0  0  0  0
    1.3550   -4.5780  -28.9010 C   0  0  0  0  0  1  0  0  0  0  0  0
    1.1950   -5.2890  -27.5670 C   0  0  0  0  0  2  0  0  0  0  0  0
    0.8920  -11.1440  -26.1660 C   0  0  0  0  0  2  0  0  0  0  0  0
    2.3310  -11.3610  -26.0780 N   0  0  0  0  0  0  0  0  0  0  0  0
    2.6670  -12.3080  -26.1340 H   0  0  0  0  0  0  0  0  0  0  0  0
    3.1750  -10.3090  -26.4330 C   0  0  0  0  0  0  0  0  0  0  0  0
    3.0180   -9.1520  -25.7670 N   0  0  0  0  0  0  0  0  0  0  0  0
    3.4120   -8.0450  -26.3950 C   0  0  0  0  0  3  0  0  0  0  0  0
    3.8230   -7.9890  -27.6610 N   0  0  0  0  0  0  0  0  0  0  0  0
    4.0590   -9.1600  -28.2870 C   0  0  0  0  0  0  0  0  0  0  0  0
    4.4110   -9.2280  -29.6370 C   0  0  0  0  0  0  0  0  0  0  0  0
    4.8400  -10.4060  -30.2680 C   0  0  0  0  0  3  0  0  0  0  0  0
    4.8440  -11.5910  -29.5530 C   0  0  0  0  0  3  0  0  0  0  0  0
    4.3090  -11.5930  -28.2670 C   0  0  0  0  0  3  0  0  0  0  0  0
    3.8840  -10.3860  -27.6430 C   0  0  0  0  0  0  0  0  0  0  0  0
    4.0020   -8.1260  -30.5230 C   0  0  0  0  0  0  0  0  0  0  0  0
    4.6420   -6.9430  -30.2430 N   0  0  0  0  0  0  0  0  0  0  0  0
    3.1210   -8.2300  -31.3590 O   0  0  0  0  0  0  0  0  0  0  0  0
    4.4090   -6.1240  -30.7860 H   0  0  0  0  0  0  0  0  0  0  0  0
    5.3500   -6.8640  -29.5240 H   0  0  0  0  0  0  0  0  0  0  0  0
  1 11  1  0  0  0  0
  1  2  1  0  0  0  0
  3  2  2  0  0  0  0
  4  3  1  0  0  0  0
  5  6  1  0  0  0  0
  5  4  2  0  0  0  0
  6  1  2  0  0  0  0
  7  8  2  0  0  0  0
  8  9  1  0  0  0  0
 10  9  2  0  0  0  0
 10 11  1  0  0  0  0
 11 13  1  0  0  0  0
 12  7  1  0  0  0  0
 12 10  1  0  0  0  0
 14  7  1  0  0  0  0
 15 14  2  0  0  0  0
 16 14  1  0  0  0  0
 17 18  1  0  0  0  0
 18 16  1  0  0  0  0
 19 20  1  0  0  0  0
 19  5  1  0  0  0  0
 21 20  1  0  0  0  0
 22 20  1  0  0  0  0
 22 23  1  0  0  0  0
 24 23  2  0  0  0  0
 25 24  1  0  0  0  0
 26 25  2  0  0  0  0
 26 31  1  0  0  0  0
 27 26  1  0  0  0  0
 28 27  2  0  0  0  0
 28 29  1  0  0  0  0
 29 30  2  0  0  0  0
 30 31  1  0  0  0  0
 31 22  2  0  0  0  0
 32 33  1  0  0  0  0
 32 27  1  0  0  0  0
 33 36  1  0  0  0  0
 34 32  2  0  0  0  0
 35 33  1  0  0  0  0
M  END
>  <minimizedAffinity>
-7.23171616

$$$$

 OpenBabel10152418413D

 36 39  0  0  0  0  0  0  0  0999 V2000
   -1.6770  -10.2750  -22.8000 C   0  0  0  0  0  0  0  0  0  0  0  0
   -1.7700  -10.7470  -21.4890 C   0  0  0  0  0  3  0  0  0  0  0  0
   -1.6980   -9.8590  -20.4210 C   0  0  0  0  0  3  0  0  0  0  0  0
   -1.5520   -8.4930  -20.6620 C   0  0  0  0  0  3  0  0  0  0  0  0
   -1.5250   -7.9710  -21.9640 C   0  0  0  0  0  0  0  0  0  0  0  0
   -1.5850   -8.8860  -23.0250 C   0  0  0  0  0  3  0  0  0  0  0  0
    1.6600  -11.5370  -25.7290 C   0  0  0  0  0  0  0  0  0  0  0  0
    0.6060  -12.0390  -26.4570 C   0  0  0  0  0  3  0  0  0  0  0  0
   -0.6270  -12.0050  -25.8260 N   0  0  0  0  0  0  0  0  0  0  0  0
   -0.5240  -11.4120  -24.6560 C   0  0  0  0  0  0  0  0  0  0  0  0
   -1.5920  -11.1990  -23.8540 N   0  0  0  0  0  0  0  0  0  0  0  0
    1.1020  -11.0230  -24.2020 S   0  0  0  0  0  0  0  0  0  0  0  0
   -2.4230  -11.7490  -24.0290 H   0  0  0  0  0  0  0  0  0  0  0  0
    3.0480  -11.3760  -26.0710 C   0  0  0  0  0  0  0  0  0  0  0  0
    3.9890  -11.9730  -25.5760 O   0  0  0  0  0  0  0  0  0  0  0  0
    3.1640  -10.3760  -26.9960 O   0  0  0  0  0  0  0  0  0  0  0  0
    3.8540   -8.0690  -26.6170 C   0  0  0  0  0  1  0  0  0  0  0  0
    4.2950   -9.5090  -26.8240 C   0  0  0  0  0  2  0  0  0  0  0  0
   -1.3460   -6.4800  -22.2290 C   0  0  0  0  0  2  0  0  0  0  0  0
   -0.2490   -6.1910  -23.1450 N   0  0  0  0  0  0  0  0  0  0  0  0
    0.6880   -6.2170  -22.7770 H   0  0  0  0  0  0  0  0  0  0  0  0
   -0.4600   -6.4010  -24.5060 C   0  0  0  0  0  0  0  0  0  0  0  0
   -0.2080   -7.6340  -24.9780 N   0  0  0  0  0  0  0  0  0  0  0  0
    0.0920   -7.7270  -26.2730 C   0  0  0  0  0  3  0  0  0  0  0  0
    0.2820   -6.6910  -27.0900 N   0  0  0  0  0  0  0  0  0  0  0  0
   -0.0590   -5.4710  -26.6310 C   0  0  0  0  0  0  0  0  0  0  0  0
    0.1740   -4.3040  -27.3650 C   0  0  0  0  0  0  0  0  0  0  0  0
   -0.3310   -3.0460  -27.0010 C   0  0  0  0  0  3  0  0  0  0  0  0
   -1.0290   -2.9180  -25.8130 C   0  0  0  0  0  3  0  0  0  0  0  0
   -1.1040   -4.0180  -24.9640 C   0  0  0  0  0  3  0  0  0  0  0  0
   -0.5910   -5.2870  -25.3530 C   0  0  0  0  0  0  0  0  0  0  0  0
    1.2570   -4.3100  -28.3610 C   0  0  0  0  0  0  0  0  0  0  0  0
    2.3000   -5.1360  -28.0210 N   0  0  0  0  0  0  0  0  0  0  0  0
    1.2670   -3.5870  -29.3430 O   0  0  0  0  0  0  0  0  0  0  0  0
    3.0990   -5.1880  -28.6350 H   0  0  0  0  0  0  0  0  0  0  0  0
    2.2910   -5.7080  -27.1850 H   0  0  0  0  0  0  0  0  0  0  0  0
  1  2  1  0  0  0  0
  2  3  2  0  0  0  0
  4  3  1  0  0  0  0
  5  4  2  0  0  0  0
  6  1  2  0  0  0  0
  6  5  1  0  0  0  0
  7 12  1  0  0  0  0
  8  9  1  0  0  0  0
  8  7  2  0  0  0  0
  9 10  2  0  0  0  0
 10 12  1  0  0  0  0
 10 11  1  0  0  0  0
 11  1  1  0  0  0  0
 13 11  1  0  0  0  0
 14  7  1  0  0  0  0
 14 15  2  0  0  0  0
 16 18  1  0  0  0  0
 16 14  1  0  0  0  0
 18 17  1  0  0  0  0
 19  5  1  0  0  0  0
 20 21  1  0  0  0  0
 20 19  1  0  0  0  0
 22 20  1  0  0  0  0
 23 22  1  0  0  0  0
 24 23  2  0  0  0  0
 25 26  2  0  0  0  0
 25 24  1  0  0  0  0
 26 31  1  0  0  0  0
 27 28  2  0  0  0  0
 27 26  1  0  0  0  0
 28 29  1  0  0  0  0
 29 30  2  0  0  0  0
 31 30  1  0  0  0  0
 31 22  2  0  0  0  0
 32 33  1  0  0  0  0
 32 27  1  0  0  0  0
 33 36  1  0  0  0  0
 34 32  2  0  0  0  0
 35 33  1  0  0  0  0
M  END
>  <minimizedAffinity>
-6.94612455

$$$$

 OpenBabel10152418413D

 36 39  0  0  0  0  0  0  0  0999 V2000
    1.1740  -10.7330  -25.3700 C   0  0  0  0  0  0  0  0  0  0  0  0
    0.5530  -11.7170  -26.1440 C   0  0  0  0  0  3  0  0  0  0  0  0
   -0.7980  -11.9930  -25.9670 C   0  0  0  0  0  3  0  0  0  0  0  0
   -1.5380  -11.2740  -25.0280 C   0  0  0  0  0  3  0  0  0  0  0  0
   -0.9690  -10.2310  -24.2820 C   0  0  0  0  0  0  0  0  0  0  0  0
    0.3990   -9.9800  -24.4660 C   0  0  0  0  0  3  0  0  0  0  0  0
    4.0330   -8.7070  -28.3760 C   0  0  0  0  0  0  0  0  0  0  0  0
    4.9740   -9.5040  -27.7670 C   0  0  0  0  0  3  0  0  0  0  0  0
    4.5410  -10.1940  -26.6470 N   0  0  0  0  0  0  0  0  0  0  0  0
    3.2570   -9.9820  -26.4500 C   0  0  0  0  0  0  0  0  0  0  0  0
    2.5680  -10.5800  -25.4510 N   0  0  0  0  0  0  0  0  0  0  0  0
    2.5640   -8.8050  -27.5150 S   0  0  0  0  0  0  0  0  0  0  0  0
    3.1020  -10.9700  -24.6850 H   0  0  0  0  0  0  0  0  0  0  0  0
    4.1110   -7.8940  -29.5600 C   0  0  0  0  0  0  0  0  0  0  0  0
    3.5000   -6.8600  -29.7690 O   0  0  0  0  0  0  0  0  0  0  0  0
    4.9290   -8.5090  -30.4670 O   0  0  0  0  0  0  0  0  0  0  0  0
    4.7520  -10.8090  -31.2550 C   0  0  0  0  0  1  0  0  0  0  0  0
    4.2680   -9.3760  -31.4010 C   0  0  0  0  0  2  0  0  0  0  0  0
   -1.7720   -9.4570  -23.2420 C   0  0  0  0  0  2  0  0  0  0  0  0
   -2.2200   -8.1550  -23.7200 N   0  0  0  0  0  0  0  0  0  0  0  0
   -3.2070   -7.9600  -23.6950 H   0  0  0  0  0  0  0  0  0  0  0  0
   -1.3100   -7.0990  -23.6960 C   0  0  0  0  0  0  0  0  0  0  0  0
   -1.1940   -6.4220  -22.5400 N   0  0  0  0  0  0  0  0  0  0  0  0
   -0.7590   -5.1660  -22.6260 C   0  0  0  0  0  3  0  0  0  0  0  0
   -0.5580   -4.5030  -23.7640 N   0  0  0  0  0  0  0  0  0  0  0  0
   -0.5920   -5.2140  -24.9090 C   0  0  0  0  0  0  0  0  0  0  0  0
   -0.4790   -4.6140  -26.1660 C   0  0  0  0  0  0  0  0  0  0  0  0
   -0.3260   -5.3370  -27.3580 C   0  0  0  0  0  3  0  0  0  0  0  0
   -0.3690   -6.7190  -27.3190 C   0  0  0  0  0  3  0  0  0  0  0  0
   -0.6800   -7.3410  -26.1130 C   0  0  0  0  0  3  0  0  0  0  0  0
   -0.8260   -6.5900  -24.9130 C   0  0  0  0  0  0  0  0  0  0  0  0
   -0.8710   -3.2020  -26.3030 C   0  0  0  0  0  0  0  0  0  0  0  0
   -0.1820   -2.5430  -27.2920 N   0  0  0  0  0  0  0  0  0  0  0  0
   -1.6630   -2.6510  -25.5570 O   0  0  0  0  0  0  0  0  0  0  0  0
   -0.3690   -1.5630  -27.4450 H   0  0  0  0  0  0  0  0  0  0  0  0
    0.4960   -3.0070  -27.8850 H   0  0  0  0  0  0  0  0  0  0  0  0
  1  6  1  0  0  0  0
  2  3  1  0  0  0  0
  2  1  2  0  0  0  0
  3  4  2  0  0  0  0
  4  5  1  0  0  0  0
  5 19  1  0  0  0  0
  6  5  2  0  0  0  0
  7  8  2  0  0  0  0
  7 12  1  0  0  0  0
  8  9  1  0  0  0  0
  9 10  2  0  0  0  0
 10 11  1  0  0  0  0
 11  1  1  0  0  0  0
 11 13  1  0  0  0  0
 12 10  1  0  0  0  0
 14  7  1  0  0  0  0
 15 14  2  0  0  0  0
 16 14  1  0  0  0  0
 18 17  1  0  0  0  0
 18 16  1  0  0  0  0
 20 22  1  0  0  0  0
 20 21  1  0  0  0  0
 20 19  1  0  0  0  0
 22 23  1  0  0  0  0
 24 23  2  0  0  0  0
 25 24  1  0  0  0  0
 26 25  2  0  0  0  0
 27 26  1  0  0  0  0
 28 29  1  0  0  0  0
 28 27  2  0  0  0  0
 29 30  2  0  0  0  0
 30 31  1  0  0  0  0
 31 26  1  0  0  0  0
 31 22  2  0  0  0  0
 32 27  1  0  0  0  0
 32 34  2  0  0  0  0
 33 32  1  0  0  0  0
 35 33  1  0  0  0  0
 36 33  1  0  0  0  0
M  END
>  <minimizedAffinity>
-6.85757542

$$$$

 OpenBabel10152418413D

 36 39  0  0  0  0  0  0  0  0999 V2000
   -0.6480   -5.9180  -25.0370 C   0  0  0  0  0  0  0  0  0  0  0  0
   -0.2520   -5.2230  -23.8920 C   0  0  0  0  0  3  0  0  0  0  0  0
   -0.6690   -5.6520  -22.6370 C   0  0  0  0  0  3  0  0  0  0  0  0
   -1.4690   -6.7890  -22.5210 C   0  0  0  0  0  3  0  0  0  0  0  0
   -1.8300   -7.5550  -23.6390 C   0  0  0  0  0  0  0  0  0  0  0  0
   -1.4100   -7.0960  -24.8970 C   0  0  0  0  0  3  0  0  0  0  0  0
    2.4280   -6.9190  -28.3310 C   0  0  0  0  0  0  0  0  0  0  0  0
    2.1390   -5.6440  -28.7600 C   0  0  0  0  0  3  0  0  0  0  0  0
    1.0940   -5.0150  -28.1050 N   0  0  0  0  0  0  0  0  0  0  0  0
    0.6400   -5.7780  -27.1330 C   0  0  0  0  0  0  0  0  0  0  0  0
   -0.3490   -5.3800  -26.2990 N   0  0  0  0  0  0  0  0  0  0  0  0
    1.3510   -7.3560  -27.0840 S   0  0  0  0  0  0  0  0  0  0  0  0
   -0.9310   -4.6100  -26.6020 H   0  0  0  0  0  0  0  0  0  0  0  0
    3.4520   -7.8410  -28.7440 C   0  0  0  0  0  0  0  0  0  0  0  0
    3.8760   -8.7870  -28.1010 O   0  0  0  0  0  0  0  0  0  0  0  0
    3.9470   -7.4430  -29.9540 O   0  0  0  0  0  0  0  0  0  0  0  0
    4.3540   -9.2090  -31.5850 C   0  0  0  0  0  1  0  0  0  0  0  0
    3.4050   -8.1270  -31.0940 C   0  0  0  0  0  2  0  0  0  0  0  0
   -2.7200   -8.7870  -23.5170 C   0  0  0  0  0  2  0  0  0  0  0  0
   -2.2640   -9.7210  -22.4950 N   0  0  0  0  0  0  0  0  0  0  0  0
   -2.8130   -9.8030  -21.6550 H   0  0  0  0  0  0  0  0  0  0  0  0
   -1.4550  -10.7840  -22.8940 C   0  0  0  0  0  0  0  0  0  0  0  0
   -0.7540  -11.4110  -21.9320 N   0  0  0  0  0  0  0  0  0  0  0  0
    0.3560  -12.0390  -22.3170 C   0  0  0  0  0  3  0  0  0  0  0  0
    0.8810  -11.9840  -23.5410 N   0  0  0  0  0  0  0  0  0  0  0  0
    0.1290  -11.4290  -24.5120 C   0  0  0  0  0  0  0  0  0  0  0  0
    0.6060  -11.2400  -25.8120 C   0  0  0  0  0  0  0  0  0  0  0  0
   -0.2050  -10.8400  -26.8850 C   0  0  0  0  0  3  0  0  0  0  0  0
   -1.5330  -10.5320  -26.6480 C   0  0  0  0  0  3  0  0  0  0  0  0
   -1.9870  -10.5160  -25.3320 C   0  0  0  0  0  3  0  0  0  0  0  0
   -1.1510  -10.9310  -24.2580 C   0  0  0  0  0  0  0  0  0  0  0  0
    2.0600  -11.1210  -26.0120 C   0  0  0  0  0  0  0  0  0  0  0  0
    2.6210  -10.0930  -25.2940 N   0  0  0  0  0  0  0  0  0  0  0  0
    2.6850  -11.8080  -26.8010 O   0  0  0  0  0  0  0  0  0  0  0  0
    3.6120   -9.9210  -25.3860 H   0  0  0  0  0  0  0  0  0  0  0  0
    2.0820   -9.5110  -24.6650 H   0  0  0  0  0  0  0  0  0  0  0  0
  1  6  2  0  0  0  0
  1  2  1  0  0  0  0
  2  3  2  0  0  0  0
  3  4  1  0  0  0  0
  5 19  1  0  0  0  0
  5  4  2  0  0  0  0
  6  5  1  0  0  0  0
  7 12  1  0  0  0  0
  8  7  2  0  0  0  0
  8  9  1  0  0  0  0
  9 10  2  0  0  0  0
 10 12  1  0  0  0  0
 10 11  1  0  0  0  0
 11  1  1  0  0  0  0
 13 11  1  0  0  0  0
 14  7  1  0  0  0  0
 14 15  2  0  0  0  0
 16 14  1  0  0  0  0
 17 18  1  0  0  0  0
 18 16  1  0  0  0  0
 19 20  1  0  0  0  0
 20 21  1  0  0  0  0
 22 20  1  0  0  0  0
 22 23  1  0  0  0  0
 24 23  2  0  0  0  0
 25 24  1  0  0  0  0
 26 31  1  0  0  0  0
 26 25  2  0  0  0  0
 27 26  1  0  0  0  0
 28 29  1  0  0  0  0
 28 27  2  0  0  0  0
 29 30  2  0  0  0  0
 30 31  1  0  0  0  0
 31 22  2  0  0  0  0
 32 27  1  0  0  0  0
 32 33  1  0  0  0  0
 33 36  1  0  0  0  0
 34 32  2  0  0  0  0
 35 33  1  0  0  0  0
M  END
>  <minimizedAffinity>
-6.26171064

$$$$

 OpenBabel10152418413D

 36 39  0  0  0  0  0  0  0  0999 V2000
    2.5500   -6.7320  -28.7920 C   0  0  0  0  0  0  0  0  0  0  0  0
    2.7300   -6.9780  -30.1560 C   0  0  0  0  0  3  0  0  0  0  0  0
    3.6420   -7.9400  -30.5760 C   0  0  0  0  0  3  0  0  0  0  0  0
    4.3630   -8.6730  -29.6330 C   0  0  0  0  0  3  0  0  0  0  0  0
    4.1600   -8.5060  -28.2550 C   0  0  0  0  0  0  0  0  0  0  0  0
    3.2470   -7.5200  -27.8540 C   0  0  0  0  0  3  0  0  0  0  0  0
   -0.3840   -5.9990  -25.3040 C   0  0  0  0  0  0  0  0  0  0  0  0
   -0.8330   -4.9800  -26.1120 C   0  0  0  0  0  3  0  0  0  0  0  0
   -0.0800   -4.7420  -27.2500 N   0  0  0  0  0  0  0  0  0  0  0  0
    0.8910   -5.6240  -27.3460 C   0  0  0  0  0  0  0  0  0  0  0  0
    1.7470   -5.6510  -28.3940 N   0  0  0  0  0  0  0  0  0  0  0  0
    1.0320   -6.6710  -25.9740 S   0  0  0  0  0  0  0  0  0  0  0  0
    1.8130   -4.8170  -28.9630 H   0  0  0  0  0  0  0  0  0  0  0  0
   -0.9250   -6.5440  -24.0880 C   0  0  0  0  0  0  0  0  0  0  0  0
   -0.5130   -6.3410  -22.9580 O   0  0  0  0  0  0  0  0  0  0  0  0
   -1.9410   -7.4040  -24.4000 O   0  0  0  0  0  0  0  0  0  0  0  0
   -4.1150   -7.7580  -23.3560 C   0  0  0  0  0  1  0  0  0  0  0  0
   -2.6150   -7.9910  -23.2770 C   0  0  0  0  0  2  0  0  0  0  0  0
    4.9620   -9.2930  -27.2240 C   0  0  0  0  0  2  0  0  0  0  0  0
    4.1710   -9.6820  -26.0620 N   0  0  0  0  0  0  0  0  0  0  0  0
    4.0320   -8.9970  -25.3380 H   0  0  0  0  0  0  0  0  0  0  0  0
    3.2510  -10.7180  -26.2140 C   0  0  0  0  0  0  0  0  0  0  0  0
    3.3180  -11.4300  -27.3530 N   0  0  0  0  0  0  0  0  0  0  0  0
    2.1980  -12.0370  -27.7430 C   0  0  0  0  0  3  0  0  0  0  0  0
    1.0060  -11.8900  -27.1650 N   0  0  0  0  0  0  0  0  0  0  0  0
    0.9690  -11.2490  -25.9800 C   0  0  0  0  0  0  0  0  0  0  0  0
   -0.2300  -10.9610  -25.3230 C   0  0  0  0  0  0  0  0  0  0  0  0
   -0.2950  -10.4650  -24.0120 C   0  0  0  0  0  3  0  0  0  0  0  0
    0.8790  -10.1610  -23.3470 C   0  0  0  0  0  3  0  0  0  0  0  0
    2.0800  -10.2470  -24.0450 C   0  0  0  0  0  3  0  0  0  0  0  0
    2.1260  -10.7580  -25.3720 C   0  0  0  0  0  0  0  0  0  0  0  0
   -1.4570  -10.8430  -26.1280 C   0  0  0  0  0  0  0  0  0  0  0  0
   -1.3010  -10.0470  -27.2360 N   0  0  0  0  0  0  0  0  0  0  0  0
   -2.5250  -11.3300  -25.7960 O   0  0  0  0  0  0  0  0  0  0  0  0
   -2.0970   -9.8900  -27.8380 H   0  0  0  0  0  0  0  0  0  0  0  0
   -0.4150   -9.6240  -27.4830 H   0  0  0  0  0  0  0  0  0  0  0  0
  1 11  1  0  0  0  0
  1  6  1  0  0  0  0
  2  1  2  0  0  0  0
  3  2  1  0  0  0  0
  3  4  2  0  0  0  0
  4  5  1  0  0  0  0
  5  6  2  0  0  0  0
  5 19  1  0  0  0  0
  7 14  1  0  0  0  0
  8  7  2  0  0  0  0
  9  8  1  0  0  0  0
 10  9  2  0  0  0  0
 10 12  1  0  0  0  0
 11 10  1  0  0  0  0
 12  7  1  0  0  0  0
 13 11  1  0  0  0  0
 14 15  2  0  0  0  0
 16 14  1  0  0  0  0
 16 18  1  0  0  0  0
 17 18  1  0  0  0  0
 19 20  1  0  0  0  0
 20 21  1  0  0  0  0
 22 20  1  0  0  0  0
 22 31  1  0  0  0  0
 23 22  2  0  0  0  0
 24 23  1  0  0  0  0
 24 25  2  0  0  0  0
 25 26  1  0  0  0  0
 26 31  2  0  0  0  0
 26 27  1  0  0  0  0
 27 28  2  0  0  0  0
 28 29  1  0  0  0  0
 30 29  2  0  0  0  0
 31 30  1  0  0  0  0
 32 34  2  0  0  0  0
 32 27  1  0  0  0  0
 33 32  1  0  0  0  0
 35 33  1  0  0  0  0
 36 33  1  0  0  0  0
M  END
>  <minimizedAffinity>
-6.17098188

$$$$

 OpenBabel10152418413D

 36 39  0  0  0  0  0  0  0  0999 V2000
    3.4320   -7.7160  -29.5720 C   0  0  0  0  0  0  0  0  0  0  0  0
    3.6280   -8.1780  -30.8760 C   0  0  0  0  0  3  0  0  0  0  0  0
    3.9890   -9.5020  -31.0990 C   0  0  0  0  0  3  0  0  0  0  0  0
    4.1380  -10.3730  -30.0200 C   0  0  0  0  0  3  0  0  0  0  0  0
    3.8820   -9.9680  -28.7020 C   0  0  0  0  0  0  0  0  0  0  0  0
    3.5330   -8.6240  -28.4990 C   0  0  0  0  0  3  0  0  0  0  0  0
    0.3370   -5.2460  -27.1980 C   0  0  0  0  0  0  0  0  0  0  0  0
    0.7790   -4.2230  -28.0050 C   0  0  0  0  0  3  0  0  0  0  0  0
    1.8740   -4.5170  -28.8000 N   0  0  0  0  0  0  0  0  0  0  0  0
    2.2160   -5.7790  -28.6550 C   0  0  0  0  0  0  0  0  0  0  0  0
    3.2250   -6.3430  -29.3590 N   0  0  0  0  0  0  0  0  0  0  0  0
    1.3290   -6.6140  -27.4230 S   0  0  0  0  0  0  0  0  0  0  0  0
    3.8970   -5.7210  -29.7880 H   0  0  0  0  0  0  0  0  0  0  0  0
   -0.7760   -5.3150  -26.2900 C   0  0  0  0  0  0  0  0  0  0  0  0
   -1.6470   -6.1680  -26.2770 O   0  0  0  0  0  0  0  0  0  0  0  0
   -0.7540   -4.2160  -25.4780 O   0  0  0  0  0  0  0  0  0  0  0  0
   -1.4320   -1.9250  -24.9910 C   0  0  0  0  0  1  0  0  0  0  0  0
   -1.3620   -3.0360  -26.0260 C   0  0  0  0  0  2  0  0  0  0  0  0
    4.0630  -10.9140  -27.5210 C   0  0  0  0  0  2  0  0  0  0  0  0
    2.8190  -11.1810  -26.8080 N   0  0  0  0  0  0  0  0  0  0  0  0
    2.6680  -12.1140  -26.4610 H   0  0  0  0  0  0  0  0  0  0  0  0
    2.1690  -10.1070  -26.2010 C   0  0  0  0  0  0  0  0  0  0  0  0
    2.9460   -9.1540  -25.6580 N   0  0  0  0  0  0  0  0  0  0  0  0
    2.4060   -8.4350  -24.6750 C   0  0  0  0  0  3  0  0  0  0  0  0
    1.2200   -8.6720  -24.1150 N   0  0  0  0  0  0  0  0  0  0  0  0
    0.4180   -9.5690  -24.7230 C   0  0  0  0  0  0  0  0  0  0  0  0
   -0.8090   -9.9610  -24.1820 C   0  0  0  0  0  0  0  0  0  0  0  0
   -1.7450  -10.7450  -24.8740 C   0  0  0  0  0  3  0  0  0  0  0  0
   -1.4200  -11.2350  -26.1260 C   0  0  0  0  0  3  0  0  0  0  0  0
   -0.1300  -11.0300  -26.6060 C   0  0  0  0  0  3  0  0  0  0  0  0
    0.8030  -10.2260  -25.8930 C   0  0  0  0  0  0  0  0  0  0  0  0
   -1.0000   -9.8470  -22.7270 C   0  0  0  0  0  0  0  0  0  0  0  0
   -1.0450   -8.5460  -22.2880 N   0  0  0  0  0  0  0  0  0  0  0  0
   -1.0260  -10.8090  -21.9780 O   0  0  0  0  0  0  0  0  0  0  0  0
   -1.1520   -8.3700  -21.3000 H   0  0  0  0  0  0  0  0  0  0  0  0
   -0.9910   -7.7560  -22.9200 H   0  0  0  0  0  0  0  0  0  0  0  0
  1 11  1  0  0  0  0
  1  6  1  0  0  0  0
  2  1  2  0  0  0  0
  3  2  1  0  0  0  0
  3  4  2  0  0  0  0
  4  5  1  0  0  0  0
  5  6  2  0  0  0  0
  5 19  1  0  0  0  0
  7 14  1  0  0  0  0
  8  7  2  0  0  0  0
  9 10  2  0  0  0  0
  9  8  1  0  0  0  0
 10 12  1  0  0  0  0
 11 10  1  0  0  0  0
 12  7  1  0  0  0  0
 13 11  1  0  0  0  0
 14 15  2  0  0  0  0
 14 16  1  0  0  0  0
 18 16  1  0  0  0  0
 18 17  1  0  0  0  0
 19 20  1  0  0  0  0
 20 21  1  0  0  0  0
 20 22  1  0  0  0  0
 22 31  2  0  0  0  0
 22 23  1  0  0  0  0
 23 24  2  0  0  0  0
 24 25  1  0  0  0  0
 26 27  1  0  0  0  0
 26 25  2  0  0  0  0
 27 32  1  0  0  0  0
 28 27  2  0  0  0  0
 29 28  1  0  0  0  0
 30 29  2  0  0  0  0
 30 31  1  0  0  0  0
 31 26  1  0  0  0  0
 32 33  1  0  0  0  0
 32 34  2  0  0  0  0
 33 35  1  0  0  0  0
 36 33  1  0  0  0  0
M  END
>  <minimizedAffinity>
-6.12246132

$$$$

 OpenBabel10152418413D

 36 39  0  0  0  0  0  0  0  0999 V2000
   -1.9910   -9.0520  -23.2520 C   0  0  0  0  0  0  0  0  0  0  0  0
   -2.4400   -9.1650  -21.9330 C   0  0  0  0  0  3  0  0  0  0  0  0
   -2.1930   -8.1420  -21.0230 C   0  0  0  0  0  3  0  0  0  0  0  0
   -1.5120   -6.9960  -21.4330 C   0  0  0  0  0  3  0  0  0  0  0  0
   -1.1070   -6.8140  -22.7640 C   0  0  0  0  0  0  0  0  0  0  0  0
   -1.3530   -7.8640  -23.6610 C   0  0  0  0  0  3  0  0  0  0  0  0
    1.0140  -11.6850  -25.5640 C   0  0  0  0  0  0  0  0  0  0  0  0
   -0.1010  -12.0340  -26.2910 C   0  0  0  0  0  3  0  0  0  0  0  0
   -1.3070  -11.5600  -25.8010 N   0  0  0  0  0  0  0  0  0  0  0  0
   -1.1020  -10.7930  -24.7510 C   0  0  0  0  0  0  0  0  0  0  0  0
   -2.1100  -10.1580  -24.1090 N   0  0  0  0  0  0  0  0  0  0  0  0
    0.5440  -10.7520  -24.2170 S   0  0  0  0  0  0  0  0  0  0  0  0
   -3.0490  -10.4990  -24.2640 H   0  0  0  0  0  0  0  0  0  0  0  0
    2.4080  -11.9570  -25.7910 C   0  0  0  0  0  0  0  0  0  0  0  0
    3.2770  -12.0380  -24.9400 O   0  0  0  0  0  0  0  0  0  0  0  0
    2.6320  -12.0340  -27.1380 O   0  0  0  0  0  0  0  0  0  0  0  0
    4.0170  -10.5510  -28.4890 C   0  0  0  0  0  1  0  0  0  0  0  0
    3.9760  -11.7490  -27.5540 C   0  0  0  0  0  2  0  0  0  0  0  0
   -0.3460   -5.5700  -23.2090 C   0  0  0  0  0  2  0  0  0  0  0  0
   -0.0980   -5.5360  -24.6460 N   0  0  0  0  0  0  0  0  0  0  0  0
   -0.1050   -4.6380  -25.1010 H   0  0  0  0  0  0  0  0  0  0  0  0
    0.6150   -6.5900  -25.2120 C   0  0  0  0  0  0  0  0  0  0  0  0
    1.2370   -7.4300  -24.3650 N   0  0  0  0  0  0  0  0  0  0  0  0
    2.2900   -8.0890  -24.8450 C   0  0  0  0  0  3  0  0  0  0  0  0
    2.8400   -7.8850  -26.0420 N   0  0  0  0  0  0  0  0  0  0  0  0
    2.1610   -7.1100  -26.9110 C   0  0  0  0  0  0  0  0  0  0  0  0
    2.6770   -6.7570  -28.1600 C   0  0  0  0  0  0  0  0  0  0  0  0
    1.9270   -6.1120  -29.1550 C   0  0  0  0  0  3  0  0  0  0  0  0
    0.6300   -5.7220  -28.8740 C   0  0  0  0  0  3  0  0  0  0  0  0
    0.1550   -5.8790  -27.5750 C   0  0  0  0  0  3  0  0  0  0  0  0
    0.9290   -6.5410  -26.5820 C   0  0  0  0  0  0  0  0  0  0  0  0
    4.1390   -6.7450  -28.3340 C   0  0  0  0  0  0  0  0  0  0  0  0
    4.5280   -6.8530  -29.6470 N   0  0  0  0  0  0  0  0  0  0  0  0
    4.9240   -6.7320  -27.4010 O   0  0  0  0  0  0  0  0  0  0  0  0
    5.5140   -6.8750  -29.8610 H   0  0  0  0  0  0  0  0  0  0  0  0
    3.8640   -6.8940  -30.4100 H   0  0  0  0  0  0  0  0  0  0  0  0
  1  2  1  0  0  0  0
  2  3  2  0  0  0  0
  4  3  1  0  0  0  0
  5  4  2  0  0  0  0
  6  1  2  0  0  0  0
  6  5  1  0  0  0  0
  7 12  1  0  0  0  0
  8  9  1  0  0  0  0
  8  7  2  0  0  0  0
  9 10  2  0  0  0  0
 10 12  1  0  0  0  0
 10 11  1  0  0  0  0
 11  1  1  0  0  0  0
 13 11  1  0  0  0  0
 14  7  1  0  0  0  0
 14 15  2  0  0  0  0
 16 14  1  0  0  0  0
 17 18  1  0  0  0  0
 18 16  1  0  0  0  0
 19  5  1  0  0  0  0
 20 19  1  0  0  0  0
 21 20  1  0  0  0  0
 22 20  1  0  0  0  0
 22 23  1  0  0  0  0
 24 23  2  0  0  0  0
 25 24  1  0  0  0  0
 26 31  1  0  0  0  0
 26 25  2  0  0  0  0
 27 26  1  0  0  0  0
 28 29  1  0  0  0  0
 28 27  2  0  0  0  0
 29 30  2  0  0  0  0
 30 31  1  0  0  0  0
 31 22  2  0  0  0  0
 32 27  1  0  0  0  0
 32 34  2  0  0  0  0
 33 32  1  0  0  0  0
 35 33  1  0  0  0  0
 36 33  1  0  0  0  0
M  END
>  <minimizedAffinity>
-5.53857231

$$$$
