
 OpenBabel10152418413D

 36 39  0  0  0  0  0  0  0  0999 V2000
   -0.8290  -11.4760  -22.7990 C   0  0  0  0  0  0  0  0  0  0  0  0
   -0.7690  -12.0290  -21.5170 C   0  0  0  0  0  3  0  0  0  0  0  0
   -1.4110  -11.4000  -20.4560 C   0  0  0  0  0  3  0  0  0  0  0  0
   -2.1300  -10.2250  -20.6760 C   0  0  0  0  0  3  0  0  0  0  0  0
   -2.2740   -9.6760  -21.9590 C   0  0  0  0  0  0  0  0  0  0  0  0
   -1.6060  -10.3190  -23.0120 C   0  0  0  0  0  3  0  0  0  0  0  0
    2.3290   -9.8160  -25.7290 C   0  0  0  0  0  0  0  0  0  0  0  0
    2.0520  -10.9710  -26.4240 C   0  0  0  0  0  3  0  0  0  0  0  0
    1.2260  -11.8750  -25.7780 N   0  0  0  0  0  0  0  0  0  0  0  0
    0.8160  -11.3780  -24.6310 C   0  0  0  0  0  0  0  0  0  0  0  0
   -0.0460  -12.0360  -23.8210 N   0  0  0  0  0  0  0  0  0  0  0  0
    1.5500   -9.8660  -24.2130 S   0  0  0  0  0  0  0  0  0  0  0  0
   -0.1530  -13.0320  -23.9660 H   0  0  0  0  0  0  0  0  0  0  0  0
    3.1000   -8.6590  -26.0960 C   0  0  0  0  0  0  0  0  0  0  0  0
    2.9920   -7.5390  -25.6260 O   0  0  0  0  0  0  0  0  0  0  0  0
    3.9340   -8.9900  -27.1280 O   0  0  0  0  0  0  0  0  0  0  0  0
    4.1590   -7.6730  -29.1670 C   0  0  0  0  0  1  0  0  0  0  0  0
    4.6250   -7.8880  -27.7360 C   0  0  0  0  0  2  0  0  0  0  0  0
   -3.0440   -8.3830  -22.1990 C   0  0  0  0  0  2  0  0  0  0  0  0
   -2.7540   -7.7770  -23.4930 N   0  0  0  0  0  0  0  0  0  0  0  0
   -3.5330   -7.5320  -24.0810 H   0  0  0  0  0  0  0  0  0  0  0  0
   -1.5400   -7.1090  -23.6460 C   0  0  0  0  0  0  0  0  0  0  0  0
   -1.2170   -6.2080  -22.7010 N   0  0  0  0  0  0  0  0  0  0  0  0
   -0.3810   -5.2370  -23.0650 C   0  0  0  0  0  3  0  0  0  0  0  0
    0.0500   -5.0240  -24.3080 N   0  0  0  0  0  0  0  0  0  0  0  0
   -0.2070   -5.9800  -25.2240 C   0  0  0  0  0  0  0  0  0  0  0  0
    0.1200   -5.8290  -26.5740 C   0  0  0  0  0  0  0  0  0  0  0  0
    0.0360   -6.8690  -27.5120 C   0  0  0  0  0  3  0  0  0  0  0  0
   -0.4740   -8.0930  -27.1180 C   0  0  0  0  0  3  0  0  0  0  0  0
   -0.9950   -8.2130  -25.8330 C   0  0  0  0  0  3  0  0  0  0  0  0
   -0.8950   -7.1490  -24.8940 C   0  0  0  0  0  0  0  0  0  0  0  0
    0.2330   -4.4660  -27.1180 C   0  0  0  0  0  0  0  0  0  0  0  0
   -0.7480   -3.6200  -26.6610 N   0  0  0  0  0  0  0  0  0  0  0  0
    1.0580   -4.1450  -27.9560 O   0  0  0  0  0  0  0  0  0  0  0  0
   -0.7650   -2.6680  -26.9970 H   0  0  0  0  0  0  0  0  0  0  0  0
   -1.4460   -3.9090  -25.9870 H   0  0  0  0  0  0  0  0  0  0  0  0
  1  2  1  0  0  0  0
  2  3  2  0  0  0  0
  4  3  1  0  0  0  0
  5  4  2  0  0  0  0
  6  1  2  0  0  0  0
  6  5  1  0  0  0  0
  7 12  1  0  0  0  0
  8  9  1  0  0  0  0
  8  7  2  0  0  0  0
  9 10  2  0  0  0  0
 10 12  1  0  0  0  0
 10 11  1  0  0  0  0
 11  1  1  0  0  0  0
 13 11  1  0  0  0  0
 14  7  1  0  0  0  0
 14 15  2  0  0  0  0
 16 14  1  0  0  0  0
 17 18  1  0  0  0  0
 18 16  1  0  0  0  0
 19  5  1  0  0  0  0
 20 19  1  0  0  0  0
 21 20  1  0  0  0  0
 22 20  1  0  0  0  0
 22 23  1  0  0  0  0
 24 23  2  0  0  0  0
 25 24  1  0  0  0  0
 26 31  1  0  0  0  0
 26 25  2  0  0  0  0
 27 26  1  0  0  0  0
 28 29  1  0  0  0  0
 28 27  2  0  0  0  0
 29 30  2  0  0  0  0
 30 31  1  0  0  0  0
 31 22  2  0  0  0  0
 32 33  1  0  0  0  0
 32 27  1  0  0  0  0
 33 36  1  0  0  0  0
 34 32  2  0  0  0  0
 35 33  1  0  0  0  0
M  END
>  <minimizedAffinity>
-7.92306042

$$$$
