
 OpenBabel10152418413D

 36 39  0  0  0  0  0  0  0  0999 V2000
   -1.9910   -9.0520  -23.2520 C   0  0  0  0  0  0  0  0  0  0  0  0
   -2.4400   -9.1650  -21.9330 C   0  0  0  0  0  3  0  0  0  0  0  0
   -2.1930   -8.1420  -21.0230 C   0  0  0  0  0  3  0  0  0  0  0  0
   -1.5120   -6.9960  -21.4330 C   0  0  0  0  0  3  0  0  0  0  0  0
   -1.1070   -6.8140  -22.7640 C   0  0  0  0  0  0  0  0  0  0  0  0
   -1.3530   -7.8640  -23.6610 C   0  0  0  0  0  3  0  0  0  0  0  0
    1.0140  -11.6850  -25.5640 C   0  0  0  0  0  0  0  0  0  0  0  0
   -0.1010  -12.0340  -26.2910 C   0  0  0  0  0  3  0  0  0  0  0  0
   -1.3070  -11.5600  -25.8010 N   0  0  0  0  0  0  0  0  0  0  0  0
   -1.1020  -10.7930  -24.7510 C   0  0  0  0  0  0  0  0  0  0  0  0
   -2.1100  -10.1580  -24.1090 N   0  0  0  0  0  0  0  0  0  0  0  0
    0.5440  -10.7520  -24.2170 S   0  0  0  0  0  0  0  0  0  0  0  0
   -3.0490  -10.4990  -24.2640 H   0  0  0  0  0  0  0  0  0  0  0  0
    2.4080  -11.9570  -25.7910 C   0  0  0  0  0  0  0  0  0  0  0  0
    3.2770  -12.0380  -24.9400 O   0  0  0  0  0  0  0  0  0  0  0  0
    2.6320  -12.0340  -27.1380 O   0  0  0  0  0  0  0  0  0  0  0  0
    4.0170  -10.5510  -28.4890 C   0  0  0  0  0  1  0  0  0  0  0  0
    3.9760  -11.7490  -27.5540 C   0  0  0  0  0  2  0  0  0  0  0  0
   -0.3460   -5.5700  -23.2090 C   0  0  0  0  0  2  0  0  0  0  0  0
   -0.0980   -5.5360  -24.6460 N   0  0  0  0  0  0  0  0  0  0  0  0
   -0.1050   -4.6380  -25.1010 H   0  0  0  0  0  0  0  0  0  0  0  0
    0.6150   -6.5900  -25.2120 C   0  0  0  0  0  0  0  0  0  0  0  0
    1.2370   -7.4300  -24.3650 N   0  0  0  0  0  0  0  0  0  0  0  0
    2.2900   -8.0890  -24.8450 C   0  0  0  0  0  3  0  0  0  0  0  0
    2.8400   -7.8850  -26.0420 N   0  0  0  0  0  0  0  0  0  0  0  0
    2.1610   -7.1100  -26.9110 C   0  0  0  0  0  0  0  0  0  0  0  0
    2.6770   -6.7570  -28.1600 C   0  0  0  0  0  0  0  0  0  0  0  0
    1.9270   -6.1120  -29.1550 C   0  0  0  0  0  3  0  0  0  0  0  0
    0.6300   -5.7220  -28.8740 C   0  0  0  0  0  3  0  0  0  0  0  0
    0.1550   -5.8790  -27.5750 C   0  0  0  0  0  3  0  0  0  0  0  0
    0.9290   -6.5410  -26.5820 C   0  0  0  0  0  0  0  0  0  0  0  0
    4.1390   -6.7450  -28.3340 C   0  0  0  0  0  0  0  0  0  0  0  0
    4.5280   -6.8530  -29.6470 N   0  0  0  0  0  0  0  0  0  0  0  0
    4.9240   -6.7320  -27.4010 O   0  0  0  0  0  0  0  0  0  0  0  0
    5.5140   -6.8750  -29.8610 H   0  0  0  0  0  0  0  0  0  0  0  0
    3.8640   -6.8940  -30.4100 H   0  0  0  0  0  0  0  0  0  0  0  0
  1  2  1  0  0  0  0
  2  3  2  0  0  0  0
  4  3  1  0  0  0  0
  5  4  2  0  0  0  0
  6  1  2  0  0  0  0
  6  5  1  0  0  0  0
  7 12  1  0  0  0  0
  8  9  1  0  0  0  0
  8  7  2  0  0  0  0
  9 10  2  0  0  0  0
 10 12  1  0  0  0  0
 10 11  1  0  0  0  0
 11  1  1  0  0  0  0
 13 11  1  0  0  0  0
 14  7  1  0  0  0  0
 14 15  2  0  0  0  0
 16 14  1  0  0  0  0
 17 18  1  0  0  0  0
 18 16  1  0  0  0  0
 19  5  1  0  0  0  0
 20 19  1  0  0  0  0
 21 20  1  0  0  0  0
 22 20  1  0  0  0  0
 22 23  1  0  0  0  0
 24 23  2  0  0  0  0
 25 24  1  0  0  0  0
 26 31  1  0  0  0  0
 26 25  2  0  0  0  0
 27 26  1  0  0  0  0
 28 29  1  0  0  0  0
 28 27  2  0  0  0  0
 29 30  2  0  0  0  0
 30 31  1  0  0  0  0
 31 22  2  0  0  0  0
 32 27  1  0  0  0  0
 32 34  2  0  0  0  0
 33 32  1  0  0  0  0
 35 33  1  0  0  0  0
 36 33  1  0  0  0  0
M  END
>  <minimizedAffinity>
-5.53857231

$$$$
