
 OpenBabel11232419183D

 41 47  0  0  1  0  0  0  0  0999 V2000
   36.4080   44.6090   17.9230 C   0  0  0  0  0  0  0  0  0  0  0  0
   36.7080   45.4090   16.8650 N   0  0  0  0  0  0  0  0  0  0  0  0
   37.8920   46.0570   16.8850 C   0  0  0  0  0  0  0  0  0  0  0  0
   38.1540   46.9150   15.7300 C   0  0  0  0  0  3  0  0  0  0  0  0
   39.2910   47.6160   15.6530 C   0  0  0  0  0  3  0  0  0  0  0  0
   40.2480   47.5340   16.6910 C   0  0  0  0  0  0  0  0  0  0  0  0
   41.4090   48.1330   16.8210 N   0  0  0  0  0  0  0  0  0  0  0  0
   41.9560   47.7340   18.0040 N   0  0  0  0  0  0  0  0  0  0  0  0
   41.1260   46.8910   18.5930 C   0  0  0  0  0  0  0  0  0  0  0  0
   40.0090   46.7170   17.7940 N   0  0  0  0  0  0  0  0  0  0  0  0
   38.8220   45.9470   17.9220 C   0  0  0  0  0  0  0  0  0  0  0  0
   38.5120   45.1040   18.9840 C   0  0  0  0  0  3  0  0  0  0  0  0
   37.2860   44.4080   19.0040 C   0  0  0  0  0  0  0  0  0  0  0  0
   32.4570   42.8140   17.7320 C   0  0  0  0  0  0  0  0  0  0  0  0
   32.7210   43.9660   18.5020 C   0  0  0  0  0  3  0  0  0  0  0  0
   33.9940   44.5480   18.5600 C   0  0  0  0  0  3  0  0  0  0  0  0
   35.0650   44.0140   17.8350 C   0  0  0  0  0  0  0  0  0  0  0  0
   34.8220   42.8740   17.0600 C   0  0  0  0  0  3  0  0  0  0  0  0
   33.5500   42.2900   17.0120 C   0  0  0  0  0  3  0  0  0  0  0  0
   31.0300   42.1130   17.7290 C   0  0  1  0  0  0  0  0  0  0  0  0
   30.8210   40.8680   16.8350 C   0  0  0  0  0  2  0  0  0  0  0  0
   30.1220   40.1120   18.0150 C   0  0  1  0  0  0  0  0  0  0  0  0
   30.6090   41.2650   18.9530 C   0  0  0  0  0  2  0  0  0  0  0  0
   30.0530   43.1900   17.4350 N   0  0  0  0  0  4  0  0  0  0  0  0
   29.0790   42.8720   17.4350 H   0  0  0  0  0  0  0  0  0  0  0  0
   30.2360   43.6180   16.5160 H   0  0  0  0  0  0  0  0  0  0  0  0
   30.1270   43.9540   18.1210 H   0  0  0  0  0  0  0  0  0  0  0  0
   28.6090   39.8790   17.9040 C   0  0  0  0  0  3  0  0  0  0  0  0
   27.6690   39.4920   19.0170 C   0  0  0  0  0  2  0  0  0  0  0  0
   27.5130   40.8190   18.3330 C   0  0  0  0  0  2  0  0  0  0  0  0
   30.7770   38.8550   18.3180 O   0  0  0  0  0  0  0  0  0  0  0  0
   31.7340   39.0150   18.3960 H   0  0  0  0  0  0  0  0  0  0  0  0
   36.9890   43.5040   20.1270 C   0  0  0  0  0  0  0  0  0  0  0  0
   36.2870   42.3050   19.9180 C   0  0  0  0  0  3  0  0  0  0  0  0
   36.0000   41.4490   20.9840 C   0  0  0  0  0  3  0  0  0  0  0  0
   36.4070   41.7800   22.2740 C   0  0  0  0  0  3  0  0  0  0  0  0
   37.0970   42.9680   22.5020 C   0  0  0  0  0  3  0  0  0  0  0  0
   37.3830   43.8240   21.4370 C   0  0  0  0  0  3  0  0  0  0  0  0
   41.3860   46.2690   19.9040 C   0  0  0  0  0  3  0  0  0  0  0  0
   40.2540   46.2030   20.6570 F   0  0  0  0  0  0  0  0  0  0  0  0
   41.8350   44.9910   19.7680 F   0  0  0  0  0  0  0  0  0  0  0  0
  1 13  1  0  0  0  0
  2  3  1  0  0  0  0
  2  1  2  0  0  0  0
  3 11  2  0  0  0  0
  4  3  1  0  0  0  0
  5  4  2  0  0  0  0
  5  6  1  0  0  0  0
  6  7  2  0  0  0  0
  6 10  1  0  0  0  0
  7  8  1  0  0  0  0
  8  9  2  0  0  0  0
  9 39  1  0  0  0  0
 10 11  1  0  0  0  0
 10  9  1  0  0  0  0
 11 12  1  0  0  0  0
 12 13  2  0  0  0  0
 13 33  1  0  0  0  0
 14 15  1  0  0  0  0
 15 16  2  0  0  0  0
 17  1  1  0  0  0  0
 17 16  1  0  0  0  0
 18 17  2  0  0  0  0
 19 18  1  0  0  0  0
 19 14  2  0  0  0  0
 20 24  1  6  0  0  0
 20 14  1  0  0  0  0
 20 23  1  0  0  0  0
 21 20  1  0  0  0  0
 21 22  1  0  0  0  0
 22 31  1  1  0  0  0
 22 23  1  0  0  0  0
 24 27  1  0  0  0  0
 25 24  1  0  0  0  0
 26 24  1  0  0  0  0
 28 22  1  0  0  0  0
 28 30  1  0  0  0  0
 28 29  1  0  0  0  0
 30 29  1  0  0  0  0
 31 32  1  0  0  0  0
 33 38  1  0  0  0  0
 34 33  2  0  0  0  0
 34 35  1  0  0  0  0
 35 36  2  0  0  0  0
 36 37  1  0  0  0  0
 38 37  2  0  0  0  0
 39 40  1  0  0  0  0
 41 39  1  0  0  0  0
M  END
>  <minimizedAffinity>
-9.70203686

$$$$
