
 OpenBabel11232419183D

 41 47  0  0  1  0  0  0  0  0999 V2000
   36.1520   44.1260   19.0970 C   0  0  0  0  0  0  0  0  0  0  0  0
   36.4050   43.8490   20.4040 N   0  0  0  0  0  0  0  0  0  0  0  0
   37.6290   44.1580   20.8840 C   0  0  0  0  0  0  0  0  0  0  0  0
   37.8510   43.8240   22.2900 C   0  0  0  0  0  3  0  0  0  0  0  0
   39.0330   44.0720   22.8670 C   0  0  0  0  0  3  0  0  0  0  0  0
   40.0780   44.6590   22.1170 C   0  0  0  0  0  0  0  0  0  0  0  0
   41.3010   44.9760   22.4740 N   0  0  0  0  0  0  0  0  0  0  0  0
   41.9310   45.5080   21.3890 N   0  0  0  0  0  0  0  0  0  0  0  0
   41.0880   45.5130   20.3700 C   0  0  0  0  0  0  0  0  0  0  0  0
   39.8760   44.9840   20.7770 N   0  0  0  0  0  0  0  0  0  0  0  0
   38.6390   44.7470   20.1200 C   0  0  0  0  0  0  0  0  0  0  0  0
   38.3550   45.0490   18.7920 C   0  0  0  0  0  3  0  0  0  0  0  0
   37.0900   44.7430   18.2490 C   0  0  0  0  0  0  0  0  0  0  0  0
   32.2450   42.8060   17.7320 C   0  0  0  0  0  0  0  0  0  0  0  0
   33.3020   41.9020   17.9700 C   0  0  0  0  0  3  0  0  0  0  0  0
   34.5600   42.3270   18.4150 C   0  0  0  0  0  3  0  0  0  0  0  0
   34.8190   43.6800   18.6600 C   0  0  0  0  0  0  0  0  0  0  0  0
   33.7830   44.5930   18.4350 C   0  0  0  0  0  3  0  0  0  0  0  0
   32.5290   44.1650   17.9810 C   0  0  0  0  0  3  0  0  0  0  0  0
   30.8430   42.3290   17.1540 C   0  0  1  0  0  0  0  0  0  0  0  0
   29.5610   43.0410   17.6460 C   0  0  0  0  0  2  0  0  0  0  0  0
   29.0390   43.1620   16.1750 C   0  0  1  0  0  0  0  0  0  0  0  0
   30.4600   42.7100   15.7040 C   0  0  0  0  0  2  0  0  0  0  0  0
   30.7950   40.8630   17.3760 N   0  0  0  0  0  4  0  0  0  0  0  0
   29.9440   40.4200   17.0150 H   0  0  0  0  0  0  0  0  0  0  0  0
   30.8580   40.6360   18.3780 H   0  0  0  0  0  0  0  0  0  0  0  0
   31.5970   40.3950   16.9300 H   0  0  0  0  0  0  0  0  0  0  0  0
   27.8460   42.2810   15.7760 C   0  0  0  0  0  3  0  0  0  0  0  0
   26.6660   41.9100   16.6380 C   0  0  0  0  0  2  0  0  0  0  0  0
   26.4610   42.7450   15.4080 C   0  0  0  0  0  2  0  0  0  0  0  0
   28.7590   44.5370   15.8090 O   0  0  0  0  0  0  0  0  0  0  0  0
   29.5240   45.0840   16.0570 H   0  0  0  0  0  0  0  0  0  0  0  0
   36.8040   45.0910   16.8480 C   0  0  0  0  0  0  0  0  0  0  0  0
   36.8190   44.1080   15.8450 C   0  0  0  0  0  3  0  0  0  0  0  0
   36.5520   44.4400   14.5140 C   0  0  0  0  0  3  0  0  0  0  0  0
   36.2700   45.7580   14.1660 C   0  0  0  0  0  3  0  0  0  0  0  0
   36.2580   46.7480   15.1460 C   0  0  0  0  0  3  0  0  0  0  0  0
   36.5250   46.4170   16.4760 C   0  0  0  0  0  3  0  0  0  0  0  0
   41.4360   46.0040   19.0240 C   0  0  0  0  0  3  0  0  0  0  0  0
   41.2750   45.0340   18.0830 F   0  0  0  0  0  0  0  0  0  0  0  0
   40.6370   47.0410   18.6510 F   0  0  0  0  0  0  0  0  0  0  0  0
  1  2  1  0  0  0  0
  2  3  2  0  0  0  0
  3  4  1  0  0  0  0
  4  5  2  0  0  0  0
  6  7  2  0  0  0  0
  6  5  1  0  0  0  0
  8  7  1  0  0  0  0
  9 10  1  0  0  0  0
  9  8  2  0  0  0  0
 10  6  1  0  0  0  0
 11 10  1  0  0  0  0
 11  3  1  0  0  0  0
 12 11  2  0  0  0  0
 13 12  1  0  0  0  0
 13  1  2  0  0  0  0
 14 15  2  0  0  0  0
 14 19  1  0  0  0  0
 15 16  1  0  0  0  0
 16 17  2  0  0  0  0
 17  1  1  0  0  0  0
 18 17  1  0  0  0  0
 19 18  2  0  0  0  0
 20 24  1  1  0  0  0
 20 21  1  0  0  0  0
 20 14  1  0  0  0  0
 22 31  1  6  0  0  0
 22 21  1  0  0  0  0
 23 22  1  0  0  0  0
 23 20  1  0  0  0  0
 24 26  1  0  0  0  0
 25 24  1  0  0  0  0
 27 24  1  0  0  0  0
 28 22  1  0  0  0  0
 28 29  1  0  0  0  0
 30 28  1  0  0  0  0
 30 29  1  0  0  0  0
 31 32  1  0  0  0  0
 33 13  1  0  0  0  0
 34 33  2  0  0  0  0
 35 34  1  0  0  0  0
 36 35  2  0  0  0  0
 36 37  1  0  0  0  0
 37 38  2  0  0  0  0
 38 33  1  0  0  0  0
 39  9  1  0  0  0  0
 40 39  1  0  0  0  0
 41 39  1  0  0  0  0
M  END
>  <minimizedAffinity>
-12.0473099

$$$$
