
 OpenBabel11232419183D

 41 47  0  0  1  0  0  0  0  0999 V2000
   37.4330   45.1080   18.6560 C   0  0  0  0  0  0  0  0  0  0  0  0
   38.5040   45.8800   18.3310 N   0  0  0  0  0  0  0  0  0  0  0  0
   38.5550   46.3880   17.0820 C   0  0  0  0  0  0  0  0  0  0  0  0
   39.7370   47.1970   16.7840 C   0  0  0  0  0  3  0  0  0  0  0  0
   39.8980   47.7390   15.5710 C   0  0  0  0  0  3  0  0  0  0  0  0
   38.9260   47.5300   14.5660 C   0  0  0  0  0  0  0  0  0  0  0  0
   38.8880   47.9540   13.3240 N   0  0  0  0  0  0  0  0  0  0  0  0
   37.7460   47.4770   12.7530 N   0  0  0  0  0  0  0  0  0  0  0  0
   37.0880   46.7630   13.6500 C   0  0  0  0  0  0  0  0  0  0  0  0
   37.7950   46.7630   14.8400 N   0  0  0  0  0  0  0  0  0  0  0  0
   37.5730   46.1720   16.1130 C   0  0  0  0  0  0  0  0  0  0  0  0
   36.4700   45.4030   16.4690 C   0  0  0  0  0  3  0  0  0  0  0  0
   36.3760   44.8510   17.7630 C   0  0  0  0  0  0  0  0  0  0  0  0
   37.6200   43.4890   22.6820 C   0  0  0  0  0  0  0  0  0  0  0  0
   36.6980   43.0160   21.7250 C   0  0  0  0  0  3  0  0  0  0  0  0
   36.6410   43.5340   20.4250 C   0  0  0  0  0  3  0  0  0  0  0  0
   37.5170   44.5440   20.0130 C   0  0  0  0  0  0  0  0  0  0  0  0
   38.4430   45.0240   20.9450 C   0  0  0  0  0  3  0  0  0  0  0  0
   38.4910   44.5090   22.2460 C   0  0  0  0  0  3  0  0  0  0  0  0
   37.6300   42.9520   24.1780 C   0  0  1  0  0  0  0  0  0  0  0  0
   38.9940   42.7400   24.8770 C   0  0  0  0  0  2  0  0  0  0  0  0
   38.4740   43.4680   26.1610 C   0  0  1  0  0  0  0  0  0  0  0  0
   37.2300   43.9120   25.3230 C   0  0  0  0  0  2  0  0  0  0  0  0
   36.8030   41.7200   24.1690 N   0  0  0  0  0  4  0  0  0  0  0  0
   36.7020   41.2860   25.0920 H   0  0  0  0  0  0  0  0  0  0  0  0
   37.2000   41.0100   23.5370 H   0  0  0  0  0  0  0  0  0  0  0  0
   35.8560   41.9140   23.8160 H   0  0  0  0  0  0  0  0  0  0  0  0
   38.2200   42.6060   27.4060 C   0  0  0  0  0  3  0  0  0  0  0  0
   38.8130   41.2540   27.7070 C   0  0  0  0  0  2  0  0  0  0  0  0
   39.1390   42.4260   28.5860 C   0  0  0  0  0  2  0  0  0  0  0  0
   39.3120   44.5940   26.5240 O   0  0  0  0  0  0  0  0  0  0  0  0
   39.4580   45.1390   25.7320 H   0  0  0  0  0  0  0  0  0  0  0  0
   35.1900   44.0590   18.1250 C   0  0  0  0  0  0  0  0  0  0  0  0
   35.0760   42.7150   17.7340 C   0  0  0  0  0  3  0  0  0  0  0  0
   33.9470   41.9640   18.0730 C   0  0  0  0  0  3  0  0  0  0  0  0
   32.9150   42.5470   18.8040 C   0  0  0  0  0  3  0  0  0  0  0  0
   33.0070   43.8810   19.1940 C   0  0  0  0  0  3  0  0  0  0  0  0
   34.1340   44.6310   18.8550 C   0  0  0  0  0  3  0  0  0  0  0  0
   35.8110   46.0800   13.3750 C   0  0  0  0  0  3  0  0  0  0  0  0
   34.7610   46.7460   13.9280 F   0  0  0  0  0  0  0  0  0  0  0  0
   35.5630   46.0070   12.0390 F   0  0  0  0  0  0  0  0  0  0  0  0
  1 17  1  0  0  0  0
  2  1  1  0  0  0  0
  3  2  2  0  0  0  0
  4  3  1  0  0  0  0
  5  4  2  0  0  0  0
  6 10  1  0  0  0  0
  6  5  1  0  0  0  0
  7  6  2  0  0  0  0
  8  7  1  0  0  0  0
  8  9  2  0  0  0  0
  9 10  1  0  0  0  0
 10 11  1  0  0  0  0
 11 12  2  0  0  0  0
 11  3  1  0  0  0  0
 12 13  1  0  0  0  0
 13 33  1  0  0  0  0
 13  1  2  0  0  0  0
 14 20  1  0  0  0  0
 15 14  2  0  0  0  0
 16 15  1  0  0  0  0
 17 16  2  0  0  0  0
 17 18  1  0  0  0  0
 18 19  2  0  0  0  0
 19 14  1  0  0  0  0
 20 24  1  1  0  0  0
 20 21  1  0  0  0  0
 20 23  1  0  0  0  0
 21 22  1  0  0  0  0
 22 31  1  1  0  0  0
 22 28  1  0  0  0  0
 23 22  1  0  0  0  0
 24 25  1  0  0  0  0
 26 24  1  0  0  0  0
 27 24  1  0  0  0  0
 28 29  1  0  0  0  0
 28 30  1  0  0  0  0
 29 30  1  0  0  0  0
 32 31  1  0  0  0  0
 33 38  1  0  0  0  0
 34 35  1  0  0  0  0
 34 33  2  0  0  0  0
 35 36  2  0  0  0  0
 36 37  1  0  0  0  0
 38 37  2  0  0  0  0
 39  9  1  0  0  0  0
 39 40  1  0  0  0  0
 41 39  1  0  0  0  0
M  END
>  <minimizedAffinity>
-10.3183908

$$$$
