
 OpenBabel11232419183D

 41 47  0  0  1  0  0  0  0  0999 V2000
   36.1520   44.1260   19.0970 C   0  0  0  0  0  0  0  0  0  0  0  0
   36.4050   43.8490   20.4040 N   0  0  0  0  0  0  0  0  0  0  0  0
   37.6290   44.1580   20.8840 C   0  0  0  0  0  0  0  0  0  0  0  0
   37.8510   43.8240   22.2900 C   0  0  0  0  0  3  0  0  0  0  0  0
   39.0330   44.0720   22.8670 C   0  0  0  0  0  3  0  0  0  0  0  0
   40.0780   44.6590   22.1170 C   0  0  0  0  0  0  0  0  0  0  0  0
   41.3010   44.9760   22.4740 N   0  0  0  0  0  0  0  0  0  0  0  0
   41.9310   45.5080   21.3890 N   0  0  0  0  0  0  0  0  0  0  0  0
   41.0880   45.5130   20.3700 C   0  0  0  0  0  0  0  0  0  0  0  0
   39.8760   44.9840   20.7770 N   0  0  0  0  0  0  0  0  0  0  0  0
   38.6390   44.7470   20.1200 C   0  0  0  0  0  0  0  0  0  0  0  0
   38.3550   45.0490   18.7920 C   0  0  0  0  0  3  0  0  0  0  0  0
   37.0900   44.7430   18.2490 C   0  0  0  0  0  0  0  0  0  0  0  0
   32.2450   42.8060   17.7320 C   0  0  0  0  0  0  0  0  0  0  0  0
   33.3020   41.9020   17.9700 C   0  0  0  0  0  3  0  0  0  0  0  0
   34.5600   42.3270   18.4150 C   0  0  0  0  0  3  0  0  0  0  0  0
   34.8190   43.6800   18.6600 C   0  0  0  0  0  0  0  0  0  0  0  0
   33.7830   44.5930   18.4350 C   0  0  0  0  0  3  0  0  0  0  0  0
   32.5290   44.1650   17.9810 C   0  0  0  0  0  3  0  0  0  0  0  0
   30.8430   42.3290   17.1540 C   0  0  1  0  0  0  0  0  0  0  0  0
   29.5610   43.0410   17.6460 C   0  0  0  0  0  2  0  0  0  0  0  0
   29.0390   43.1620   16.1750 C   0  0  1  0  0  0  0  0  0  0  0  0
   30.4600   42.7100   15.7040 C   0  0  0  0  0  2  0  0  0  0  0  0
   30.7950   40.8630   17.3760 N   0  0  0  0  0  4  0  0  0  0  0  0
   29.9440   40.4200   17.0150 H   0  0  0  0  0  0  0  0  0  0  0  0
   30.8580   40.6360   18.3780 H   0  0  0  0  0  0  0  0  0  0  0  0
   31.5970   40.3950   16.9300 H   0  0  0  0  0  0  0  0  0  0  0  0
   27.8460   42.2810   15.7760 C   0  0  0  0  0  3  0  0  0  0  0  0
   26.6660   41.9100   16.6380 C   0  0  0  0  0  2  0  0  0  0  0  0
   26.4610   42.7450   15.4080 C   0  0  0  0  0  2  0  0  0  0  0  0
   28.7590   44.5370   15.8090 O   0  0  0  0  0  0  0  0  0  0  0  0
   29.5240   45.0840   16.0570 H   0  0  0  0  0  0  0  0  0  0  0  0
   36.8040   45.0910   16.8480 C   0  0  0  0  0  0  0  0  0  0  0  0
   36.8190   44.1080   15.8450 C   0  0  0  0  0  3  0  0  0  0  0  0
   36.5520   44.4400   14.5140 C   0  0  0  0  0  3  0  0  0  0  0  0
   36.2700   45.7580   14.1660 C   0  0  0  0  0  3  0  0  0  0  0  0
   36.2580   46.7480   15.1460 C   0  0  0  0  0  3  0  0  0  0  0  0
   36.5250   46.4170   16.4760 C   0  0  0  0  0  3  0  0  0  0  0  0
   41.4360   46.0040   19.0240 C   0  0  0  0  0  3  0  0  0  0  0  0
   41.2750   45.0340   18.0830 F   0  0  0  0  0  0  0  0  0  0  0  0
   40.6370   47.0410   18.6510 F   0  0  0  0  0  0  0  0  0  0  0  0
  1  2  1  0  0  0  0
  2  3  2  0  0  0  0
  3  4  1  0  0  0  0
  4  5  2  0  0  0  0
  6  7  2  0  0  0  0
  6  5  1  0  0  0  0
  8  7  1  0  0  0  0
  9 10  1  0  0  0  0
  9  8  2  0  0  0  0
 10  6  1  0  0  0  0
 11 10  1  0  0  0  0
 11  3  1  0  0  0  0
 12 11  2  0  0  0  0
 13 12  1  0  0  0  0
 13  1  2  0  0  0  0
 14 15  2  0  0  0  0
 14 19  1  0  0  0  0
 15 16  1  0  0  0  0
 16 17  2  0  0  0  0
 17  1  1  0  0  0  0
 18 17  1  0  0  0  0
 19 18  2  0  0  0  0
 20 24  1  1  0  0  0
 20 21  1  0  0  0  0
 20 14  1  0  0  0  0
 22 31  1  6  0  0  0
 22 21  1  0  0  0  0
 23 22  1  0  0  0  0
 23 20  1  0  0  0  0
 24 26  1  0  0  0  0
 25 24  1  0  0  0  0
 27 24  1  0  0  0  0
 28 22  1  0  0  0  0
 28 29  1  0  0  0  0
 30 28  1  0  0  0  0
 30 29  1  0  0  0  0
 31 32  1  0  0  0  0
 33 13  1  0  0  0  0
 34 33  2  0  0  0  0
 35 34  1  0  0  0  0
 36 35  2  0  0  0  0
 36 37  1  0  0  0  0
 37 38  2  0  0  0  0
 38 33  1  0  0  0  0
 39  9  1  0  0  0  0
 40 39  1  0  0  0  0
 41 39  1  0  0  0  0
M  END
>  <minimizedAffinity>
-12.0473099

$$$$

 OpenBabel11232419183D

 41 47  0  0  1  0  0  0  0  0999 V2000
   36.0410   45.0080   17.0000 C   0  0  0  0  0  0  0  0  0  0  0  0
   36.1830   45.7440   15.8660 N   0  0  0  0  0  0  0  0  0  0  0  0
   37.3190   46.4580   15.7200 C   0  0  0  0  0  0  0  0  0  0  0  0
   37.4110   47.2420   14.4890 C   0  0  0  0  0  3  0  0  0  0  0  0
   38.4880   47.9990   14.2470 C   0  0  0  0  0  3  0  0  0  0  0  0
   39.5460   48.0470   15.1840 C   0  0  0  0  0  0  0  0  0  0  0  0
   40.6730   48.7190   15.1530 N   0  0  0  0  0  0  0  0  0  0  0  0
   41.3590   48.4400   16.2980 N   0  0  0  0  0  0  0  0  0  0  0  0
   40.6460   47.5970   17.0250 C   0  0  0  0  0  0  0  0  0  0  0  0
   39.4690   47.3010   16.3590 N   0  0  0  0  0  0  0  0  0  0  0  0
   38.3520   46.4770   16.6600 C   0  0  0  0  0  0  0  0  0  0  0  0
   38.2040   45.6980   17.8030 C   0  0  0  0  0  3  0  0  0  0  0  0
   37.0320   44.9370   17.9960 C   0  0  0  0  0  0  0  0  0  0  0  0
   32.1760   43.0340   17.1950 C   0  0  0  0  0  0  0  0  0  0  0  0
   33.3200   42.3950   16.6690 C   0  0  0  0  0  3  0  0  0  0  0  0
   34.5670   43.0290   16.6110 C   0  0  0  0  0  3  0  0  0  0  0  0
   34.7360   44.3320   17.0920 C   0  0  0  0  0  0  0  0  0  0  0  0
   33.6160   44.9820   17.6230 C   0  0  0  0  0  3  0  0  0  0  0  0
   32.3690   44.3470   17.6700 C   0  0  0  0  0  3  0  0  0  0  0  0
   30.7470   42.3380   17.1890 C   0  0  1  0  0  0  0  0  0  0  0  0
   29.5250   43.1590   17.6640 C   0  0  0  0  0  2  0  0  0  0  0  0
   28.6960   42.6820   16.4250 C   0  0  1  0  0  0  0  0  0  0  0  0
   30.0290   42.1120   15.8370 C   0  0  0  0  0  2  0  0  0  0  0  0
   30.9100   41.0760   17.9510 N   0  0  0  0  0  4  0  0  0  0  0  0
   30.0570   40.5090   17.9960 H   0  0  0  0  0  0  0  0  0  0  0  0
   31.2070   41.2620   18.9190 H   0  0  0  0  0  0  0  0  0  0  0  0
   31.6480   40.4880   17.5380 H   0  0  0  0  0  0  0  0  0  0  0  0
   27.5520   41.6900   16.6810 C   0  0  0  0  0  3  0  0  0  0  0  0
   26.0990   42.0230   16.9030 C   0  0  0  0  0  2  0  0  0  0  0  0
   26.5090   41.2350   15.6930 C   0  0  0  0  0  2  0  0  0  0  0  0
   28.1940   43.7970   15.6450 O   0  0  0  0  0  0  0  0  0  0  0  0
   28.9280   44.4140   15.4800 H   0  0  0  0  0  0  0  0  0  0  0  0
   36.9060   44.1020   19.2020 C   0  0  0  0  0  0  0  0  0  0  0  0
   37.7740   44.2780   20.2920 C   0  0  0  0  0  3  0  0  0  0  0  0
   37.6570   43.4820   21.4350 C   0  0  0  0  0  3  0  0  0  0  0  0
   36.6750   42.4980   21.5020 C   0  0  0  0  0  3  0  0  0  0  0  0
   35.8100   42.3030   20.4280 C   0  0  0  0  0  3  0  0  0  0  0  0
   35.9270   43.0980   19.2860 C   0  0  0  0  0  3  0  0  0  0  0  0
   41.0740   47.0880   18.3410 C   0  0  0  0  0  3  0  0  0  0  0  0
   41.3300   45.7520   18.2990 F   0  0  0  0  0  0  0  0  0  0  0  0
   42.2220   47.6890   18.7580 F   0  0  0  0  0  0  0  0  0  0  0  0
  1 17  1  0  0  0  0
  1 13  1  0  0  0  0
  2  1  2  0  0  0  0
  3  2  1  0  0  0  0
  3 11  2  0  0  0  0
  4  3  1  0  0  0  0
  5  4  2  0  0  0  0
  5  6  1  0  0  0  0
  6 10  1  0  0  0  0
  7  6  2  0  0  0  0
  7  8  1  0  0  0  0
  8  9  2  0  0  0  0
  9 39  1  0  0  0  0
 10 11  1  0  0  0  0
 10  9  1  0  0  0  0
 11 12  1  0  0  0  0
 12 13  2  0  0  0  0
 13 33  1  0  0  0  0
 14 19  1  0  0  0  0
 15 14  2  0  0  0  0
 16 15  1  0  0  0  0
 16 17  2  0  0  0  0
 17 18  1  0  0  0  0
 18 19  2  0  0  0  0
 20 14  1  0  0  0  0
 20 21  1  0  0  0  0
 20 24  1  1  0  0  0
 22 31  1  6  0  0  0
 22 28  1  0  0  0  0
 22 21  1  0  0  0  0
 23 22  1  0  0  0  0
 23 20  1  0  0  0  0
 24 25  1  0  0  0  0
 24 26  1  0  0  0  0
 27 24  1  0  0  0  0
 28 29  1  0  0  0  0
 30 28  1  0  0  0  0
 30 29  1  0  0  0  0
 32 31  1  0  0  0  0
 33 38  2  0  0  0  0
 33 34  1  0  0  0  0
 34 35  2  0  0  0  0
 35 36  1  0  0  0  0
 37 36  2  0  0  0  0
 38 37  1  0  0  0  0
 39 41  1  0  0  0  0
 40 39  1  0  0  0  0
M  END
>  <minimizedAffinity>
-11.4977942

$$$$

 OpenBabel11232419183D

 41 47  0  0  1  0  0  0  0  0999 V2000
   32.0970   41.6650   18.0220 C   0  0  0  0  0  0  0  0  0  0  0  0
   32.3250   40.5590   18.7810 N   0  0  0  0  0  0  0  0  0  0  0  0
   31.2730   39.7610   19.0590 C   0  0  0  0  0  0  0  0  0  0  0  0
   31.5740   38.5970   19.8910 C   0  0  0  0  0  3  0  0  0  0  0  0
   30.6030   37.7450   20.2410 C   0  0  0  0  0  3  0  0  0  0  0  0
   29.2750   37.9670   19.8090 C   0  0  0  0  0  0  0  0  0  0  0  0
   28.1840   37.2750   20.0380 N   0  0  0  0  0  0  0  0  0  0  0  0
   27.1500   37.9020   19.4100 N   0  0  0  0  0  0  0  0  0  0  0  0
   27.6140   38.9780   18.7980 C   0  0  0  0  0  0  0  0  0  0  0  0
   28.9780   39.0720   19.0130 N   0  0  0  0  0  0  0  0  0  0  0  0
   29.9730   40.0020   18.6090 C   0  0  0  0  0  0  0  0  0  0  0  0
   29.7600   41.1210   17.8110 C   0  0  0  0  0  3  0  0  0  0  0  0
   30.8310   41.9840   17.4960 C   0  0  0  0  0  0  0  0  0  0  0  0
   35.5860   44.1900   17.4610 C   0  0  0  0  0  0  0  0  0  0  0  0
   34.6470   44.4250   18.4880 C   0  0  0  0  0  3  0  0  0  0  0  0
   33.5240   43.6080   18.6730 C   0  0  0  0  0  3  0  0  0  0  0  0
   33.2940   42.5030   17.8460 C   0  0  0  0  0  0  0  0  0  0  0  0
   34.2160   42.2490   16.8250 C   0  0  0  0  0  3  0  0  0  0  0  0
   35.3320   43.0740   16.6390 C   0  0  0  0  0  3  0  0  0  0  0  0
   36.8160   45.1650   17.2090 C   0  0  1  0  0  0  0  0  0  0  0  0
   37.5810   45.0540   15.8690 C   0  0  0  0  0  2  0  0  0  0  0  0
   37.5530   46.6100   15.7000 C   0  0  1  0  0  0  0  0  0  0  0  0
   36.5410   46.6540   16.8920 C   0  0  0  0  0  2  0  0  0  0  0  0
   37.7080   45.0000   18.3830 N   0  0  0  0  0  4  0  0  0  0  0  0
   38.5360   45.6040   18.3580 H   0  0  0  0  0  0  0  0  0  0  0  0
   38.0390   44.0280   18.4650 H   0  0  0  0  0  0  0  0  0  0  0  0
   37.2060   45.2010   19.2580 H   0  0  0  0  0  0  0  0  0  0  0  0
   38.8810   47.3610   15.8700 C   0  0  0  0  0  3  0  0  0  0  0  0
   40.2380   46.9230   15.3810 C   0  0  0  0  0  2  0  0  0  0  0  0
   39.6080   48.1660   14.8230 C   0  0  0  0  0  2  0  0  0  0  0  0
   36.9360   47.0110   14.4510 O   0  0  0  0  0  0  0  0  0  0  0  0
   36.0910   46.5370   14.3580 H   0  0  0  0  0  0  0  0  0  0  0  0
   30.5880   43.1500   16.6320 C   0  0  0  0  0  0  0  0  0  0  0  0
   29.3600   43.8290   16.6710 C   0  0  0  0  0  3  0  0  0  0  0  0
   29.1270   44.9340   15.8470 C   0  0  0  0  0  3  0  0  0  0  0  0
   30.1160   45.3720   14.9710 C   0  0  0  0  0  3  0  0  0  0  0  0
   31.3380   44.7050   14.9130 C   0  0  0  0  0  3  0  0  0  0  0  0
   31.5710   43.6020   15.7350 C   0  0  0  0  0  3  0  0  0  0  0  0
   26.7700   39.9090   18.0290 C   0  0  0  0  0  3  0  0  0  0  0  0
   26.8070   41.1650   18.5540 F   0  0  0  0  0  0  0  0  0  0  0  0
   27.1930   40.0170   16.7400 F   0  0  0  0  0  0  0  0  0  0  0  0
  1  2  1  0  0  0  0
  2  3  2  0  0  0  0
  3  4  1  0  0  0  0
  4  5  2  0  0  0  0
  6  7  2  0  0  0  0
  6  5  1  0  0  0  0
  8  7  1  0  0  0  0
  9 10  1  0  0  0  0
  9  8  2  0  0  0  0
 10  6  1  0  0  0  0
 11 10  1  0  0  0  0
 11  3  1  0  0  0  0
 12 11  2  0  0  0  0
 13 12  1  0  0  0  0
 13  1  2  0  0  0  0
 14 15  1  0  0  0  0
 15 16  2  0  0  0  0
 17  1  1  0  0  0  0
 17 16  1  0  0  0  0
 18 17  2  0  0  0  0
 19 18  1  0  0  0  0
 19 14  2  0  0  0  0
 20 14  1  0  0  0  0
 20 24  1  1  0  0  0
 21 20  1  0  0  0  0
 22 31  1  6  0  0  0
 22 21  1  0  0  0  0
 22 28  1  0  0  0  0
 22 23  1  0  0  0  0
 23 20  1  0  0  0  0
 24 26  1  0  0  0  0
 24 27  1  0  0  0  0
 25 24  1  0  0  0  0
 29 28  1  0  0  0  0
 30 29  1  0  0  0  0
 30 28  1  0  0  0  0
 32 31  1  0  0  0  0
 33 34  1  0  0  0  0
 33 13  1  0  0  0  0
 35 34  2  0  0  0  0
 36 35  1  0  0  0  0
 37 36  2  0  0  0  0
 37 38  1  0  0  0  0
 38 33  2  0  0  0  0
 39 40  1  0  0  0  0
 39  9  1  0  0  0  0
 41 39  1  0  0  0  0
M  END
>  <minimizedAffinity>
-11.0238237

$$$$

 OpenBabel11232419183D

 41 47  0  0  1  0  0  0  0  0999 V2000
   36.7700   44.1710   19.8200 C   0  0  0  0  0  0  0  0  0  0  0  0
   36.7820   43.8530   21.1420 N   0  0  0  0  0  0  0  0  0  0  0  0
   37.9240   44.0690   21.8280 C   0  0  0  0  0  0  0  0  0  0  0  0
   37.8840   43.6940   23.2410 C   0  0  0  0  0  3  0  0  0  0  0  0
   38.9650   43.8520   24.0140 C   0  0  0  0  0  3  0  0  0  0  0  0
   40.1570   44.3810   23.4680 C   0  0  0  0  0  0  0  0  0  0  0  0
   41.3190   44.6090   24.0340 N   0  0  0  0  0  0  0  0  0  0  0  0
   42.1550   45.1180   23.0850 N   0  0  0  0  0  0  0  0  0  0  0  0
   41.4990   45.2000   21.9400 C   0  0  0  0  0  0  0  0  0  0  0  0
   40.2040   44.7450   22.1230 N   0  0  0  0  0  0  0  0  0  0  0  0
   39.0840   44.6040   21.2620 C   0  0  0  0  0  0  0  0  0  0  0  0
   39.0470   44.9500   19.9150 C   0  0  0  0  0  3  0  0  0  0  0  0
   37.8750   44.7400   19.1590 C   0  0  0  0  0  0  0  0  0  0  0  0
   32.9980   43.1530   17.9210 C   0  0  0  0  0  0  0  0  0  0  0  0
   33.3860   44.4900   18.1510 C   0  0  0  0  0  3  0  0  0  0  0  0
   34.6040   44.8190   18.7580 C   0  0  0  0  0  3  0  0  0  0  0  0
   35.5050   43.8230   19.1530 C   0  0  0  0  0  0  0  0  0  0  0  0
   35.1420   42.4910   18.9280 C   0  0  0  0  0  3  0  0  0  0  0  0
   33.9190   42.1660   18.3290 C   0  0  0  0  0  3  0  0  0  0  0  0
   31.5820   42.7830   17.3010 C   0  0  1  0  0  0  0  0  0  0  0  0
   30.3410   43.5790   17.7690 C   0  0  0  0  0  2  0  0  0  0  0  0
   29.8680   43.7530   16.2870 C   0  0  1  0  0  0  0  0  0  0  0  0
   31.2660   43.2070   15.8470 C   0  0  0  0  0  2  0  0  0  0  0  0
   31.4240   41.3220   17.5020 N   0  0  0  0  0  4  0  0  0  0  0  0
   30.5540   40.9450   17.1140 H   0  0  0  0  0  0  0  0  0  0  0  0
   31.4450   41.0790   18.5020 H   0  0  0  0  0  0  0  0  0  0  0  0
   32.2020   40.8030   17.0710 H   0  0  0  0  0  0  0  0  0  0  0  0
   28.6270   42.9650   15.8460 C   0  0  0  0  0  3  0  0  0  0  0  0
   28.2130   41.5920   16.3120 C   0  0  0  0  0  2  0  0  0  0  0  0
   27.3480   42.7790   16.6210 C   0  0  0  0  0  2  0  0  0  0  0  0
   29.6960   45.1490   15.9330 O   0  0  0  0  0  0  0  0  0  0  0  0
   30.4910   45.6380   16.2070 H   0  0  0  0  0  0  0  0  0  0  0  0
   37.8510   45.1340   17.7420 C   0  0  0  0  0  0  0  0  0  0  0  0
   38.4200   46.3480   17.3230 C   0  0  0  0  0  3  0  0  0  0  0  0
   38.3930   46.7240   15.9780 C   0  0  0  0  0  3  0  0  0  0  0  0
   37.7950   45.8950   15.0330 C   0  0  0  0  0  3  0  0  0  0  0  0
   37.2180   44.6910   15.4300 C   0  0  0  0  0  3  0  0  0  0  0  0
   37.2440   44.3150   16.7740 C   0  0  0  0  0  3  0  0  0  0  0  0
   42.0980   45.6920   20.6870 C   0  0  0  0  0  3  0  0  0  0  0  0
   41.6400   44.9980   19.6090 F   0  0  0  0  0  0  0  0  0  0  0  0
   41.7870   46.9990   20.4660 F   0  0  0  0  0  0  0  0  0  0  0  0
  1  2  1  0  0  0  0
  2  3  2  0  0  0  0
  3  4  1  0  0  0  0
  4  5  2  0  0  0  0
  6  5  1  0  0  0  0
  6  7  2  0  0  0  0
  8  7  1  0  0  0  0
  9 10  1  0  0  0  0
  9  8  2  0  0  0  0
 10  6  1  0  0  0  0
 11  3  1  0  0  0  0
 11 10  1  0  0  0  0
 12 11  2  0  0  0  0
 13  1  2  0  0  0  0
 13 12  1  0  0  0  0
 14 15  2  0  0  0  0
 14 19  1  0  0  0  0
 15 16  1  0  0  0  0
 16 17  2  0  0  0  0
 17  1  1  0  0  0  0
 18 17  1  0  0  0  0
 19 18  2  0  0  0  0
 20 24  1  1  0  0  0
 20 21  1  0  0  0  0
 20 14  1  0  0  0  0
 22 31  1  6  0  0  0
 22 21  1  0  0  0  0
 23 22  1  0  0  0  0
 23 20  1  0  0  0  0
 24 26  1  0  0  0  0
 25 24  1  0  0  0  0
 27 24  1  0  0  0  0
 28 22  1  0  0  0  0
 28 29  1  0  0  0  0
 28 30  1  0  0  0  0
 29 30  1  0  0  0  0
 31 32  1  0  0  0  0
 33 13  1  0  0  0  0
 34 33  1  0  0  0  0
 35 34  2  0  0  0  0
 36 37  2  0  0  0  0
 36 35  1  0  0  0  0
 37 38  1  0  0  0  0
 38 33  2  0  0  0  0
 39  9  1  0  0  0  0
 40 39  1  0  0  0  0
 41 39  1  0  0  0  0
M  END
>  <minimizedAffinity>
-10.3535681

$$$$

 OpenBabel11232419183D

 41 47  0  0  1  0  0  0  0  0999 V2000
   37.4330   45.1080   18.6560 C   0  0  0  0  0  0  0  0  0  0  0  0
   38.5040   45.8800   18.3310 N   0  0  0  0  0  0  0  0  0  0  0  0
   38.5550   46.3880   17.0820 C   0  0  0  0  0  0  0  0  0  0  0  0
   39.7370   47.1970   16.7840 C   0  0  0  0  0  3  0  0  0  0  0  0
   39.8980   47.7390   15.5710 C   0  0  0  0  0  3  0  0  0  0  0  0
   38.9260   47.5300   14.5660 C   0  0  0  0  0  0  0  0  0  0  0  0
   38.8880   47.9540   13.3240 N   0  0  0  0  0  0  0  0  0  0  0  0
   37.7460   47.4770   12.7530 N   0  0  0  0  0  0  0  0  0  0  0  0
   37.0880   46.7630   13.6500 C   0  0  0  0  0  0  0  0  0  0  0  0
   37.7950   46.7630   14.8400 N   0  0  0  0  0  0  0  0  0  0  0  0
   37.5730   46.1720   16.1130 C   0  0  0  0  0  0  0  0  0  0  0  0
   36.4700   45.4030   16.4690 C   0  0  0  0  0  3  0  0  0  0  0  0
   36.3760   44.8510   17.7630 C   0  0  0  0  0  0  0  0  0  0  0  0
   37.6200   43.4890   22.6820 C   0  0  0  0  0  0  0  0  0  0  0  0
   36.6980   43.0160   21.7250 C   0  0  0  0  0  3  0  0  0  0  0  0
   36.6410   43.5340   20.4250 C   0  0  0  0  0  3  0  0  0  0  0  0
   37.5170   44.5440   20.0130 C   0  0  0  0  0  0  0  0  0  0  0  0
   38.4430   45.0240   20.9450 C   0  0  0  0  0  3  0  0  0  0  0  0
   38.4910   44.5090   22.2460 C   0  0  0  0  0  3  0  0  0  0  0  0
   37.6300   42.9520   24.1780 C   0  0  1  0  0  0  0  0  0  0  0  0
   38.9940   42.7400   24.8770 C   0  0  0  0  0  2  0  0  0  0  0  0
   38.4740   43.4680   26.1610 C   0  0  1  0  0  0  0  0  0  0  0  0
   37.2300   43.9120   25.3230 C   0  0  0  0  0  2  0  0  0  0  0  0
   36.8030   41.7200   24.1690 N   0  0  0  0  0  4  0  0  0  0  0  0
   36.7020   41.2860   25.0920 H   0  0  0  0  0  0  0  0  0  0  0  0
   37.2000   41.0100   23.5370 H   0  0  0  0  0  0  0  0  0  0  0  0
   35.8560   41.9140   23.8160 H   0  0  0  0  0  0  0  0  0  0  0  0
   38.2200   42.6060   27.4060 C   0  0  0  0  0  3  0  0  0  0  0  0
   38.8130   41.2540   27.7070 C   0  0  0  0  0  2  0  0  0  0  0  0
   39.1390   42.4260   28.5860 C   0  0  0  0  0  2  0  0  0  0  0  0
   39.3120   44.5940   26.5240 O   0  0  0  0  0  0  0  0  0  0  0  0
   39.4580   45.1390   25.7320 H   0  0  0  0  0  0  0  0  0  0  0  0
   35.1900   44.0590   18.1250 C   0  0  0  0  0  0  0  0  0  0  0  0
   35.0760   42.7150   17.7340 C   0  0  0  0  0  3  0  0  0  0  0  0
   33.9470   41.9640   18.0730 C   0  0  0  0  0  3  0  0  0  0  0  0
   32.9150   42.5470   18.8040 C   0  0  0  0  0  3  0  0  0  0  0  0
   33.0070   43.8810   19.1940 C   0  0  0  0  0  3  0  0  0  0  0  0
   34.1340   44.6310   18.8550 C   0  0  0  0  0  3  0  0  0  0  0  0
   35.8110   46.0800   13.3750 C   0  0  0  0  0  3  0  0  0  0  0  0
   34.7610   46.7460   13.9280 F   0  0  0  0  0  0  0  0  0  0  0  0
   35.5630   46.0070   12.0390 F   0  0  0  0  0  0  0  0  0  0  0  0
  1 17  1  0  0  0  0
  2  1  1  0  0  0  0
  3  2  2  0  0  0  0
  4  3  1  0  0  0  0
  5  4  2  0  0  0  0
  6 10  1  0  0  0  0
  6  5  1  0  0  0  0
  7  6  2  0  0  0  0
  8  7  1  0  0  0  0
  8  9  2  0  0  0  0
  9 10  1  0  0  0  0
 10 11  1  0  0  0  0
 11 12  2  0  0  0  0
 11  3  1  0  0  0  0
 12 13  1  0  0  0  0
 13 33  1  0  0  0  0
 13  1  2  0  0  0  0
 14 20  1  0  0  0  0
 15 14  2  0  0  0  0
 16 15  1  0  0  0  0
 17 16  2  0  0  0  0
 17 18  1  0  0  0  0
 18 19  2  0  0  0  0
 19 14  1  0  0  0  0
 20 24  1  1  0  0  0
 20 21  1  0  0  0  0
 20 23  1  0  0  0  0
 21 22  1  0  0  0  0
 22 31  1  1  0  0  0
 22 28  1  0  0  0  0
 23 22  1  0  0  0  0
 24 25  1  0  0  0  0
 26 24  1  0  0  0  0
 27 24  1  0  0  0  0
 28 29  1  0  0  0  0
 28 30  1  0  0  0  0
 29 30  1  0  0  0  0
 32 31  1  0  0  0  0
 33 38  1  0  0  0  0
 34 35  1  0  0  0  0
 34 33  2  0  0  0  0
 35 36  2  0  0  0  0
 36 37  1  0  0  0  0
 38 37  2  0  0  0  0
 39  9  1  0  0  0  0
 39 40  1  0  0  0  0
 41 39  1  0  0  0  0
M  END
>  <minimizedAffinity>
-10.3183908

$$$$

 OpenBabel11232419183D

 41 47  0  0  1  0  0  0  0  0999 V2000
   36.7240   43.9940   20.2640 C   0  0  0  0  0  0  0  0  0  0  0  0
   35.4370   43.5680   20.3700 N   0  0  0  0  0  0  0  0  0  0  0  0
   34.6200   43.7740   19.3150 C   0  0  0  0  0  0  0  0  0  0  0  0
   33.2450   43.3100   19.4910 C   0  0  0  0  0  3  0  0  0  0  0  0
   32.3450   43.4750   18.5140 C   0  0  0  0  0  3  0  0  0  0  0  0
   32.7190   44.1040   17.3030 C   0  0  0  0  0  0  0  0  0  0  0  0
   32.0070   44.3710   16.2340 N   0  0  0  0  0  0  0  0  0  0  0  0
   32.8190   44.9960   15.3350 N   0  0  0  0  0  0  0  0  0  0  0  0
   34.0270   45.1070   15.8600 C   0  0  0  0  0  0  0  0  0  0  0  0
   34.0280   44.5460   17.1250 N   0  0  0  0  0  0  0  0  0  0  0  0
   35.0230   44.3890   18.1270 C   0  0  0  0  0  0  0  0  0  0  0  0
   36.3490   44.7940   18.0240 C   0  0  0  0  0  3  0  0  0  0  0  0
   37.2370   44.6000   19.1030 C   0  0  0  0  0  0  0  0  0  0  0  0
   38.9570   43.3980   23.9430 C   0  0  0  0  0  0  0  0  0  0  0  0
   38.3210   42.3330   23.2690 C   0  0  0  0  0  3  0  0  0  0  0  0
   37.6050   42.5240   22.0800 C   0  0  0  0  0  3  0  0  0  0  0  0
   37.5030   43.7910   21.4960 C   0  0  0  0  0  0  0  0  0  0  0  0
   38.1320   44.8600   22.1450 C   0  0  0  0  0  3  0  0  0  0  0  0
   38.8380   44.6660   23.3380 C   0  0  0  0  0  3  0  0  0  0  0  0
   39.7030   43.1890   25.3310 C   0  0  1  0  0  0  0  0  0  0  0  0
   39.5770   44.2920   26.4080 C   0  0  0  0  0  2  0  0  0  0  0  0
   39.2790   43.2150   27.5050 C   0  0  1  0  0  0  0  0  0  0  0  0
   39.1250   42.1750   26.3470 C   0  0  0  0  0  2  0  0  0  0  0  0
   41.1150   42.8920   24.9880 N   0  0  0  0  0  4  0  0  0  0  0  0
   41.7050   42.7050   25.8050 H   0  0  0  0  0  0  0  0  0  0  0  0
   41.5450   43.6730   24.4710 H   0  0  0  0  0  0  0  0  0  0  0  0
   41.1800   42.0740   24.3670 H   0  0  0  0  0  0  0  0  0  0  0  0
   40.3700   42.9550   28.5530 C   0  0  0  0  0  3  0  0  0  0  0  0
   41.2700   41.7490   28.6430 C   0  0  0  0  0  2  0  0  0  0  0  0
   41.8580   43.1020   28.3680 C   0  0  0  0  0  2  0  0  0  0  0  0
   38.0190   43.4630   28.1800 O   0  0  0  0  0  0  0  0  0  0  0  0
   37.3330   43.6160   27.5080 H   0  0  0  0  0  0  0  0  0  0  0  0
   38.6420   45.0170   18.9640 C   0  0  0  0  0  0  0  0  0  0  0  0
   39.0020   46.0490   18.0830 C   0  0  0  0  0  3  0  0  0  0  0  0
   40.3360   46.4420   17.9470 C   0  0  0  0  0  3  0  0  0  0  0  0
   41.3290   45.8050   18.6860 C   0  0  0  0  0  3  0  0  0  0  0  0
   40.9930   44.7730   19.5590 C   0  0  0  0  0  3  0  0  0  0  0  0
   39.6600   44.3810   19.6950 C   0  0  0  0  0  3  0  0  0  0  0  0
   35.1620   45.7500   15.1720 C   0  0  0  0  0  3  0  0  0  0  0  0
   36.0920   44.8340   14.7850 F   0  0  0  0  0  0  0  0  0  0  0  0
   34.7590   46.3920   14.0410 F   0  0  0  0  0  0  0  0  0  0  0  0
  1  2  1  0  0  0  0
  1 17  1  0  0  0  0
  3  4  1  0  0  0  0
  3  2  2  0  0  0  0
  5  4  2  0  0  0  0
  6  5  1  0  0  0  0
  7  6  2  0  0  0  0
  8  9  2  0  0  0  0
  8  7  1  0  0  0  0
  9 10  1  0  0  0  0
 10  6  1  0  0  0  0
 10 11  1  0  0  0  0
 11  3  1  0  0  0  0
 12 11  2  0  0  0  0
 12 13  1  0  0  0  0
 13  1  2  0  0  0  0
 14 20  1  0  0  0  0
 15 14  2  0  0  0  0
 16 15  1  0  0  0  0
 17 16  2  0  0  0  0
 17 18  1  0  0  0  0
 18 19  2  0  0  0  0
 19 14  1  0  0  0  0
 20 24  1  6  0  0  0
 20 23  1  0  0  0  0
 20 21  1  0  0  0  0
 21 22  1  0  0  0  0
 22 31  1  1  0  0  0
 22 28  1  0  0  0  0
 23 22  1  0  0  0  0
 24 25  1  0  0  0  0
 26 24  1  0  0  0  0
 27 24  1  0  0  0  0
 28 29  1  0  0  0  0
 30 28  1  0  0  0  0
 30 29  1  0  0  0  0
 32 31  1  0  0  0  0
 33 13  1  0  0  0  0
 33 38  1  0  0  0  0
 34 33  2  0  0  0  0
 35 34  1  0  0  0  0
 35 36  2  0  0  0  0
 36 37  1  0  0  0  0
 37 38  2  0  0  0  0
 39  9  1  0  0  0  0
 40 39  1  0  0  0  0
 41 39  1  0  0  0  0
M  END
>  <minimizedAffinity>
-10.2745132

$$$$

 OpenBabel11232419183D

 41 47  0  0  1  0  0  0  0  0999 V2000
   39.1670   45.6010   19.1830 C   0  0  0  0  0  0  0  0  0  0  0  0
   39.9930   46.4970   18.5790 N   0  0  0  0  0  0  0  0  0  0  0  0
   39.6740   46.9000   17.3300 C   0  0  0  0  0  0  0  0  0  0  0  0
   40.6050   47.8510   16.7240 C   0  0  0  0  0  3  0  0  0  0  0  0
   40.3950   48.3070   15.4830 C   0  0  0  0  0  3  0  0  0  0  0  0
   39.2700   47.8690   14.7480 C   0  0  0  0  0  0  0  0  0  0  0  0
   38.8820   48.1760   13.5320 N   0  0  0  0  0  0  0  0  0  0  0  0
   37.7370   47.4850   13.2700 N   0  0  0  0  0  0  0  0  0  0  0  0
   37.4280   46.7580   14.3300 C   0  0  0  0  0  0  0  0  0  0  0  0
   38.3750   46.9650   15.3170 N   0  0  0  0  0  0  0  0  0  0  0  0
   38.5480   46.4560   16.6320 C   0  0  0  0  0  0  0  0  0  0  0  0
   37.6990   45.5620   17.2740 C   0  0  0  0  0  3  0  0  0  0  0  0
   37.9940   45.1130   18.5780 C   0  0  0  0  0  0  0  0  0  0  0  0
   40.5470   44.2680   23.0800 C   0  0  0  0  0  0  0  0  0  0  0  0
   41.1710   43.8590   21.8820 C   0  0  0  0  0  3  0  0  0  0  0  0
   40.7300   44.2930   20.6260 C   0  0  0  0  0  3  0  0  0  0  0  0
   39.6480   45.1720   20.5060 C   0  0  0  0  0  0  0  0  0  0  0  0
   39.0180   45.5950   21.6820 C   0  0  0  0  0  3  0  0  0  0  0  0
   39.4570   45.1510   22.9350 C   0  0  0  0  0  3  0  0  0  0  0  0
   41.0030   43.7130   24.4980 C   0  0  1  0  0  0  0  0  0  0  0  0
   41.2040   44.7210   25.6540 C   0  0  0  0  0  2  0  0  0  0  0  0
   40.3980   43.7970   26.6270 C   0  0  1  0  0  0  0  0  0  0  0  0
   39.9740   42.9610   25.3750 C   0  0  0  0  0  2  0  0  0  0  0  0
   42.2170   42.9000   24.2400 N   0  0  0  0  0  4  0  0  0  0  0  0
   42.5980   42.4540   25.0810 H   0  0  0  0  0  0  0  0  0  0  0  0
   42.9670   43.4710   23.8280 H   0  0  0  0  0  0  0  0  0  0  0  0
   42.0230   42.1540   23.5580 H   0  0  0  0  0  0  0  0  0  0  0  0
   41.1860   43.0750   27.7290 C   0  0  0  0  0  3  0  0  0  0  0  0
   40.8320   41.7640   28.3840 C   0  0  0  0  0  2  0  0  0  0  0  0
   42.0840   41.8780   27.5650 C   0  0  0  0  0  2  0  0  0  0  0  0
   39.2700   44.4880   27.2220 O   0  0  0  0  0  0  0  0  0  0  0  0
   38.7720   44.9340   26.5150 H   0  0  0  0  0  0  0  0  0  0  0  0
   37.0700   44.1830   19.2470 C   0  0  0  0  0  0  0  0  0  0  0  0
   35.7350   44.0690   18.8260 C   0  0  0  0  0  3  0  0  0  0  0  0
   34.8550   43.1900   19.4640 C   0  0  0  0  0  3  0  0  0  0  0  0
   35.2970   42.4160   20.5330 C   0  0  0  0  0  3  0  0  0  0  0  0
   36.6150   42.5210   20.9700 C   0  0  0  0  0  3  0  0  0  0  0  0
   37.4940   43.3990   20.3330 C   0  0  0  0  0  3  0  0  0  0  0  0
   36.2550   45.8680   14.3960 C   0  0  0  0  0  3  0  0  0  0  0  0
   35.1640   46.4370   13.8150 F   0  0  0  0  0  0  0  0  0  0  0  0
   36.4790   44.6990   13.7360 F   0  0  0  0  0  0  0  0  0  0  0  0
  1 17  1  0  0  0  0
  2  1  1  0  0  0  0
  3  2  2  0  0  0  0
  4  3  1  0  0  0  0
  5  4  2  0  0  0  0
  6 10  1  0  0  0  0
  6  5  1  0  0  0  0
  7  6  2  0  0  0  0
  8  7  1  0  0  0  0
  8  9  2  0  0  0  0
  9 39  1  0  0  0  0
  9 10  1  0  0  0  0
 10 11  1  0  0  0  0
 11 12  2  0  0  0  0
 11  3  1  0  0  0  0
 12 13  1  0  0  0  0
 13  1  2  0  0  0  0
 13 33  1  0  0  0  0
 14 20  1  0  0  0  0
 15 14  2  0  0  0  0
 16 15  1  0  0  0  0
 17 16  2  0  0  0  0
 17 18  1  0  0  0  0
 18 19  2  0  0  0  0
 19 14  1  0  0  0  0
 20 24  1  6  0  0  0
 20 23  1  0  0  0  0
 20 21  1  0  0  0  0
 21 22  1  0  0  0  0
 22 31  1  1  0  0  0
 22 28  1  0  0  0  0
 23 22  1  0  0  0  0
 24 25  1  0  0  0  0
 26 24  1  0  0  0  0
 27 24  1  0  0  0  0
 28 29  1  0  0  0  0
 30 28  1  0  0  0  0
 30 29  1  0  0  0  0
 32 31  1  0  0  0  0
 33 38  1  0  0  0  0
 34 33  2  0  0  0  0
 34 35  1  0  0  0  0
 35 36  2  0  0  0  0
 36 37  1  0  0  0  0
 38 37  2  0  0  0  0
 40 39  1  0  0  0  0
 41 39  1  0  0  0  0
M  END
>  <minimizedAffinity>
-9.80833721

$$$$

 OpenBabel11232419183D

 41 47  0  0  1  0  0  0  0  0999 V2000
   33.8290   43.4030   17.4510 C   0  0  0  0  0  0  0  0  0  0  0  0
   32.7750   43.3190   16.5960 N   0  0  0  0  0  0  0  0  0  0  0  0
   31.8230   42.3990   16.8620 C   0  0  0  0  0  0  0  0  0  0  0  0
   30.7230   42.3430   15.9010 C   0  0  0  0  0  3  0  0  0  0  0  0
   29.7310   41.4580   16.0580 C   0  0  0  0  0  3  0  0  0  0  0  0
   29.7420   40.5680   17.1570 C   0  0  0  0  0  0  0  0  0  0  0  0
   28.8890   39.6290   17.4940 N   0  0  0  0  0  0  0  0  0  0  0  0
   29.3460   39.0370   18.6340 N   0  0  0  0  0  0  0  0  0  0  0  0
   30.4790   39.6170   18.9890 C   0  0  0  0  0  0  0  0  0  0  0  0
   30.7850   40.6150   18.0800 N   0  0  0  0  0  0  0  0  0  0  0  0
   31.8580   41.5390   17.9630 C   0  0  0  0  0  0  0  0  0  0  0  0
   32.9280   41.6560   18.8430 C   0  0  0  0  0  3  0  0  0  0  0  0
   33.9460   42.6030   18.6030 C   0  0  0  0  0  0  0  0  0  0  0  0
   36.7720   46.3150   16.1370 C   0  0  0  0  0  0  0  0  0  0  0  0
   35.6990   46.6620   16.9850 C   0  0  0  0  0  3  0  0  0  0  0  0
   34.7530   45.7220   17.4130 C   0  0  0  0  0  3  0  0  0  0  0  0
   34.8430   44.3810   17.0250 C   0  0  0  0  0  0  0  0  0  0  0  0
   35.9030   44.0140   16.1890 C   0  0  0  0  0  3  0  0  0  0  0  0
   36.8410   44.9590   15.7560 C   0  0  0  0  0  3  0  0  0  0  0  0
   37.7990   47.3990   15.5920 C   0  0  1  0  0  0  0  0  0  0  0  0
   39.1090   47.6360   16.3810 C   0  0  0  0  0  2  0  0  0  0  0  0
   39.9390   47.5890   15.0540 C   0  0  1  0  0  0  0  0  0  0  0  0
   38.6480   47.0670   14.3420 C   0  0  0  0  0  2  0  0  0  0  0  0
   37.0130   48.6450   15.4170 N   0  0  0  0  0  4  0  0  0  0  0  0
   37.5580   49.4250   15.0370 H   0  0  0  0  0  0  0  0  0  0  0  0
   36.6090   48.9600   16.3110 H   0  0  0  0  0  0  0  0  0  0  0  0
   36.2140   48.4920   14.7860 H   0  0  0  0  0  0  0  0  0  0  0  0
   40.5410   48.9090   14.5530 C   0  0  0  0  0  3  0  0  0  0  0  0
   41.4040   49.8660   15.3360 C   0  0  0  0  0  2  0  0  0  0  0  0
   41.9700   49.1550   14.1420 C   0  0  0  0  0  2  0  0  0  0  0  0
   40.9780   46.5790   15.1000 O   0  0  0  0  0  0  0  0  0  0  0  0
   40.5850   45.7440   15.4080 H   0  0  0  0  0  0  0  0  0  0  0  0
   35.0580   42.7240   19.5590 C   0  0  0  0  0  0  0  0  0  0  0  0
   35.4790   41.6190   20.3160 C   0  0  0  0  0  3  0  0  0  0  0  0
   36.5310   41.7350   21.2280 C   0  0  0  0  0  3  0  0  0  0  0  0
   37.1740   42.9570   21.3990 C   0  0  0  0  0  3  0  0  0  0  0  0
   36.7660   44.0670   20.6630 C   0  0  0  0  0  3  0  0  0  0  0  0
   35.7140   43.9510   19.7520 C   0  0  0  0  0  3  0  0  0  0  0  0
   31.2660   39.2190   20.1700 C   0  0  0  0  0  3  0  0  0  0  0  0
   30.4620   38.9040   21.2220 F   0  0  0  0  0  0  0  0  0  0  0  0
   32.0210   38.1160   19.9170 F   0  0  0  0  0  0  0  0  0  0  0  0
  1 13  1  0  0  0  0
  2  3  1  0  0  0  0
  2  1  2  0  0  0  0
  3 11  2  0  0  0  0
  4  5  2  0  0  0  0
  4  3  1  0  0  0  0
  5  6  1  0  0  0  0
  6  7  2  0  0  0  0
  6 10  1  0  0  0  0
  7  8  1  0  0  0  0
  8  9  2  0  0  0  0
  9 39  1  0  0  0  0
 10  9  1  0  0  0  0
 11 10  1  0  0  0  0
 11 12  1  0  0  0  0
 13 12  2  0  0  0  0
 13 33  1  0  0  0  0
 14 15  1  0  0  0  0
 15 16  2  0  0  0  0
 17 16  1  0  0  0  0
 17  1  1  0  0  0  0
 18 17  2  0  0  0  0
 19 14  2  0  0  0  0
 19 18  1  0  0  0  0
 20 24  1  6  0  0  0
 20 14  1  0  0  0  0
 20 21  1  0  0  0  0
 22 31  1  1  0  0  0
 22 21  1  0  0  0  0
 23 22  1  0  0  0  0
 23 20  1  0  0  0  0
 24 26  1  0  0  0  0
 25 24  1  0  0  0  0
 27 24  1  0  0  0  0
 28 22  1  0  0  0  0
 28 29  1  0  0  0  0
 30 28  1  0  0  0  0
 30 29  1  0  0  0  0
 31 32  1  0  0  0  0
 33 38  2  0  0  0  0
 33 34  1  0  0  0  0
 34 35  2  0  0  0  0
 35 36  1  0  0  0  0
 37 36  2  0  0  0  0
 38 37  1  0  0  0  0
 39 40  1  0  0  0  0
 41 39  1  0  0  0  0
M  END
>  <minimizedAffinity>
-9.75631142

$$$$

 OpenBabel11232419183D

 41 47  0  0  1  0  0  0  0  0999 V2000
   36.4080   44.6090   17.9230 C   0  0  0  0  0  0  0  0  0  0  0  0
   36.7080   45.4090   16.8650 N   0  0  0  0  0  0  0  0  0  0  0  0
   37.8920   46.0570   16.8850 C   0  0  0  0  0  0  0  0  0  0  0  0
   38.1540   46.9150   15.7300 C   0  0  0  0  0  3  0  0  0  0  0  0
   39.2910   47.6160   15.6530 C   0  0  0  0  0  3  0  0  0  0  0  0
   40.2480   47.5340   16.6910 C   0  0  0  0  0  0  0  0  0  0  0  0
   41.4090   48.1330   16.8210 N   0  0  0  0  0  0  0  0  0  0  0  0
   41.9560   47.7340   18.0040 N   0  0  0  0  0  0  0  0  0  0  0  0
   41.1260   46.8910   18.5930 C   0  0  0  0  0  0  0  0  0  0  0  0
   40.0090   46.7170   17.7940 N   0  0  0  0  0  0  0  0  0  0  0  0
   38.8220   45.9470   17.9220 C   0  0  0  0  0  0  0  0  0  0  0  0
   38.5120   45.1040   18.9840 C   0  0  0  0  0  3  0  0  0  0  0  0
   37.2860   44.4080   19.0040 C   0  0  0  0  0  0  0  0  0  0  0  0
   32.4570   42.8140   17.7320 C   0  0  0  0  0  0  0  0  0  0  0  0
   32.7210   43.9660   18.5020 C   0  0  0  0  0  3  0  0  0  0  0  0
   33.9940   44.5480   18.5600 C   0  0  0  0  0  3  0  0  0  0  0  0
   35.0650   44.0140   17.8350 C   0  0  0  0  0  0  0  0  0  0  0  0
   34.8220   42.8740   17.0600 C   0  0  0  0  0  3  0  0  0  0  0  0
   33.5500   42.2900   17.0120 C   0  0  0  0  0  3  0  0  0  0  0  0
   31.0300   42.1130   17.7290 C   0  0  1  0  0  0  0  0  0  0  0  0
   30.8210   40.8680   16.8350 C   0  0  0  0  0  2  0  0  0  0  0  0
   30.1220   40.1120   18.0150 C   0  0  1  0  0  0  0  0  0  0  0  0
   30.6090   41.2650   18.9530 C   0  0  0  0  0  2  0  0  0  0  0  0
   30.0530   43.1900   17.4350 N   0  0  0  0  0  4  0  0  0  0  0  0
   29.0790   42.8720   17.4350 H   0  0  0  0  0  0  0  0  0  0  0  0
   30.2360   43.6180   16.5160 H   0  0  0  0  0  0  0  0  0  0  0  0
   30.1270   43.9540   18.1210 H   0  0  0  0  0  0  0  0  0  0  0  0
   28.6090   39.8790   17.9040 C   0  0  0  0  0  3  0  0  0  0  0  0
   27.6690   39.4920   19.0170 C   0  0  0  0  0  2  0  0  0  0  0  0
   27.5130   40.8190   18.3330 C   0  0  0  0  0  2  0  0  0  0  0  0
   30.7770   38.8550   18.3180 O   0  0  0  0  0  0  0  0  0  0  0  0
   31.7340   39.0150   18.3960 H   0  0  0  0  0  0  0  0  0  0  0  0
   36.9890   43.5040   20.1270 C   0  0  0  0  0  0  0  0  0  0  0  0
   36.2870   42.3050   19.9180 C   0  0  0  0  0  3  0  0  0  0  0  0
   36.0000   41.4490   20.9840 C   0  0  0  0  0  3  0  0  0  0  0  0
   36.4070   41.7800   22.2740 C   0  0  0  0  0  3  0  0  0  0  0  0
   37.0970   42.9680   22.5020 C   0  0  0  0  0  3  0  0  0  0  0  0
   37.3830   43.8240   21.4370 C   0  0  0  0  0  3  0  0  0  0  0  0
   41.3860   46.2690   19.9040 C   0  0  0  0  0  3  0  0  0  0  0  0
   40.2540   46.2030   20.6570 F   0  0  0  0  0  0  0  0  0  0  0  0
   41.8350   44.9910   19.7680 F   0  0  0  0  0  0  0  0  0  0  0  0
  1 13  1  0  0  0  0
  2  3  1  0  0  0  0
  2  1  2  0  0  0  0
  3 11  2  0  0  0  0
  4  3  1  0  0  0  0
  5  4  2  0  0  0  0
  5  6  1  0  0  0  0
  6  7  2  0  0  0  0
  6 10  1  0  0  0  0
  7  8  1  0  0  0  0
  8  9  2  0  0  0  0
  9 39  1  0  0  0  0
 10 11  1  0  0  0  0
 10  9  1  0  0  0  0
 11 12  1  0  0  0  0
 12 13  2  0  0  0  0
 13 33  1  0  0  0  0
 14 15  1  0  0  0  0
 15 16  2  0  0  0  0
 17  1  1  0  0  0  0
 17 16  1  0  0  0  0
 18 17  2  0  0  0  0
 19 18  1  0  0  0  0
 19 14  2  0  0  0  0
 20 24  1  6  0  0  0
 20 14  1  0  0  0  0
 20 23  1  0  0  0  0
 21 20  1  0  0  0  0
 21 22  1  0  0  0  0
 22 31  1  1  0  0  0
 22 23  1  0  0  0  0
 24 27  1  0  0  0  0
 25 24  1  0  0  0  0
 26 24  1  0  0  0  0
 28 22  1  0  0  0  0
 28 30  1  0  0  0  0
 28 29  1  0  0  0  0
 30 29  1  0  0  0  0
 31 32  1  0  0  0  0
 33 38  1  0  0  0  0
 34 33  2  0  0  0  0
 34 35  1  0  0  0  0
 35 36  2  0  0  0  0
 36 37  1  0  0  0  0
 38 37  2  0  0  0  0
 39 40  1  0  0  0  0
 41 39  1  0  0  0  0
M  END
>  <minimizedAffinity>
-9.70203686

$$$$
