
 OpenBabel11232419183D

 41 47  0  0  1  0  0  0  0  0999 V2000
   36.7700   44.1710   19.8200 C   0  0  0  0  0  0  0  0  0  0  0  0
   36.7820   43.8530   21.1420 N   0  0  0  0  0  0  0  0  0  0  0  0
   37.9240   44.0690   21.8280 C   0  0  0  0  0  0  0  0  0  0  0  0
   37.8840   43.6940   23.2410 C   0  0  0  0  0  3  0  0  0  0  0  0
   38.9650   43.8520   24.0140 C   0  0  0  0  0  3  0  0  0  0  0  0
   40.1570   44.3810   23.4680 C   0  0  0  0  0  0  0  0  0  0  0  0
   41.3190   44.6090   24.0340 N   0  0  0  0  0  0  0  0  0  0  0  0
   42.1550   45.1180   23.0850 N   0  0  0  0  0  0  0  0  0  0  0  0
   41.4990   45.2000   21.9400 C   0  0  0  0  0  0  0  0  0  0  0  0
   40.2040   44.7450   22.1230 N   0  0  0  0  0  0  0  0  0  0  0  0
   39.0840   44.6040   21.2620 C   0  0  0  0  0  0  0  0  0  0  0  0
   39.0470   44.9500   19.9150 C   0  0  0  0  0  3  0  0  0  0  0  0
   37.8750   44.7400   19.1590 C   0  0  0  0  0  0  0  0  0  0  0  0
   32.9980   43.1530   17.9210 C   0  0  0  0  0  0  0  0  0  0  0  0
   33.3860   44.4900   18.1510 C   0  0  0  0  0  3  0  0  0  0  0  0
   34.6040   44.8190   18.7580 C   0  0  0  0  0  3  0  0  0  0  0  0
   35.5050   43.8230   19.1530 C   0  0  0  0  0  0  0  0  0  0  0  0
   35.1420   42.4910   18.9280 C   0  0  0  0  0  3  0  0  0  0  0  0
   33.9190   42.1660   18.3290 C   0  0  0  0  0  3  0  0  0  0  0  0
   31.5820   42.7830   17.3010 C   0  0  1  0  0  0  0  0  0  0  0  0
   30.3410   43.5790   17.7690 C   0  0  0  0  0  2  0  0  0  0  0  0
   29.8680   43.7530   16.2870 C   0  0  1  0  0  0  0  0  0  0  0  0
   31.2660   43.2070   15.8470 C   0  0  0  0  0  2  0  0  0  0  0  0
   31.4240   41.3220   17.5020 N   0  0  0  0  0  4  0  0  0  0  0  0
   30.5540   40.9450   17.1140 H   0  0  0  0  0  0  0  0  0  0  0  0
   31.4450   41.0790   18.5020 H   0  0  0  0  0  0  0  0  0  0  0  0
   32.2020   40.8030   17.0710 H   0  0  0  0  0  0  0  0  0  0  0  0
   28.6270   42.9650   15.8460 C   0  0  0  0  0  3  0  0  0  0  0  0
   28.2130   41.5920   16.3120 C   0  0  0  0  0  2  0  0  0  0  0  0
   27.3480   42.7790   16.6210 C   0  0  0  0  0  2  0  0  0  0  0  0
   29.6960   45.1490   15.9330 O   0  0  0  0  0  0  0  0  0  0  0  0
   30.4910   45.6380   16.2070 H   0  0  0  0  0  0  0  0  0  0  0  0
   37.8510   45.1340   17.7420 C   0  0  0  0  0  0  0  0  0  0  0  0
   38.4200   46.3480   17.3230 C   0  0  0  0  0  3  0  0  0  0  0  0
   38.3930   46.7240   15.9780 C   0  0  0  0  0  3  0  0  0  0  0  0
   37.7950   45.8950   15.0330 C   0  0  0  0  0  3  0  0  0  0  0  0
   37.2180   44.6910   15.4300 C   0  0  0  0  0  3  0  0  0  0  0  0
   37.2440   44.3150   16.7740 C   0  0  0  0  0  3  0  0  0  0  0  0
   42.0980   45.6920   20.6870 C   0  0  0  0  0  3  0  0  0  0  0  0
   41.6400   44.9980   19.6090 F   0  0  0  0  0  0  0  0  0  0  0  0
   41.7870   46.9990   20.4660 F   0  0  0  0  0  0  0  0  0  0  0  0
  1  2  1  0  0  0  0
  2  3  2  0  0  0  0
  3  4  1  0  0  0  0
  4  5  2  0  0  0  0
  6  5  1  0  0  0  0
  6  7  2  0  0  0  0
  8  7  1  0  0  0  0
  9 10  1  0  0  0  0
  9  8  2  0  0  0  0
 10  6  1  0  0  0  0
 11  3  1  0  0  0  0
 11 10  1  0  0  0  0
 12 11  2  0  0  0  0
 13  1  2  0  0  0  0
 13 12  1  0  0  0  0
 14 15  2  0  0  0  0
 14 19  1  0  0  0  0
 15 16  1  0  0  0  0
 16 17  2  0  0  0  0
 17  1  1  0  0  0  0
 18 17  1  0  0  0  0
 19 18  2  0  0  0  0
 20 24  1  1  0  0  0
 20 21  1  0  0  0  0
 20 14  1  0  0  0  0
 22 31  1  6  0  0  0
 22 21  1  0  0  0  0
 23 22  1  0  0  0  0
 23 20  1  0  0  0  0
 24 26  1  0  0  0  0
 25 24  1  0  0  0  0
 27 24  1  0  0  0  0
 28 22  1  0  0  0  0
 28 29  1  0  0  0  0
 28 30  1  0  0  0  0
 29 30  1  0  0  0  0
 31 32  1  0  0  0  0
 33 13  1  0  0  0  0
 34 33  1  0  0  0  0
 35 34  2  0  0  0  0
 36 37  2  0  0  0  0
 36 35  1  0  0  0  0
 37 38  1  0  0  0  0
 38 33  2  0  0  0  0
 39  9  1  0  0  0  0
 40 39  1  0  0  0  0
 41 39  1  0  0  0  0
M  END
>  <minimizedAffinity>
-10.3535681

$$$$
