
 OpenBabel10152418103D

 38 41  0  0  1  0  0  0  0  0999 V2000
    4.0750   -7.4210  -30.1520 C   0  0  0  0  0  1  0  0  0  0  0  0
    3.6990   -7.8330  -28.7250 C   0  0  2  0  0  3  0  0  0  0  0  0
    4.0780   -9.2870  -28.4810 C   0  0  0  0  0  0  0  0  0  0  0  0
    4.4040  -10.1430  -29.5420 C   0  0  0  0  0  3  0  0  0  0  0  0
    4.3680  -11.5170  -29.3510 C   0  0  0  0  0  3  0  0  0  0  0  0
    4.0990  -12.0390  -28.0860 C   0  0  0  0  0  3  0  0  0  0  0  0
    4.0080  -11.2120  -26.9690 C   0  0  0  0  0  0  0  0  0  0  0  0
    3.9760   -9.8290  -27.1830 C   0  0  0  0  0  3  0  0  0  0  0  0
    3.8930  -11.6490  -25.6310 N   0  0  0  0  0  0  0  0  0  0  0  0
    2.8570  -11.6880  -24.7250 C   0  0  0  0  0  0  0  0  0  0  0  0
    3.0740  -12.0390  -23.5670 O   0  0  0  0  0  0  0  0  0  0  0  0
    4.7390  -12.0150  -25.2090 H   0  0  0  0  0  0  0  0  0  0  0  0
    1.4830  -11.3120  -25.0920 C   0  0  0  0  0  0  0  0  0  0  0  0
    0.9320  -11.8750  -26.2510 C   0  0  0  0  0  3  0  0  0  0  0  0
   -0.4130  -11.6590  -26.5450 C   0  0  0  0  0  3  0  0  0  0  0  0
   -1.1890  -10.8880  -25.6820 C   0  0  0  0  0  0  0  0  0  0  0  0
   -2.4980  -10.7530  -25.9360 F   0  0  0  0  0  0  0  0  0  0  0  0
   -0.6250  -10.2970  -24.5500 C   0  0  0  0  0  0  0  0  0  0  0  0
    0.7280  -10.4640  -24.2700 C   0  0  0  0  0  3  0  0  0  0  0  0
   -1.4320   -9.6080  -23.6890 O   0  0  0  0  0  0  0  0  0  0  0  0
   -0.9550   -9.4550  -22.8560 H   0  0  0  0  0  0  0  0  0  0  0  0
    2.2800   -7.4970  -28.4710 N   0  0  0  0  0  0  0  0  0  0  0  0
    1.8160   -8.1790  -27.8750 H   0  0  0  0  0  0  0  0  0  0  0  0
    1.8140   -6.2490  -28.0890 C   0  0  0  0  0  0  0  0  0  0  0  0
    2.0240   -5.3180  -29.0330 N   0  0  0  0  0  0  0  0  0  0  0  0
    1.4060   -4.1520  -28.8600 C   0  0  0  0  0  3  0  0  0  0  0  0
    0.5820   -3.8370  -27.8540 N   0  0  0  0  0  0  0  0  0  0  0  0
    0.4140   -4.7470  -26.8660 C   0  0  0  0  0  0  0  0  0  0  0  0
   -0.4530   -4.5230  -25.7750 C   0  0  0  0  0  0  0  0  0  0  0  0
   -0.5710   -5.4590  -24.7280 C   0  0  0  0  0  3  0  0  0  0  0  0
    0.1780   -6.6250  -24.7380 C   0  0  0  0  0  3  0  0  0  0  0  0
    1.0080   -6.8790  -25.8220 C   0  0  0  0  0  3  0  0  0  0  0  0
    1.0950   -5.9780  -26.9110 C   0  0  0  0  0  0  0  0  0  0  0  0
   -1.3340   -3.3170  -25.6580 C   0  0  0  0  0  0  0  0  0  0  0  0
   -2.1080   -2.9710  -26.7270 N   0  0  0  0  0  0  0  0  0  0  0  0
   -1.3820   -2.6530  -24.6310 O   0  0  0  0  0  0  0  0  0  0  0  0
   -2.7100   -2.1640  -26.6550 H   0  0  0  0  0  0  0  0  0  0  0  0
   -2.0860   -3.5130  -27.5850 H   0  0  0  0  0  0  0  0  0  0  0  0
  2  1  1  6  0  0  0
  2  3  1  0  0  0  0
  2 22  1  0  0  0  0
  3  8  1  0  0  0  0
  4  5  1  0  0  0  0
  4  3  2  0  0  0  0
  5  6  2  0  0  0  0
  6  7  1  0  0  0  0
  7  9  1  0  0  0  0
  8  7  2  0  0  0  0
  9 12  1  0  0  0  0
  9 10  1  0  0  0  0
 10 11  2  0  0  0  0
 13 10  1  0  0  0  0
 13 19  1  0  0  0  0
 14 13  2  0  0  0  0
 15 14  1  0  0  0  0
 15 16  2  0  0  0  0
 16 18  1  0  0  0  0
 17 16  1  0  0  0  0
 18 19  2  0  0  0  0
 18 20  1  0  0  0  0
 20 21  1  0  0  0  0
 22 24  1  0  0  0  0
 22 23  1  0  0  0  0
 24 33  1  0  0  0  0
 25 26  1  0  0  0  0
 25 24  2  0  0  0  0
 26 27  2  0  0  0  0
 27 28  1  0  0  0  0
 28 29  1  0  0  0  0
 29 34  1  0  0  0  0
 29 30  2  0  0  0  0
 31 30  1  0  0  0  0
 32 31  2  0  0  0  0
 33 28  2  0  0  0  0
 33 32  1  0  0  0  0
 34 36  2  0  0  0  0
 35 37  1  0  0  0  0
 35 34  1  0  0  0  0
 38 35  1  0  0  0  0
M  END
>  <minimizedAffinity>
-7.20025158

$$$$
