
 OpenBabel10152418103D

 38 41  0  0  1  0  0  0  0  0999 V2000
    0.9510   -5.6080  -28.6030 C   0  0  0  0  0  1  0  0  0  0  0  0
    2.1770   -5.9540  -27.7520 C   0  0  2  0  0  3  0  0  0  0  0  0
    3.0030   -7.0350  -28.4380 C   0  0  0  0  0  0  0  0  0  0  0  0
    3.0770   -7.1190  -29.8350 C   0  0  0  0  0  3  0  0  0  0  0  0
    3.4980   -8.2990  -30.4300 C   0  0  0  0  0  3  0  0  0  0  0  0
    3.9340   -9.3620  -29.6390 C   0  0  0  0  0  3  0  0  0  0  0  0
    4.0950   -9.2190  -28.2630 C   0  0  0  0  0  0  0  0  0  0  0  0
    3.6020   -8.0520  -27.6670 C   0  0  0  0  0  3  0  0  0  0  0  0
    4.6710  -10.1770  -27.4000 N   0  0  0  0  0  0  0  0  0  0  0  0
    4.1680  -11.0080  -26.4240 C   0  0  0  0  0  0  0  0  0  0  0  0
    4.9370  -11.6860  -25.7450 O   0  0  0  0  0  0  0  0  0  0  0  0
    5.6730  -10.3040  -27.4820 H   0  0  0  0  0  0  0  0  0  0  0  0
    2.7260  -11.1120  -26.1530 C   0  0  0  0  0  0  0  0  0  0  0  0
    1.9270  -11.7930  -27.0830 C   0  0  0  0  0  3  0  0  0  0  0  0
    0.5880  -12.0390  -26.7840 C   0  0  0  0  0  3  0  0  0  0  0  0
    0.0650  -11.6070  -25.5680 C   0  0  0  0  0  0  0  0  0  0  0  0
   -1.2030  -11.9190  -25.2620 F   0  0  0  0  0  0  0  0  0  0  0  0
    0.8540  -10.8950  -24.6630 C   0  0  0  0  0  0  0  0  0  0  0  0
    2.1800  -10.5990  -24.9690 C   0  0  0  0  0  3  0  0  0  0  0  0
    0.3280  -10.5500  -23.4510 O   0  0  0  0  0  0  0  0  0  0  0  0
    1.0460  -10.2700  -22.8580 H   0  0  0  0  0  0  0  0  0  0  0  0
    1.7490   -6.2660  -26.3700 N   0  0  0  0  0  0  0  0  0  0  0  0
    1.8740   -5.4810  -25.7350 H   0  0  0  0  0  0  0  0  0  0  0  0
    0.5520   -6.8720  -26.0260 C   0  0  0  0  0  0  0  0  0  0  0  0
    0.1850   -7.8110  -26.9130 N   0  0  0  0  0  0  0  0  0  0  0  0
   -0.8190   -8.6070  -26.5490 C   0  0  0  0  0  3  0  0  0  0  0  0
   -1.4700   -8.5720  -25.3810 N   0  0  0  0  0  0  0  0  0  0  0  0
   -1.1490   -7.5900  -24.5070 C   0  0  0  0  0  0  0  0  0  0  0  0
   -1.7580   -7.4810  -23.2390 C   0  0  0  0  0  0  0  0  0  0  0  0
   -1.4500   -6.4180  -22.3660 C   0  0  0  0  0  3  0  0  0  0  0  0
   -0.5440   -5.4390  -22.7420 C   0  0  0  0  0  3  0  0  0  0  0  0
    0.0930   -5.5490  -23.9700 C   0  0  0  0  0  3  0  0  0  0  0  0
   -0.1600   -6.6420  -24.8350 C   0  0  0  0  0  0  0  0  0  0  0  0
   -2.7310   -8.4860  -22.7050 C   0  0  0  0  0  0  0  0  0  0  0  0
   -2.2480   -9.6650  -22.2170 N   0  0  0  0  0  0  0  0  0  0  0  0
   -3.9360   -8.2680  -22.6870 O   0  0  0  0  0  0  0  0  0  0  0  0
   -2.8960  -10.3450  -21.8480 H   0  0  0  0  0  0  0  0  0  0  0  0
   -1.2520   -9.8610  -22.2180 H   0  0  0  0  0  0  0  0  0  0  0  0
  2  1  1  6  0  0  0
  2 22  1  0  0  0  0
  3  2  1  0  0  0  0
  3  8  1  0  0  0  0
  4  3  2  0  0  0  0
  5  4  1  0  0  0  0
  5  6  2  0  0  0  0
  6  7  1  0  0  0  0
  7  8  2  0  0  0  0
  7  9  1  0  0  0  0
  9 10  1  0  0  0  0
 10 13  1  0  0  0  0
 10 11  2  0  0  0  0
 12  9  1  0  0  0  0
 13 19  1  0  0  0  0
 14 15  1  0  0  0  0
 14 13  2  0  0  0  0
 15 16  2  0  0  0  0
 16 17  1  0  0  0  0
 16 18  1  0  0  0  0
 18 20  1  0  0  0  0
 19 18  2  0  0  0  0
 20 21  1  0  0  0  0
 22 24  1  0  0  0  0
 22 23  1  0  0  0  0
 24 33  1  0  0  0  0
 25 26  1  0  0  0  0
 25 24  2  0  0  0  0
 26 27  2  0  0  0  0
 27 28  1  0  0  0  0
 28 29  1  0  0  0  0
 29 34  1  0  0  0  0
 29 30  2  0  0  0  0
 31 30  1  0  0  0  0
 32 31  2  0  0  0  0
 33 28  2  0  0  0  0
 33 32  1  0  0  0  0
 34 36  2  0  0  0  0
 34 35  1  0  0  0  0
 35 37  1  0  0  0  0
 38 35  1  0  0  0  0
M  END
>  <minimizedAffinity>
-8.5734129

$$$$

 OpenBabel10152418103D

 38 41  0  0  1  0  0  0  0  0999 V2000
    0.0940   -5.2880  -23.0370 C   0  0  0  0  0  1  0  0  0  0  0  0
   -0.2710   -6.1160  -24.2730 C   0  0  2  0  0  3  0  0  0  0  0  0
   -1.3210   -7.1590  -23.9150 C   0  0  0  0  0  0  0  0  0  0  0  0
   -2.6600   -7.0050  -24.2990 C   0  0  0  0  0  3  0  0  0  0  0  0
   -3.6470   -7.7370  -23.6550 C   0  0  0  0  0  3  0  0  0  0  0  0
   -3.2970   -8.6880  -22.6960 C   0  0  0  0  0  3  0  0  0  0  0  0
   -1.9650   -9.0270  -22.4680 C   0  0  0  0  0  0  0  0  0  0  0  0
   -0.9800   -8.2350  -23.0710 C   0  0  0  0  0  3  0  0  0  0  0  0
   -1.5160  -10.0750  -21.6370 N   0  0  0  0  0  0  0  0  0  0  0  0
   -0.8270  -11.2450  -21.8640 C   0  0  0  0  0  0  0  0  0  0  0  0
   -0.6540  -12.0390  -20.9400 O   0  0  0  0  0  0  0  0  0  0  0  0
   -1.7350   -9.9850  -20.6510 H   0  0  0  0  0  0  0  0  0  0  0  0
   -0.2910  -11.5930  -23.1880 C   0  0  0  0  0  0  0  0  0  0  0  0
   -1.1780  -11.6170  -24.2740 C   0  0  0  0  0  3  0  0  0  0  0  0
   -0.6780  -11.7940  -25.5630 C   0  0  0  0  0  3  0  0  0  0  0  0
    0.6940  -11.9450  -25.7530 C   0  0  0  0  0  0  0  0  0  0  0  0
    1.1670  -12.0370  -27.0030 F   0  0  0  0  0  0  0  0  0  0  0  0
    1.5680  -11.9610  -24.6640 C   0  0  0  0  0  0  0  0  0  0  0  0
    1.0780  -11.8330  -23.3670 C   0  0  0  0  0  3  0  0  0  0  0  0
    2.9120  -12.0380  -24.8940 O   0  0  0  0  0  0  0  0  0  0  0  0
    3.3900  -11.8130  -24.0780 H   0  0  0  0  0  0  0  0  0  0  0  0
    0.9630   -6.6480  -24.8940 N   0  0  0  0  0  0  0  0  0  0  0  0
    1.2370   -7.5510  -24.5120 H   0  0  0  0  0  0  0  0  0  0  0  0
    1.2110   -6.6980  -26.2560 C   0  0  0  0  0  0  0  0  0  0  0  0
    0.6200   -5.6900  -26.9170 N   0  0  0  0  0  0  0  0  0  0  0  0
    0.9900   -5.5170  -28.1840 C   0  0  0  0  0  3  0  0  0  0  0  0
    1.9070   -6.2350  -28.8440 N   0  0  0  0  0  0  0  0  0  0  0  0
    2.4620   -7.2920  -28.2050 C   0  0  0  0  0  0  0  0  0  0  0  0
    3.4560   -8.0950  -28.8020 C   0  0  0  0  0  0  0  0  0  0  0  0
    3.9800   -9.2250  -28.1420 C   0  0  0  0  0  3  0  0  0  0  0  0
    3.5170   -9.5840  -26.8860 C   0  0  0  0  0  3  0  0  0  0  0  0
    2.5670   -8.7840  -26.2680 C   0  0  0  0  0  3  0  0  0  0  0  0
    2.0710   -7.6120  -26.8910 C   0  0  0  0  0  0  0  0  0  0  0  0
    4.0570   -7.8000  -30.1420 C   0  0  0  0  0  0  0  0  0  0  0  0
    4.8340   -6.6860  -30.2760 N   0  0  0  0  0  0  0  0  0  0  0  0
    3.8770   -8.5360  -31.1040 O   0  0  0  0  0  0  0  0  0  0  0  0
    5.2490   -6.4840  -31.1730 H   0  0  0  0  0  0  0  0  0  0  0  0
    4.9990   -6.0670  -29.4880 H   0  0  0  0  0  0  0  0  0  0  0  0
  2  3  1  0  0  0  0
  2  1  1  1  0  0  0
  3  8  1  0  0  0  0
  4  3  2  0  0  0  0
  4  5  1  0  0  0  0
  5  6  2  0  0  0  0
  6  7  1  0  0  0  0
  7  9  1  0  0  0  0
  8  7  2  0  0  0  0
  9 12  1  0  0  0  0
 10  9  1  0  0  0  0
 10 11  2  0  0  0  0
 13 10  1  0  0  0  0
 14 13  2  0  0  0  0
 15 14  1  0  0  0  0
 16 15  2  0  0  0  0
 16 18  1  0  0  0  0
 17 16  1  0  0  0  0
 18 19  2  0  0  0  0
 19 13  1  0  0  0  0
 20 18  1  0  0  0  0
 20 21  1  0  0  0  0
 22 23  1  0  0  0  0
 22  2  1  0  0  0  0
 24 22  1  0  0  0  0
 25 24  2  0  0  0  0
 26 25  1  0  0  0  0
 27 28  1  0  0  0  0
 27 26  2  0  0  0  0
 28 33  1  0  0  0  0
 29 28  2  0  0  0  0
 29 30  1  0  0  0  0
 30 31  2  0  0  0  0
 31 32  1  0  0  0  0
 33 32  2  0  0  0  0
 33 24  1  0  0  0  0
 34 29  1  0  0  0  0
 35 34  1  0  0  0  0
 35 38  1  0  0  0  0
 36 34  2  0  0  0  0
 37 35  1  0  0  0  0
M  END
>  <minimizedAffinity>
-7.66292048

$$$$

 OpenBabel10152418103D

 38 41  0  0  1  0  0  0  0  0999 V2000
    4.0750   -7.4210  -30.1520 C   0  0  0  0  0  1  0  0  0  0  0  0
    3.6990   -7.8330  -28.7250 C   0  0  2  0  0  3  0  0  0  0  0  0
    4.0780   -9.2870  -28.4810 C   0  0  0  0  0  0  0  0  0  0  0  0
    4.4040  -10.1430  -29.5420 C   0  0  0  0  0  3  0  0  0  0  0  0
    4.3680  -11.5170  -29.3510 C   0  0  0  0  0  3  0  0  0  0  0  0
    4.0990  -12.0390  -28.0860 C   0  0  0  0  0  3  0  0  0  0  0  0
    4.0080  -11.2120  -26.9690 C   0  0  0  0  0  0  0  0  0  0  0  0
    3.9760   -9.8290  -27.1830 C   0  0  0  0  0  3  0  0  0  0  0  0
    3.8930  -11.6490  -25.6310 N   0  0  0  0  0  0  0  0  0  0  0  0
    2.8570  -11.6880  -24.7250 C   0  0  0  0  0  0  0  0  0  0  0  0
    3.0740  -12.0390  -23.5670 O   0  0  0  0  0  0  0  0  0  0  0  0
    4.7390  -12.0150  -25.2090 H   0  0  0  0  0  0  0  0  0  0  0  0
    1.4830  -11.3120  -25.0920 C   0  0  0  0  0  0  0  0  0  0  0  0
    0.9320  -11.8750  -26.2510 C   0  0  0  0  0  3  0  0  0  0  0  0
   -0.4130  -11.6590  -26.5450 C   0  0  0  0  0  3  0  0  0  0  0  0
   -1.1890  -10.8880  -25.6820 C   0  0  0  0  0  0  0  0  0  0  0  0
   -2.4980  -10.7530  -25.9360 F   0  0  0  0  0  0  0  0  0  0  0  0
   -0.6250  -10.2970  -24.5500 C   0  0  0  0  0  0  0  0  0  0  0  0
    0.7280  -10.4640  -24.2700 C   0  0  0  0  0  3  0  0  0  0  0  0
   -1.4320   -9.6080  -23.6890 O   0  0  0  0  0  0  0  0  0  0  0  0
   -0.9550   -9.4550  -22.8560 H   0  0  0  0  0  0  0  0  0  0  0  0
    2.2800   -7.4970  -28.4710 N   0  0  0  0  0  0  0  0  0  0  0  0
    1.8160   -8.1790  -27.8750 H   0  0  0  0  0  0  0  0  0  0  0  0
    1.8140   -6.2490  -28.0890 C   0  0  0  0  0  0  0  0  0  0  0  0
    2.0240   -5.3180  -29.0330 N   0  0  0  0  0  0  0  0  0  0  0  0
    1.4060   -4.1520  -28.8600 C   0  0  0  0  0  3  0  0  0  0  0  0
    0.5820   -3.8370  -27.8540 N   0  0  0  0  0  0  0  0  0  0  0  0
    0.4140   -4.7470  -26.8660 C   0  0  0  0  0  0  0  0  0  0  0  0
   -0.4530   -4.5230  -25.7750 C   0  0  0  0  0  0  0  0  0  0  0  0
   -0.5710   -5.4590  -24.7280 C   0  0  0  0  0  3  0  0  0  0  0  0
    0.1780   -6.6250  -24.7380 C   0  0  0  0  0  3  0  0  0  0  0  0
    1.0080   -6.8790  -25.8220 C   0  0  0  0  0  3  0  0  0  0  0  0
    1.0950   -5.9780  -26.9110 C   0  0  0  0  0  0  0  0  0  0  0  0
   -1.3340   -3.3170  -25.6580 C   0  0  0  0  0  0  0  0  0  0  0  0
   -2.1080   -2.9710  -26.7270 N   0  0  0  0  0  0  0  0  0  0  0  0
   -1.3820   -2.6530  -24.6310 O   0  0  0  0  0  0  0  0  0  0  0  0
   -2.7100   -2.1640  -26.6550 H   0  0  0  0  0  0  0  0  0  0  0  0
   -2.0860   -3.5130  -27.5850 H   0  0  0  0  0  0  0  0  0  0  0  0
  2  1  1  6  0  0  0
  2  3  1  0  0  0  0
  2 22  1  0  0  0  0
  3  8  1  0  0  0  0
  4  5  1  0  0  0  0
  4  3  2  0  0  0  0
  5  6  2  0  0  0  0
  6  7  1  0  0  0  0
  7  9  1  0  0  0  0
  8  7  2  0  0  0  0
  9 12  1  0  0  0  0
  9 10  1  0  0  0  0
 10 11  2  0  0  0  0
 13 10  1  0  0  0  0
 13 19  1  0  0  0  0
 14 13  2  0  0  0  0
 15 14  1  0  0  0  0
 15 16  2  0  0  0  0
 16 18  1  0  0  0  0
 17 16  1  0  0  0  0
 18 19  2  0  0  0  0
 18 20  1  0  0  0  0
 20 21  1  0  0  0  0
 22 24  1  0  0  0  0
 22 23  1  0  0  0  0
 24 33  1  0  0  0  0
 25 26  1  0  0  0  0
 25 24  2  0  0  0  0
 26 27  2  0  0  0  0
 27 28  1  0  0  0  0
 28 29  1  0  0  0  0
 29 34  1  0  0  0  0
 29 30  2  0  0  0  0
 31 30  1  0  0  0  0
 32 31  2  0  0  0  0
 33 28  2  0  0  0  0
 33 32  1  0  0  0  0
 34 36  2  0  0  0  0
 35 37  1  0  0  0  0
 35 34  1  0  0  0  0
 38 35  1  0  0  0  0
M  END
>  <minimizedAffinity>
-7.20025158

$$$$

 OpenBabel10152418103D

 38 41  0  0  1  0  0  0  0  0999 V2000
    4.7180   -8.8110  -27.5470 C   0  0  0  0  0  1  0  0  0  0  0  0
    3.3620   -8.3990  -26.9650 C   0  0  2  0  0  3  0  0  0  0  0  0
    2.6820   -9.5990  -26.3180 C   0  0  0  0  0  0  0  0  0  0  0  0
    3.4280  -10.6340  -25.7400 C   0  0  0  0  0  3  0  0  0  0  0  0
    2.8310  -11.8650  -25.5100 C   0  0  0  0  0  3  0  0  0  0  0  0
    1.4710  -12.0390  -25.7670 C   0  0  0  0  0  3  0  0  0  0  0  0
    0.6590  -10.9620  -26.1140 C   0  0  0  0  0  0  0  0  0  0  0  0
    1.2830   -9.7450  -26.4110 C   0  0  0  0  0  3  0  0  0  0  0  0
   -0.7460  -11.0030  -26.2450 N   0  0  0  0  0  0  0  0  0  0  0  0
   -1.7930  -10.7520  -25.3870 C   0  0  0  0  0  0  0  0  0  0  0  0
   -2.9470  -10.9680  -25.7520 O   0  0  0  0  0  0  0  0  0  0  0  0
   -1.1000  -11.2800  -27.1540 H   0  0  0  0  0  0  0  0  0  0  0  0
   -1.5810  -10.2350  -24.0260 C   0  0  0  0  0  0  0  0  0  0  0  0
   -1.6830   -8.8510  -23.8230 C   0  0  0  0  0  3  0  0  0  0  0  0
   -1.6370   -8.3450  -22.5250 C   0  0  0  0  0  3  0  0  0  0  0  0
   -1.4920   -9.2200  -21.4510 C   0  0  0  0  0  0  0  0  0  0  0  0
   -1.5270   -8.7260  -20.2050 F   0  0  0  0  0  0  0  0  0  0  0  0
   -1.3520  -10.5930  -21.6620 C   0  0  0  0  0  0  0  0  0  0  0  0
   -1.3470  -11.1080  -22.9560 C   0  0  0  0  0  3  0  0  0  0  0  0
   -1.2840  -11.4270  -20.5830 O   0  0  0  0  0  0  0  0  0  0  0  0
   -1.4160  -12.3440  -20.8770 H   0  0  0  0  0  0  0  0  0  0  0  0
    2.5670   -7.7060  -28.0040 N   0  0  0  0  0  0  0  0  0  0  0  0
    1.8050   -8.2780  -28.3620 H   0  0  0  0  0  0  0  0  0  0  0  0
    2.0850   -6.4120  -27.9040 C   0  0  0  0  0  0  0  0  0  0  0  0
    2.3950   -5.6690  -28.9780 N   0  0  0  0  0  0  0  0  0  0  0  0
    1.7790   -4.4940  -29.0820 C   0  0  0  0  0  3  0  0  0  0  0  0
    0.8680   -4.0020  -28.2350 N   0  0  0  0  0  0  0  0  0  0  0  0
    0.5950   -4.7160  -27.1170 C   0  0  0  0  0  0  0  0  0  0  0  0
   -0.3670   -4.2980  -26.1730 C   0  0  0  0  0  0  0  0  0  0  0  0
   -0.5960   -5.0260  -24.9880 C   0  0  0  0  0  3  0  0  0  0  0  0
    0.1350   -6.1710  -24.7130 C   0  0  0  0  0  3  0  0  0  0  0  0
    1.0590   -6.6170  -25.6470 C   0  0  0  0  0  3  0  0  0  0  0  0
    1.2610   -5.9320  -26.8700 C   0  0  0  0  0  0  0  0  0  0  0  0
   -1.2400   -3.0960  -26.3650 C   0  0  0  0  0  0  0  0  0  0  0  0
   -0.6440   -1.8890  -26.5910 N   0  0  0  0  0  0  0  0  0  0  0  0
   -2.4610   -3.1760  -26.3350 O   0  0  0  0  0  0  0  0  0  0  0  0
   -1.2240   -1.0750  -26.7290 H   0  0  0  0  0  0  0  0  0  0  0  0
    0.3670   -1.8040  -26.6250 H   0  0  0  0  0  0  0  0  0  0  0  0
  2  1  1  6  0  0  0
  2  3  1  0  0  0  0
  3  4  1  0  0  0  0
  4  5  2  0  0  0  0
  6  5  1  0  0  0  0
  7  6  2  0  0  0  0
  8  3  2  0  0  0  0
  8  7  1  0  0  0  0
  9  7  1  0  0  0  0
  9 10  1  0  0  0  0
 10 13  1  0  0  0  0
 11 10  2  0  0  0  0
 12  9  1  0  0  0  0
 13 14  2  0  0  0  0
 13 19  1  0  0  0  0
 14 15  1  0  0  0  0
 15 16  2  0  0  0  0
 16 17  1  0  0  0  0
 18 16  1  0  0  0  0
 18 20  1  0  0  0  0
 19 18  2  0  0  0  0
 21 20  1  0  0  0  0
 22 24  1  0  0  0  0
 22  2  1  0  0  0  0
 23 22  1  0  0  0  0
 24 33  1  0  0  0  0
 25 24  2  0  0  0  0
 26 25  1  0  0  0  0
 26 27  2  0  0  0  0
 27 28  1  0  0  0  0
 28 33  2  0  0  0  0
 28 29  1  0  0  0  0
 29 30  2  0  0  0  0
 30 31  1  0  0  0  0
 32 31  2  0  0  0  0
 33 32  1  0  0  0  0
 34 36  2  0  0  0  0
 34 29  1  0  0  0  0
 35 34  1  0  0  0  0
 37 35  1  0  0  0  0
 38 35  1  0  0  0  0
M  END
>  <minimizedAffinity>
-7.07610607

$$$$

 OpenBabel10152418103D

 38 41  0  0  1  0  0  0  0  0999 V2000
    3.8350   -9.3050  -26.1930 C   0  0  0  0  0  1  0  0  0  0  0  0
    3.8000  -10.2070  -27.4310 C   0  0  2  0  0  3  0  0  0  0  0  0
    3.5230   -9.3770  -28.6780 C   0  0  0  0  0  0  0  0  0  0  0  0
    3.8510   -9.8500  -29.9550 C   0  0  0  0  0  3  0  0  0  0  0  0
    3.9510   -8.9570  -31.0130 C   0  0  0  0  0  3  0  0  0  0  0  0
    3.6350   -7.6120  -30.8220 C   0  0  0  0  0  3  0  0  0  0  0  0
    3.0790   -7.1640  -29.6260 C   0  0  0  0  0  0  0  0  0  0  0  0
    3.0490   -8.0560  -28.5480 C   0  0  0  0  0  3  0  0  0  0  0  0
    2.5850   -5.8630  -29.3870 N   0  0  0  0  0  0  0  0  0  0  0  0
    1.7310   -5.3220  -28.4530 C   0  0  0  0  0  0  0  0  0  0  0  0
    1.3920   -4.1440  -28.5460 O   0  0  0  0  0  0  0  0  0  0  0  0
    2.9000   -5.1430  -30.0280 H   0  0  0  0  0  0  0  0  0  0  0  0
    1.1940   -6.1130  -27.3340 C   0  0  0  0  0  0  0  0  0  0  0  0
    2.1030   -6.6750  -26.4280 C   0  0  0  0  0  3  0  0  0  0  0  0
    1.6250   -7.3010  -25.2780 C   0  0  0  0  0  3  0  0  0  0  0  0
    0.2520   -7.3570  -25.0470 C   0  0  0  0  0  0  0  0  0  0  0  0
   -0.1900   -7.8940  -23.9000 F   0  0  0  0  0  0  0  0  0  0  0  0
   -0.6500   -6.8310  -25.9730 C   0  0  0  0  0  0  0  0  0  0  0  0
   -0.1880   -6.2460  -27.1490 C   0  0  0  0  0  3  0  0  0  0  0  0
   -1.9840   -6.8400  -25.6800 O   0  0  0  0  0  0  0  0  0  0  0  0
   -2.4520   -6.2510  -26.2950 H   0  0  0  0  0  0  0  0  0  0  0  0
    2.8660  -11.3310  -27.1980 N   0  0  0  0  0  0  0  0  0  0  0  0
    3.2390  -12.2230  -27.5160 H   0  0  0  0  0  0  0  0  0  0  0  0
    2.1990  -11.5770  -26.0090 C   0  0  0  0  0  0  0  0  0  0  0  0
    3.0250  -12.0040  -25.0410 N   0  0  0  0  0  0  0  0  0  0  0  0
    2.5220  -12.0390  -23.8090 C   0  0  0  0  0  3  0  0  0  0  0  0
    1.2890  -11.6670  -23.4480 N   0  0  0  0  0  0  0  0  0  0  0  0
    0.4290  -11.2950  -24.4260 C   0  0  0  0  0  0  0  0  0  0  0  0
   -0.8840  -10.8600  -24.1500 C   0  0  0  0  0  0  0  0  0  0  0  0
   -1.7810  -10.5310  -25.1850 C   0  0  0  0  0  3  0  0  0  0  0  0
   -1.3960  -10.6410  -26.5120 C   0  0  0  0  0  3  0  0  0  0  0  0
   -0.0950  -11.0310  -26.8020 C   0  0  0  0  0  3  0  0  0  0  0  0
    0.8380  -11.3080  -25.7740 C   0  0  0  0  0  0  0  0  0  0  0  0
   -1.4140  -10.6750  -22.7600 C   0  0  0  0  0  0  0  0  0  0  0  0
   -1.4000  -11.7420  -21.9110 N   0  0  0  0  0  0  0  0  0  0  0  0
   -1.8420   -9.5950  -22.3740 O   0  0  0  0  0  0  0  0  0  0  0  0
   -1.7470  -11.6250  -20.9710 H   0  0  0  0  0  0  0  0  0  0  0  0
   -1.0430  -12.6440  -22.2110 H   0  0  0  0  0  0  0  0  0  0  0  0
  2 22  1  0  0  0  0
  2  1  1  1  0  0  0
  3  8  1  0  0  0  0
  3  2  1  0  0  0  0
  4  3  2  0  0  0  0
  5  6  2  0  0  0  0
  5  4  1  0  0  0  0
  6  7  1  0  0  0  0
  7  9  1  0  0  0  0
  7  8  2  0  0  0  0
  9 10  1  0  0  0  0
 10 13  1  0  0  0  0
 11 10  2  0  0  0  0
 12  9  1  0  0  0  0
 13 19  2  0  0  0  0
 13 14  1  0  0  0  0
 14 15  2  0  0  0  0
 15 16  1  0  0  0  0
 16 17  1  0  0  0  0
 18 20  1  0  0  0  0
 18 16  2  0  0  0  0
 19 18  1  0  0  0  0
 21 20  1  0  0  0  0
 22 24  1  0  0  0  0
 23 22  1  0  0  0  0
 24 33  2  0  0  0  0
 24 25  1  0  0  0  0
 25 26  2  0  0  0  0
 26 27  1  0  0  0  0
 28 29  1  0  0  0  0
 28 27  2  0  0  0  0
 29 34  1  0  0  0  0
 30 29  2  0  0  0  0
 31 30  1  0  0  0  0
 32 31  2  0  0  0  0
 32 33  1  0  0  0  0
 33 28  1  0  0  0  0
 34 36  2  0  0  0  0
 34 35  1  0  0  0  0
 35 37  1  0  0  0  0
 38 35  1  0  0  0  0
M  END
>  <minimizedAffinity>
-6.81721449

$$$$

 OpenBabel10152418103D

 38 41  0  0  1  0  0  0  0  0999 V2000
   -0.5080   -5.2130  -24.7010 C   0  0  0  0  0  1  0  0  0  0  0  0
   -0.3600   -6.6980  -25.0470 C   0  0  2  0  0  3  0  0  0  0  0  0
   -1.4630   -7.5060  -24.3770 C   0  0  0  0  0  0  0  0  0  0  0  0
   -2.8130   -7.1650  -24.5320 C   0  0  0  0  0  3  0  0  0  0  0  0
   -3.7520   -7.6520  -23.6350 C   0  0  0  0  0  3  0  0  0  0  0  0
   -3.3660   -8.5500  -22.6400 C   0  0  0  0  0  3  0  0  0  0  0  0
   -2.0810   -9.0880  -22.6120 C   0  0  0  0  0  0  0  0  0  0  0  0
   -1.1270   -8.5380  -23.4770 C   0  0  0  0  0  3  0  0  0  0  0  0
   -1.6380  -10.1110  -21.7480 N   0  0  0  0  0  0  0  0  0  0  0  0
   -0.9010  -11.2600  -21.9260 C   0  0  0  0  0  0  0  0  0  0  0  0
   -0.7460  -12.0380  -20.9870 O   0  0  0  0  0  0  0  0  0  0  0  0
   -1.9090  -10.0200  -20.7750 H   0  0  0  0  0  0  0  0  0  0  0  0
   -0.2870  -11.6020  -23.2190 C   0  0  0  0  0  0  0  0  0  0  0  0
   -1.1260  -11.7240  -24.3350 C   0  0  0  0  0  3  0  0  0  0  0  0
   -0.5630  -11.8980  -25.5980 C   0  0  0  0  0  3  0  0  0  0  0  0
    0.8230  -11.9470  -25.7320 C   0  0  0  0  0  0  0  0  0  0  0  0
    1.3510  -12.0380  -26.9610 F   0  0  0  0  0  0  0  0  0  0  0  0
    1.6520  -11.8650  -24.6120 C   0  0  0  0  0  0  0  0  0  0  0  0
    1.1020  -11.7400  -23.3390 C   0  0  0  0  0  3  0  0  0  0  0  0
    3.0060  -11.8450  -24.7880 O   0  0  0  0  0  0  0  0  0  0  0  0
    3.4320  -11.5610  -23.9620 H   0  0  0  0  0  0  0  0  0  0  0  0
    1.0200   -7.1410  -24.7480 N   0  0  0  0  0  0  0  0  0  0  0  0
    1.0550   -7.8500  -24.0190 H   0  0  0  0  0  0  0  0  0  0  0  0
    1.9660   -7.4940  -25.6970 C   0  0  0  0  0  0  0  0  0  0  0  0
    2.6830   -8.5660  -25.3250 N   0  0  0  0  0  0  0  0  0  0  0  0
    3.4460   -9.1210  -26.2640 C   0  0  0  0  0  3  0  0  0  0  0  0
    3.5420   -8.7260  -27.5390 N   0  0  0  0  0  0  0  0  0  0  0  0
    2.8720   -7.6080  -27.9060 C   0  0  0  0  0  0  0  0  0  0  0  0
    2.8860   -7.1230  -29.2310 C   0  0  0  0  0  0  0  0  0  0  0  0
    2.2280   -5.9270  -29.5810 C   0  0  0  0  0  3  0  0  0  0  0  0
    1.5560   -5.1870  -28.6210 C   0  0  0  0  0  3  0  0  0  0  0  0
    1.4990   -5.6680  -27.3210 C   0  0  0  0  0  3  0  0  0  0  0  0
    2.1050   -6.8970  -26.9630 C   0  0  0  0  0  0  0  0  0  0  0  0
    3.5530   -7.8420  -30.3630 C   0  0  0  0  0  0  0  0  0  0  0  0
    4.8850   -8.1190  -30.2640 N   0  0  0  0  0  0  0  0  0  0  0  0
    2.9300   -8.1930  -31.3580 O   0  0  0  0  0  0  0  0  0  0  0  0
    5.3410   -8.6100  -31.0190 H   0  0  0  0  0  0  0  0  0  0  0  0
    5.4170   -7.8410  -29.4450 H   0  0  0  0  0  0  0  0  0  0  0  0
  2 22  1  0  0  0  0
  2  1  1  1  0  0  0
  2  3  1  0  0  0  0
  3  8  1  0  0  0  0
  4  3  2  0  0  0  0
  4  5  1  0  0  0  0
  5  6  2  0  0  0  0
  6  7  1  0  0  0  0
  7  9  1  0  0  0  0
  8  7  2  0  0  0  0
  9 12  1  0  0  0  0
 10  9  1  0  0  0  0
 10 11  2  0  0  0  0
 13 10  1  0  0  0  0
 14 13  2  0  0  0  0
 15 14  1  0  0  0  0
 16 15  2  0  0  0  0
 16 18  1  0  0  0  0
 17 16  1  0  0  0  0
 18 19  2  0  0  0  0
 19 13  1  0  0  0  0
 20 18  1  0  0  0  0
 20 21  1  0  0  0  0
 22 23  1  0  0  0  0
 24 25  1  0  0  0  0
 24 22  1  0  0  0  0
 26 25  2  0  0  0  0
 27 26  1  0  0  0  0
 28 27  2  0  0  0  0
 28 33  1  0  0  0  0
 29 28  1  0  0  0  0
 30 29  2  0  0  0  0
 30 31  1  0  0  0  0
 31 32  2  0  0  0  0
 32 33  1  0  0  0  0
 33 24  2  0  0  0  0
 34 35  1  0  0  0  0
 34 29  1  0  0  0  0
 35 38  1  0  0  0  0
 36 34  2  0  0  0  0
 37 35  1  0  0  0  0
M  END
>  <minimizedAffinity>
-6.64265585

$$$$
