
 OpenBabel10152418103D

 38 41  0  0  1  0  0  0  0  0999 V2000
   -0.5080   -5.2130  -24.7010 C   0  0  0  0  0  1  0  0  0  0  0  0
   -0.3600   -6.6980  -25.0470 C   0  0  2  0  0  3  0  0  0  0  0  0
   -1.4630   -7.5060  -24.3770 C   0  0  0  0  0  0  0  0  0  0  0  0
   -2.8130   -7.1650  -24.5320 C   0  0  0  0  0  3  0  0  0  0  0  0
   -3.7520   -7.6520  -23.6350 C   0  0  0  0  0  3  0  0  0  0  0  0
   -3.3660   -8.5500  -22.6400 C   0  0  0  0  0  3  0  0  0  0  0  0
   -2.0810   -9.0880  -22.6120 C   0  0  0  0  0  0  0  0  0  0  0  0
   -1.1270   -8.5380  -23.4770 C   0  0  0  0  0  3  0  0  0  0  0  0
   -1.6380  -10.1110  -21.7480 N   0  0  0  0  0  0  0  0  0  0  0  0
   -0.9010  -11.2600  -21.9260 C   0  0  0  0  0  0  0  0  0  0  0  0
   -0.7460  -12.0380  -20.9870 O   0  0  0  0  0  0  0  0  0  0  0  0
   -1.9090  -10.0200  -20.7750 H   0  0  0  0  0  0  0  0  0  0  0  0
   -0.2870  -11.6020  -23.2190 C   0  0  0  0  0  0  0  0  0  0  0  0
   -1.1260  -11.7240  -24.3350 C   0  0  0  0  0  3  0  0  0  0  0  0
   -0.5630  -11.8980  -25.5980 C   0  0  0  0  0  3  0  0  0  0  0  0
    0.8230  -11.9470  -25.7320 C   0  0  0  0  0  0  0  0  0  0  0  0
    1.3510  -12.0380  -26.9610 F   0  0  0  0  0  0  0  0  0  0  0  0
    1.6520  -11.8650  -24.6120 C   0  0  0  0  0  0  0  0  0  0  0  0
    1.1020  -11.7400  -23.3390 C   0  0  0  0  0  3  0  0  0  0  0  0
    3.0060  -11.8450  -24.7880 O   0  0  0  0  0  0  0  0  0  0  0  0
    3.4320  -11.5610  -23.9620 H   0  0  0  0  0  0  0  0  0  0  0  0
    1.0200   -7.1410  -24.7480 N   0  0  0  0  0  0  0  0  0  0  0  0
    1.0550   -7.8500  -24.0190 H   0  0  0  0  0  0  0  0  0  0  0  0
    1.9660   -7.4940  -25.6970 C   0  0  0  0  0  0  0  0  0  0  0  0
    2.6830   -8.5660  -25.3250 N   0  0  0  0  0  0  0  0  0  0  0  0
    3.4460   -9.1210  -26.2640 C   0  0  0  0  0  3  0  0  0  0  0  0
    3.5420   -8.7260  -27.5390 N   0  0  0  0  0  0  0  0  0  0  0  0
    2.8720   -7.6080  -27.9060 C   0  0  0  0  0  0  0  0  0  0  0  0
    2.8860   -7.1230  -29.2310 C   0  0  0  0  0  0  0  0  0  0  0  0
    2.2280   -5.9270  -29.5810 C   0  0  0  0  0  3  0  0  0  0  0  0
    1.5560   -5.1870  -28.6210 C   0  0  0  0  0  3  0  0  0  0  0  0
    1.4990   -5.6680  -27.3210 C   0  0  0  0  0  3  0  0  0  0  0  0
    2.1050   -6.8970  -26.9630 C   0  0  0  0  0  0  0  0  0  0  0  0
    3.5530   -7.8420  -30.3630 C   0  0  0  0  0  0  0  0  0  0  0  0
    4.8850   -8.1190  -30.2640 N   0  0  0  0  0  0  0  0  0  0  0  0
    2.9300   -8.1930  -31.3580 O   0  0  0  0  0  0  0  0  0  0  0  0
    5.3410   -8.6100  -31.0190 H   0  0  0  0  0  0  0  0  0  0  0  0
    5.4170   -7.8410  -29.4450 H   0  0  0  0  0  0  0  0  0  0  0  0
  2 22  1  0  0  0  0
  2  1  1  1  0  0  0
  2  3  1  0  0  0  0
  3  8  1  0  0  0  0
  4  3  2  0  0  0  0
  4  5  1  0  0  0  0
  5  6  2  0  0  0  0
  6  7  1  0  0  0  0
  7  9  1  0  0  0  0
  8  7  2  0  0  0  0
  9 12  1  0  0  0  0
 10  9  1  0  0  0  0
 10 11  2  0  0  0  0
 13 10  1  0  0  0  0
 14 13  2  0  0  0  0
 15 14  1  0  0  0  0
 16 15  2  0  0  0  0
 16 18  1  0  0  0  0
 17 16  1  0  0  0  0
 18 19  2  0  0  0  0
 19 13  1  0  0  0  0
 20 18  1  0  0  0  0
 20 21  1  0  0  0  0
 22 23  1  0  0  0  0
 24 25  1  0  0  0  0
 24 22  1  0  0  0  0
 26 25  2  0  0  0  0
 27 26  1  0  0  0  0
 28 27  2  0  0  0  0
 28 33  1  0  0  0  0
 29 28  1  0  0  0  0
 30 29  2  0  0  0  0
 30 31  1  0  0  0  0
 31 32  2  0  0  0  0
 32 33  1  0  0  0  0
 33 24  2  0  0  0  0
 34 35  1  0  0  0  0
 34 29  1  0  0  0  0
 35 38  1  0  0  0  0
 36 34  2  0  0  0  0
 37 35  1  0  0  0  0
M  END
>  <minimizedAffinity>
-6.64265585

$$$$
