
 OpenBabel10152418103D

 38 41  0  0  1  0  0  0  0  0999 V2000
    0.0940   -5.2880  -23.0370 C   0  0  0  0  0  1  0  0  0  0  0  0
   -0.2710   -6.1160  -24.2730 C   0  0  2  0  0  3  0  0  0  0  0  0
   -1.3210   -7.1590  -23.9150 C   0  0  0  0  0  0  0  0  0  0  0  0
   -2.6600   -7.0050  -24.2990 C   0  0  0  0  0  3  0  0  0  0  0  0
   -3.6470   -7.7370  -23.6550 C   0  0  0  0  0  3  0  0  0  0  0  0
   -3.2970   -8.6880  -22.6960 C   0  0  0  0  0  3  0  0  0  0  0  0
   -1.9650   -9.0270  -22.4680 C   0  0  0  0  0  0  0  0  0  0  0  0
   -0.9800   -8.2350  -23.0710 C   0  0  0  0  0  3  0  0  0  0  0  0
   -1.5160  -10.0750  -21.6370 N   0  0  0  0  0  0  0  0  0  0  0  0
   -0.8270  -11.2450  -21.8640 C   0  0  0  0  0  0  0  0  0  0  0  0
   -0.6540  -12.0390  -20.9400 O   0  0  0  0  0  0  0  0  0  0  0  0
   -1.7350   -9.9850  -20.6510 H   0  0  0  0  0  0  0  0  0  0  0  0
   -0.2910  -11.5930  -23.1880 C   0  0  0  0  0  0  0  0  0  0  0  0
   -1.1780  -11.6170  -24.2740 C   0  0  0  0  0  3  0  0  0  0  0  0
   -0.6780  -11.7940  -25.5630 C   0  0  0  0  0  3  0  0  0  0  0  0
    0.6940  -11.9450  -25.7530 C   0  0  0  0  0  0  0  0  0  0  0  0
    1.1670  -12.0370  -27.0030 F   0  0  0  0  0  0  0  0  0  0  0  0
    1.5680  -11.9610  -24.6640 C   0  0  0  0  0  0  0  0  0  0  0  0
    1.0780  -11.8330  -23.3670 C   0  0  0  0  0  3  0  0  0  0  0  0
    2.9120  -12.0380  -24.8940 O   0  0  0  0  0  0  0  0  0  0  0  0
    3.3900  -11.8130  -24.0780 H   0  0  0  0  0  0  0  0  0  0  0  0
    0.9630   -6.6480  -24.8940 N   0  0  0  0  0  0  0  0  0  0  0  0
    1.2370   -7.5510  -24.5120 H   0  0  0  0  0  0  0  0  0  0  0  0
    1.2110   -6.6980  -26.2560 C   0  0  0  0  0  0  0  0  0  0  0  0
    0.6200   -5.6900  -26.9170 N   0  0  0  0  0  0  0  0  0  0  0  0
    0.9900   -5.5170  -28.1840 C   0  0  0  0  0  3  0  0  0  0  0  0
    1.9070   -6.2350  -28.8440 N   0  0  0  0  0  0  0  0  0  0  0  0
    2.4620   -7.2920  -28.2050 C   0  0  0  0  0  0  0  0  0  0  0  0
    3.4560   -8.0950  -28.8020 C   0  0  0  0  0  0  0  0  0  0  0  0
    3.9800   -9.2250  -28.1420 C   0  0  0  0  0  3  0  0  0  0  0  0
    3.5170   -9.5840  -26.8860 C   0  0  0  0  0  3  0  0  0  0  0  0
    2.5670   -8.7840  -26.2680 C   0  0  0  0  0  3  0  0  0  0  0  0
    2.0710   -7.6120  -26.8910 C   0  0  0  0  0  0  0  0  0  0  0  0
    4.0570   -7.8000  -30.1420 C   0  0  0  0  0  0  0  0  0  0  0  0
    4.8340   -6.6860  -30.2760 N   0  0  0  0  0  0  0  0  0  0  0  0
    3.8770   -8.5360  -31.1040 O   0  0  0  0  0  0  0  0  0  0  0  0
    5.2490   -6.4840  -31.1730 H   0  0  0  0  0  0  0  0  0  0  0  0
    4.9990   -6.0670  -29.4880 H   0  0  0  0  0  0  0  0  0  0  0  0
  2  3  1  0  0  0  0
  2  1  1  1  0  0  0
  3  8  1  0  0  0  0
  4  3  2  0  0  0  0
  4  5  1  0  0  0  0
  5  6  2  0  0  0  0
  6  7  1  0  0  0  0
  7  9  1  0  0  0  0
  8  7  2  0  0  0  0
  9 12  1  0  0  0  0
 10  9  1  0  0  0  0
 10 11  2  0  0  0  0
 13 10  1  0  0  0  0
 14 13  2  0  0  0  0
 15 14  1  0  0  0  0
 16 15  2  0  0  0  0
 16 18  1  0  0  0  0
 17 16  1  0  0  0  0
 18 19  2  0  0  0  0
 19 13  1  0  0  0  0
 20 18  1  0  0  0  0
 20 21  1  0  0  0  0
 22 23  1  0  0  0  0
 22  2  1  0  0  0  0
 24 22  1  0  0  0  0
 25 24  2  0  0  0  0
 26 25  1  0  0  0  0
 27 28  1  0  0  0  0
 27 26  2  0  0  0  0
 28 33  1  0  0  0  0
 29 28  2  0  0  0  0
 29 30  1  0  0  0  0
 30 31  2  0  0  0  0
 31 32  1  0  0  0  0
 33 32  2  0  0  0  0
 33 24  1  0  0  0  0
 34 29  1  0  0  0  0
 35 34  1  0  0  0  0
 35 38  1  0  0  0  0
 36 34  2  0  0  0  0
 37 35  1  0  0  0  0
M  END
>  <minimizedAffinity>
-7.66292048

$$$$
