
 OpenBabel10152418103D

 38 41  0  0  1  0  0  0  0  0999 V2000
    4.7180   -8.8110  -27.5470 C   0  0  0  0  0  1  0  0  0  0  0  0
    3.3620   -8.3990  -26.9650 C   0  0  2  0  0  3  0  0  0  0  0  0
    2.6820   -9.5990  -26.3180 C   0  0  0  0  0  0  0  0  0  0  0  0
    3.4280  -10.6340  -25.7400 C   0  0  0  0  0  3  0  0  0  0  0  0
    2.8310  -11.8650  -25.5100 C   0  0  0  0  0  3  0  0  0  0  0  0
    1.4710  -12.0390  -25.7670 C   0  0  0  0  0  3  0  0  0  0  0  0
    0.6590  -10.9620  -26.1140 C   0  0  0  0  0  0  0  0  0  0  0  0
    1.2830   -9.7450  -26.4110 C   0  0  0  0  0  3  0  0  0  0  0  0
   -0.7460  -11.0030  -26.2450 N   0  0  0  0  0  0  0  0  0  0  0  0
   -1.7930  -10.7520  -25.3870 C   0  0  0  0  0  0  0  0  0  0  0  0
   -2.9470  -10.9680  -25.7520 O   0  0  0  0  0  0  0  0  0  0  0  0
   -1.1000  -11.2800  -27.1540 H   0  0  0  0  0  0  0  0  0  0  0  0
   -1.5810  -10.2350  -24.0260 C   0  0  0  0  0  0  0  0  0  0  0  0
   -1.6830   -8.8510  -23.8230 C   0  0  0  0  0  3  0  0  0  0  0  0
   -1.6370   -8.3450  -22.5250 C   0  0  0  0  0  3  0  0  0  0  0  0
   -1.4920   -9.2200  -21.4510 C   0  0  0  0  0  0  0  0  0  0  0  0
   -1.5270   -8.7260  -20.2050 F   0  0  0  0  0  0  0  0  0  0  0  0
   -1.3520  -10.5930  -21.6620 C   0  0  0  0  0  0  0  0  0  0  0  0
   -1.3470  -11.1080  -22.9560 C   0  0  0  0  0  3  0  0  0  0  0  0
   -1.2840  -11.4270  -20.5830 O   0  0  0  0  0  0  0  0  0  0  0  0
   -1.4160  -12.3440  -20.8770 H   0  0  0  0  0  0  0  0  0  0  0  0
    2.5670   -7.7060  -28.0040 N   0  0  0  0  0  0  0  0  0  0  0  0
    1.8050   -8.2780  -28.3620 H   0  0  0  0  0  0  0  0  0  0  0  0
    2.0850   -6.4120  -27.9040 C   0  0  0  0  0  0  0  0  0  0  0  0
    2.3950   -5.6690  -28.9780 N   0  0  0  0  0  0  0  0  0  0  0  0
    1.7790   -4.4940  -29.0820 C   0  0  0  0  0  3  0  0  0  0  0  0
    0.8680   -4.0020  -28.2350 N   0  0  0  0  0  0  0  0  0  0  0  0
    0.5950   -4.7160  -27.1170 C   0  0  0  0  0  0  0  0  0  0  0  0
   -0.3670   -4.2980  -26.1730 C   0  0  0  0  0  0  0  0  0  0  0  0
   -0.5960   -5.0260  -24.9880 C   0  0  0  0  0  3  0  0  0  0  0  0
    0.1350   -6.1710  -24.7130 C   0  0  0  0  0  3  0  0  0  0  0  0
    1.0590   -6.6170  -25.6470 C   0  0  0  0  0  3  0  0  0  0  0  0
    1.2610   -5.9320  -26.8700 C   0  0  0  0  0  0  0  0  0  0  0  0
   -1.2400   -3.0960  -26.3650 C   0  0  0  0  0  0  0  0  0  0  0  0
   -0.6440   -1.8890  -26.5910 N   0  0  0  0  0  0  0  0  0  0  0  0
   -2.4610   -3.1760  -26.3350 O   0  0  0  0  0  0  0  0  0  0  0  0
   -1.2240   -1.0750  -26.7290 H   0  0  0  0  0  0  0  0  0  0  0  0
    0.3670   -1.8040  -26.6250 H   0  0  0  0  0  0  0  0  0  0  0  0
  2  1  1  6  0  0  0
  2  3  1  0  0  0  0
  3  4  1  0  0  0  0
  4  5  2  0  0  0  0
  6  5  1  0  0  0  0
  7  6  2  0  0  0  0
  8  3  2  0  0  0  0
  8  7  1  0  0  0  0
  9  7  1  0  0  0  0
  9 10  1  0  0  0  0
 10 13  1  0  0  0  0
 11 10  2  0  0  0  0
 12  9  1  0  0  0  0
 13 14  2  0  0  0  0
 13 19  1  0  0  0  0
 14 15  1  0  0  0  0
 15 16  2  0  0  0  0
 16 17  1  0  0  0  0
 18 16  1  0  0  0  0
 18 20  1  0  0  0  0
 19 18  2  0  0  0  0
 21 20  1  0  0  0  0
 22 24  1  0  0  0  0
 22  2  1  0  0  0  0
 23 22  1  0  0  0  0
 24 33  1  0  0  0  0
 25 24  2  0  0  0  0
 26 25  1  0  0  0  0
 26 27  2  0  0  0  0
 27 28  1  0  0  0  0
 28 33  2  0  0  0  0
 28 29  1  0  0  0  0
 29 30  2  0  0  0  0
 30 31  1  0  0  0  0
 32 31  2  0  0  0  0
 33 32  1  0  0  0  0
 34 36  2  0  0  0  0
 34 29  1  0  0  0  0
 35 34  1  0  0  0  0
 37 35  1  0  0  0  0
 38 35  1  0  0  0  0
M  END
>  <minimizedAffinity>
-7.07610607

$$$$
