
 OpenBabel10152419583D

 37 40  0  0  0  0  0  0  0  0999 V2000
    2.7940  -10.6850  -26.0120 C   0  0  0  0  0  0  0  0  0  0  0  0
    2.2080  -11.1160  -27.2010 C   0  0  0  0  0  3  0  0  0  0  0  0
    1.3260  -12.1920  -27.1830 C   0  0  0  0  0  3  0  0  0  0  0  0
    1.0000  -12.8070  -25.9730 C   0  0  0  0  0  3  0  0  0  0  0  0
    1.4810  -12.3130  -24.7500 C   0  0  0  0  0  0  0  0  0  0  0  0
    2.3800  -11.2400  -24.7930 C   0  0  0  0  0  3  0  0  0  0  0  0
    3.7160   -8.3950  -26.4930 C   0  0  0  0  0  0  0  0  0  0  0  0
    4.7220   -7.7400  -26.7560 O   0  0  0  0  0  0  0  0  0  0  0  0
    3.8100   -9.7150  -26.1000 N   0  0  0  0  0  0  0  0  0  0  0  0
    4.7380   -9.9730  -25.7870 H   0  0  0  0  0  0  0  0  0  0  0  0
    0.0270   -6.2330  -26.4740 C   0  0  0  0  0  0  0  0  0  0  0  0
    0.5480   -6.7660  -25.2870 C   0  0  0  0  0  3  0  0  0  0  0  0
    1.7260   -7.5170  -25.2950 C   0  0  0  0  0  3  0  0  0  0  0  0
    2.3930   -7.7260  -26.5010 C   0  0  0  0  0  0  0  0  0  0  0  0
    1.8360   -7.2650  -27.7010 C   0  0  0  0  0  3  0  0  0  0  0  0
    0.6590   -6.5110  -27.6850 C   0  0  0  0  0  3  0  0  0  0  0  0
   -1.0870   -5.4610  -26.3060 O   0  0  0  0  0  0  0  0  0  0  0  0
    0.0780   -3.4900  -27.1480 C   0  0  0  0  0  1  0  0  0  0  0  0
   -0.9350   -4.0480  -26.1610 C   0  0  0  0  0  2  0  0  0  0  0  0
    1.1270  -12.9560  -23.4160 C   0  0  0  0  0  2  0  0  0  0  0  0
   -0.2800  -12.8050  -23.0890 N   0  0  0  0  0  0  0  0  0  0  0  0
   -0.9170  -13.5460  -23.3280 H   0  0  0  0  0  0  0  0  0  0  0  0
   -0.6680  -11.7770  -22.2440 C   0  0  0  0  0  0  0  0  0  0  0  0
   -0.7570  -12.0780  -20.9370 N   0  0  0  0  0  0  0  0  0  0  0  0
   -1.4180  -11.2200  -20.1640 C   0  0  0  0  0  3  0  0  0  0  0  0
   -2.0760  -10.1420  -20.5910 N   0  0  0  0  0  0  0  0  0  0  0  0
   -1.9640   -9.8150  -21.8930 C   0  0  0  0  0  0  0  0  0  0  0  0
   -2.6570   -8.7260  -22.4350 C   0  0  0  0  0  0  0  0  0  0  0  0
   -2.4960   -8.3090  -23.7650 C   0  0  0  0  0  3  0  0  0  0  0  0
   -1.6740   -9.0300  -24.6130 C   0  0  0  0  0  3  0  0  0  0  0  0
   -1.0480  -10.1760  -24.1320 C   0  0  0  0  0  3  0  0  0  0  0  0
   -1.1890  -10.5820  -22.7770 C   0  0  0  0  0  0  0  0  0  0  0  0
   -3.6930   -8.0180  -21.6540 C   0  0  0  0  0  0  0  0  0  0  0  0
   -3.3340   -7.6420  -20.3880 N   0  0  0  0  0  0  0  0  0  0  0  0
   -4.8350   -7.8850  -22.0730 O   0  0  0  0  0  0  0  0  0  0  0  0
   -4.0270   -7.1950  -19.8040 H   0  0  0  0  0  0  0  0  0  0  0  0
   -2.3920   -7.7450  -20.0380 H   0  0  0  0  0  0  0  0  0  0  0  0
  1  6  1  0  0  0  0
  2  3  1  0  0  0  0
  2  1  2  0  0  0  0
  3  4  2  0  0  0  0
  4  5  1  0  0  0  0
  5 20  1  0  0  0  0
  6  5  2  0  0  0  0
  7  9  1  0  0  0  0
  8  7  2  0  0  0  0
  9  1  1  0  0  0  0
  9 10  1  0  0  0  0
 11 17  1  0  0  0  0
 11 12  1  0  0  0  0
 13 12  2  0  0  0  0
 14  7  1  0  0  0  0
 14 13  1  0  0  0  0
 15 16  1  0  0  0  0
 15 14  2  0  0  0  0
 16 11  2  0  0  0  0
 17 19  1  0  0  0  0
 18 19  1  0  0  0  0
 20 21  1  0  0  0  0
 21 23  1  0  0  0  0
 22 21  1  0  0  0  0
 23 24  1  0  0  0  0
 24 25  2  0  0  0  0
 26 25  1  0  0  0  0
 27 26  2  0  0  0  0
 28 27  1  0  0  0  0
 28 33  1  0  0  0  0
 29 28  2  0  0  0  0
 30 31  2  0  0  0  0
 30 29  1  0  0  0  0
 31 32  1  0  0  0  0
 32 23  2  0  0  0  0
 32 27  1  0  0  0  0
 33 34  1  0  0  0  0
 34 37  1  0  0  0  0
 34 36  1  0  0  0  0
 35 33  2  0  0  0  0
M  END
>  <minimizedAffinity>
-9.47623253

$$$$
