
 OpenBabel10152419583D

 37 40  0  0  0  0  0  0  0  0999 V2000
    3.9360  -10.4720  -27.0330 C   0  0  0  0  0  0  0  0  0  0  0  0
    4.7220  -11.2970  -26.2310 C   0  0  0  0  0  3  0  0  0  0  0  0
    4.1190  -12.2920  -25.4680 C   0  0  0  0  0  3  0  0  0  0  0  0
    2.7390  -12.4880  -25.5410 C   0  0  0  0  0  3  0  0  0  0  0  0
    1.9430  -11.7520  -26.4330 C   0  0  0  0  0  0  0  0  0  0  0  0
    2.5680  -10.7440  -27.1790 C   0  0  0  0  0  3  0  0  0  0  0  0
    4.0420   -8.1220  -27.9230 C   0  0  0  0  0  0  0  0  0  0  0  0
    4.6230   -7.3490  -28.6810 O   0  0  0  0  0  0  0  0  0  0  0  0
    4.5610   -9.3710  -27.6470 N   0  0  0  0  0  0  0  0  0  0  0  0
    5.5440   -9.4560  -27.8810 H   0  0  0  0  0  0  0  0  0  0  0  0
    0.6520   -6.5870  -25.8170 C   0  0  0  0  0  0  0  0  0  0  0  0
    1.5800   -7.4150  -25.1700 C   0  0  0  0  0  3  0  0  0  0  0  0
    2.6610   -7.9620  -25.8660 C   0  0  0  0  0  3  0  0  0  0  0  0
    2.8200   -7.6660  -27.2190 C   0  0  0  0  0  0  0  0  0  0  0  0
    1.8530   -6.9050  -27.8900 C   0  0  0  0  0  3  0  0  0  0  0  0
    0.7770   -6.3590  -27.1870 C   0  0  0  0  0  3  0  0  0  0  0  0
   -0.3100   -6.0660  -24.9990 O   0  0  0  0  0  0  0  0  0  0  0  0
   -1.2140   -5.8480  -22.7430 C   0  0  0  0  0  1  0  0  0  0  0  0
    0.0170   -5.7900  -23.6360 C   0  0  0  0  0  2  0  0  0  0  0  0
    0.4390  -11.9580  -26.5430 C   0  0  0  0  0  2  0  0  0  0  0  0
   -0.1670  -12.2810  -25.2630 N   0  0  0  0  0  0  0  0  0  0  0  0
    0.1540  -13.0940  -24.7640 H   0  0  0  0  0  0  0  0  0  0  0  0
   -0.9810  -11.3430  -24.6480 C   0  0  0  0  0  0  0  0  0  0  0  0
   -1.3210  -10.2710  -25.3840 N   0  0  0  0  0  0  0  0  0  0  0  0
   -1.8240   -9.2260  -24.7310 C   0  0  0  0  0  3  0  0  0  0  0  0
   -1.9310   -9.1190  -23.4070 N   0  0  0  0  0  0  0  0  0  0  0  0
   -1.6230  -10.2010  -22.6650 C   0  0  0  0  0  0  0  0  0  0  0  0
   -1.6640  -10.1620  -21.2650 C   0  0  0  0  0  0  0  0  0  0  0  0
   -1.4320  -11.2920  -20.4670 C   0  0  0  0  0  3  0  0  0  0  0  0
   -1.0820  -12.4910  -21.0640 C   0  0  0  0  0  3  0  0  0  0  0  0
   -0.9360  -12.5380  -22.4470 C   0  0  0  0  0  3  0  0  0  0  0  0
   -1.1980  -11.4000  -23.2570 C   0  0  0  0  0  0  0  0  0  0  0  0
   -1.8440   -8.8840  -20.5440 C   0  0  0  0  0  0  0  0  0  0  0  0
   -2.9940   -8.1980  -20.8230 N   0  0  0  0  0  0  0  0  0  0  0  0
   -0.9630   -8.4180  -19.8340 O   0  0  0  0  0  0  0  0  0  0  0  0
   -3.1360   -7.2980  -20.3850 H   0  0  0  0  0  0  0  0  0  0  0  0
   -3.7270   -8.5810  -21.4050 H   0  0  0  0  0  0  0  0  0  0  0  0
  1  2  1  0  0  0  0
  2  3  2  0  0  0  0
  4  3  1  0  0  0  0
  5  4  2  0  0  0  0
  6  1  2  0  0  0  0
  6  5  1  0  0  0  0
  7  9  1  0  0  0  0
  7 14  1  0  0  0  0
  8  7  2  0  0  0  0
  9  1  1  0  0  0  0
 10  9  1  0  0  0  0
 11 12  1  0  0  0  0
 11 17  1  0  0  0  0
 13 12  2  0  0  0  0
 14 13  1  0  0  0  0
 15 14  2  0  0  0  0
 15 16  1  0  0  0  0
 16 11  2  0  0  0  0
 17 19  1  0  0  0  0
 19 18  1  0  0  0  0
 20  5  1  0  0  0  0
 20 21  1  0  0  0  0
 21 22  1  0  0  0  0
 21 23  1  0  0  0  0
 23 32  1  0  0  0  0
 24 25  1  0  0  0  0
 24 23  2  0  0  0  0
 25 26  2  0  0  0  0
 26 27  1  0  0  0  0
 27 28  1  0  0  0  0
 28 33  1  0  0  0  0
 28 29  2  0  0  0  0
 30 29  1  0  0  0  0
 31 30  2  0  0  0  0
 32 27  2  0  0  0  0
 32 31  1  0  0  0  0
 33 35  2  0  0  0  0
 34 33  1  0  0  0  0
 34 36  1  0  0  0  0
 37 34  1  0  0  0  0
M  END
>  <minimizedAffinity>
-9.03934956

$$$$
