
 OpenBabel10152419583D

 37 40  0  0  0  0  0  0  0  0999 V2000
    0.2840  -12.7100  -23.0430 C   0  0  0  0  0  0  0  0  0  0  0  0
    1.4080  -12.9590  -22.2560 C   0  0  0  0  0  3  0  0  0  0  0  0
    2.6750  -12.9000  -22.8270 C   0  0  0  0  0  3  0  0  0  0  0  0
    2.8190  -12.5520  -24.1720 C   0  0  0  0  0  3  0  0  0  0  0  0
    1.7140  -12.1770  -24.9510 C   0  0  0  0  0  0  0  0  0  0  0  0
    0.4460  -12.2590  -24.3610 C   0  0  0  0  0  3  0  0  0  0  0  0
   -1.8180  -12.0730  -21.8170 C   0  0  0  0  0  0  0  0  0  0  0  0
   -2.7710  -12.4810  -21.1590 O   0  0  0  0  0  0  0  0  0  0  0  0
   -0.9790  -12.9520  -22.4720 N   0  0  0  0  0  0  0  0  0  0  0  0
   -1.3800  -13.8760  -22.5880 H   0  0  0  0  0  0  0  0  0  0  0  0
   -1.5370   -7.8360  -22.3150 C   0  0  0  0  0  0  0  0  0  0  0  0
   -1.6170   -8.6820  -23.4290 C   0  0  0  0  0  3  0  0  0  0  0  0
   -1.6570  -10.0700  -23.2740 C   0  0  0  0  0  3  0  0  0  0  0  0
   -1.6280  -10.6140  -21.9920 C   0  0  0  0  0  0  0  0  0  0  0  0
   -1.4660   -9.7790  -20.8780 C   0  0  0  0  0  3  0  0  0  0  0  0
   -1.4310   -8.3910  -21.0400 C   0  0  0  0  0  3  0  0  0  0  0  0
   -1.5790   -6.5030  -22.6110 O   0  0  0  0  0  0  0  0  0  0  0  0
   -0.6800   -5.0870  -24.3830 C   0  0  0  0  0  1  0  0  0  0  0  0
   -0.4010   -5.8660  -23.1060 C   0  0  0  0  0  2  0  0  0  0  0  0
    1.8460  -11.7770  -26.4150 C   0  0  0  0  0  2  0  0  0  0  0  0
    2.9170  -10.8190  -26.6280 N   0  0  0  0  0  0  0  0  0  0  0  0
    3.7350  -11.1090  -27.1370 H   0  0  0  0  0  0  0  0  0  0  0  0
    2.6860   -9.4800  -26.3540 C   0  0  0  0  0  0  0  0  0  0  0  0
    2.0940   -9.2030  -25.1790 N   0  0  0  0  0  0  0  0  0  0  0  0
    1.5830   -7.9830  -25.0350 C   0  0  0  0  0  3  0  0  0  0  0  0
    1.5270   -7.0500  -25.9840 N   0  0  0  0  0  0  0  0  0  0  0  0
    2.1470   -7.3070  -27.1520 C   0  0  0  0  0  0  0  0  0  0  0  0
    2.0990   -6.4010  -28.2190 C   0  0  0  0  0  0  0  0  0  0  0  0
    2.8030   -6.6010  -29.4160 C   0  0  0  0  0  3  0  0  0  0  0  0
    3.5290   -7.7660  -29.5980 C   0  0  0  0  0  3  0  0  0  0  0  0
    3.5150   -8.7310  -28.5960 C   0  0  0  0  0  3  0  0  0  0  0  0
    2.8250   -8.5160  -27.3720 C   0  0  0  0  0  0  0  0  0  0  0  0
    1.2020   -5.2280  -28.1820 C   0  0  0  0  0  0  0  0  0  0  0  0
    1.7910   -4.0180  -28.4270 N   0  0  0  0  0  0  0  0  0  0  0  0
    0.0320   -5.3240  -27.8370 O   0  0  0  0  0  0  0  0  0  0  0  0
    1.2220   -3.1840  -28.3680 H   0  0  0  0  0  0  0  0  0  0  0  0
    2.7560   -3.9320  -28.7170 H   0  0  0  0  0  0  0  0  0  0  0  0
  1  9  1  0  0  0  0
  1  2  1  0  0  0  0
  3  2  2  0  0  0  0
  4  3  1  0  0  0  0
  5  6  1  0  0  0  0
  5  4  2  0  0  0  0
  6  1  2  0  0  0  0
  7  8  2  0  0  0  0
  9  7  1  0  0  0  0
 10  9  1  0  0  0  0
 11 16  1  0  0  0  0
 12 13  1  0  0  0  0
 12 11  2  0  0  0  0
 13 14  2  0  0  0  0
 14  7  1  0  0  0  0
 14 15  1  0  0  0  0
 16 15  2  0  0  0  0
 17 11  1  0  0  0  0
 18 19  1  0  0  0  0
 19 17  1  0  0  0  0
 20  5  1  0  0  0  0
 21 20  1  0  0  0  0
 21 23  1  0  0  0  0
 22 21  1  0  0  0  0
 23 24  1  0  0  0  0
 24 25  2  0  0  0  0
 26 25  1  0  0  0  0
 27 26  2  0  0  0  0
 28 33  1  0  0  0  0
 28 27  1  0  0  0  0
 29 28  2  0  0  0  0
 30 29  1  0  0  0  0
 30 31  2  0  0  0  0
 31 32  1  0  0  0  0
 32 27  1  0  0  0  0
 32 23  2  0  0  0  0
 33 35  2  0  0  0  0
 34 36  1  0  0  0  0
 34 33  1  0  0  0  0
 37 34  1  0  0  0  0
M  END
>  <minimizedAffinity>
-7.55307722

$$$$
