
 OpenBabel10152419583D

 37 40  0  0  0  0  0  0  0  0999 V2000
   -1.4840  -10.6540  -21.2020 C   0  0  0  0  0  0  0  0  0  0  0  0
   -1.1680  -11.8460  -20.5520 C   0  0  0  0  0  3  0  0  0  0  0  0
   -0.5770  -12.8830  -21.2660 C   0  0  0  0  0  3  0  0  0  0  0  0
   -0.2650  -12.7130  -22.6160 C   0  0  0  0  0  3  0  0  0  0  0  0
   -0.4610  -11.4820  -23.2610 C   0  0  0  0  0  0  0  0  0  0  0  0
   -1.0720  -10.4560  -22.5280 C   0  0  0  0  0  3  0  0  0  0  0  0
   -2.4590   -8.3730  -20.7880 C   0  0  0  0  0  0  0  0  0  0  0  0
   -2.9290   -7.6070  -19.9510 O   0  0  0  0  0  0  0  0  0  0  0  0
   -2.2370   -9.7020  -20.4900 N   0  0  0  0  0  0  0  0  0  0  0  0
   -2.7440  -10.0180  -19.6710 H   0  0  0  0  0  0  0  0  0  0  0  0
   -1.6210   -7.1760  -24.8070 C   0  0  0  0  0  0  0  0  0  0  0  0
   -0.8110   -6.7420  -23.7490 C   0  0  0  0  0  3  0  0  0  0  0  0
   -1.1100   -7.0880  -22.4290 C   0  0  0  0  0  3  0  0  0  0  0  0
   -2.2230   -7.8840  -22.1670 C   0  0  0  0  0  0  0  0  0  0  0  0
   -3.0820   -8.2530  -23.2110 C   0  0  0  0  0  3  0  0  0  0  0  0
   -2.7750   -7.9080  -24.5300 C   0  0  0  0  0  3  0  0  0  0  0  0
   -1.1690   -6.8250  -26.0470 O   0  0  0  0  0  0  0  0  0  0  0  0
    0.3700   -5.5760  -27.4700 C   0  0  0  0  0  1  0  0  0  0  0  0
   -0.4790   -5.5850  -26.2080 C   0  0  0  0  0  2  0  0  0  0  0  0
   -0.1140  -11.2660  -24.7280 C   0  0  0  0  0  2  0  0  0  0  0  0
    1.3030  -11.4410  -24.9900 N   0  0  0  0  0  0  0  0  0  0  0  0
    1.6690  -12.3740  -25.0790 H   0  0  0  0  0  0  0  0  0  0  0  0
    2.0610  -10.3410  -25.3570 C   0  0  0  0  0  0  0  0  0  0  0  0
    1.7950   -9.1900  -24.7150 N   0  0  0  0  0  0  0  0  0  0  0  0
    2.2730   -8.0730  -25.2560 C   0  0  0  0  0  3  0  0  0  0  0  0
    2.9110   -7.9900  -26.4240 N   0  0  0  0  0  0  0  0  0  0  0  0
    3.2100   -9.1410  -27.0560 C   0  0  0  0  0  0  0  0  0  0  0  0
    3.8380   -9.1440  -28.3090 C   0  0  0  0  0  0  0  0  0  0  0  0
    4.2390  -10.3240  -28.9530 C   0  0  0  0  0  3  0  0  0  0  0  0
    3.9540  -11.5500  -28.3780 C   0  0  0  0  0  3  0  0  0  0  0  0
    3.2430  -11.5840  -27.1820 C   0  0  0  0  0  3  0  0  0  0  0  0
    2.8620  -10.3880  -26.5140 C   0  0  0  0  0  0  0  0  0  0  0  0
    4.0100   -7.8940  -29.0770 C   0  0  0  0  0  0  0  0  0  0  0  0
    4.6750   -6.8850  -28.4350 N   0  0  0  0  0  0  0  0  0  0  0  0
    3.4870   -7.7350  -30.1710 O   0  0  0  0  0  0  0  0  0  0  0  0
    4.7760   -5.9980  -28.9080 H   0  0  0  0  0  0  0  0  0  0  0  0
    5.1130   -7.0120  -27.5330 H   0  0  0  0  0  0  0  0  0  0  0  0
  1  2  1  0  0  0  0
  1  9  1  0  0  0  0
  3  2  2  0  0  0  0
  4  3  1  0  0  0  0
  5  4  2  0  0  0  0
  5  6  1  0  0  0  0
  6  1  2  0  0  0  0
  7  9  1  0  0  0  0
  7  8  2  0  0  0  0
  9 10  1  0  0  0  0
 11 16  2  0  0  0  0
 11 12  1  0  0  0  0
 12 13  2  0  0  0  0
 13 14  1  0  0  0  0
 14  7  1  0  0  0  0
 15 14  2  0  0  0  0
 16 15  1  0  0  0  0
 17 11  1  0  0  0  0
 18 19  1  0  0  0  0
 19 17  1  0  0  0  0
 20  5  1  0  0  0  0
 21 20  1  0  0  0  0
 22 21  1  0  0  0  0
 23 21  1  0  0  0  0
 23 24  1  0  0  0  0
 25 24  2  0  0  0  0
 26 25  1  0  0  0  0
 27 32  1  0  0  0  0
 27 26  2  0  0  0  0
 28 27  1  0  0  0  0
 29 30  1  0  0  0  0
 29 28  2  0  0  0  0
 30 31  2  0  0  0  0
 31 32  1  0  0  0  0
 32 23  2  0  0  0  0
 33 34  1  0  0  0  0
 33 28  1  0  0  0  0
 34 37  1  0  0  0  0
 35 33  2  0  0  0  0
 36 34  1  0  0  0  0
M  END
>  <minimizedAffinity>
-9.09903622

$$$$
