
 OpenBabel10152419583D

 37 40  0  0  0  0  0  0  0  0999 V2000
    1.1140  -11.5620  -25.9340 C   0  0  0  0  0  0  0  0  0  0  0  0
    1.2930  -12.5210  -24.9380 C   0  0  0  0  0  3  0  0  0  0  0  0
    2.5810  -12.9060  -24.5780 C   0  0  0  0  0  3  0  0  0  0  0  0
    3.6850  -12.3030  -25.1830 C   0  0  0  0  0  3  0  0  0  0  0  0
    3.5320  -11.2510  -26.0980 C   0  0  0  0  0  0  0  0  0  0  0  0
    2.2270  -10.8900  -26.4590 C   0  0  0  0  0  3  0  0  0  0  0  0
   -1.3300  -11.0380  -25.6580 C   0  0  0  0  0  0  0  0  0  0  0  0
   -2.4470  -11.1080  -26.1650 O   0  0  0  0  0  0  0  0  0  0  0  0
   -0.1970  -11.3330  -26.3890 N   0  0  0  0  0  0  0  0  0  0  0  0
   -0.3540  -11.3210  -27.3910 H   0  0  0  0  0  0  0  0  0  0  0  0
   -1.2030   -9.5390  -21.6560 C   0  0  0  0  0  0  0  0  0  0  0  0
   -1.0480   -8.6740  -22.7480 C   0  0  0  0  0  3  0  0  0  0  0  0
   -1.0370   -9.1650  -24.0550 C   0  0  0  0  0  3  0  0  0  0  0  0
   -1.1940  -10.5320  -24.2710 C   0  0  0  0  0  0  0  0  0  0  0  0
   -1.2690  -11.4120  -23.1820 C   0  0  0  0  0  3  0  0  0  0  0  0
   -1.2830  -10.9130  -21.8770 C   0  0  0  0  0  3  0  0  0  0  0  0
   -1.2680   -8.9140  -20.4430 O   0  0  0  0  0  0  0  0  0  0  0  0
   -3.4260   -8.0950  -21.2360 C   0  0  0  0  0  1  0  0  0  0  0  0
   -2.3130   -7.9690  -20.2070 C   0  0  0  0  0  2  0  0  0  0  0  0
    4.7200  -10.5660  -26.7590 C   0  0  0  0  0  2  0  0  0  0  0  0
    4.6270   -9.1180  -26.6930 N   0  0  0  0  0  0  0  0  0  0  0  0
    5.3370   -8.6070  -26.1960 H   0  0  0  0  0  0  0  0  0  0  0  0
    3.7220   -8.4640  -27.5130 C   0  0  0  0  0  0  0  0  0  0  0  0
    4.0750   -8.3230  -28.8030 N   0  0  0  0  0  0  0  0  0  0  0  0
    3.3880   -7.4410  -29.5230 C   0  0  0  0  0  3  0  0  0  0  0  0
    2.4450   -6.6240  -29.0540 N   0  0  0  0  0  0  0  0  0  0  0  0
    2.0620   -6.7820  -27.7720 C   0  0  0  0  0  0  0  0  0  0  0  0
    1.1120   -5.9370  -27.1850 C   0  0  0  0  0  0  0  0  0  0  0  0
    0.6300   -6.1280  -25.8810 C   0  0  0  0  0  3  0  0  0  0  0  0
    1.1490   -7.1460  -25.1010 C   0  0  0  0  0  3  0  0  0  0  0  0
    2.1670   -7.9410  -25.6200 C   0  0  0  0  0  3  0  0  0  0  0  0
    2.6350   -7.7660  -26.9510 C   0  0  0  0  0  0  0  0  0  0  0  0
    0.6450   -4.7190  -27.8780 C   0  0  0  0  0  0  0  0  0  0  0  0
    1.6220   -3.9220  -28.4080 N   0  0  0  0  0  0  0  0  0  0  0  0
   -0.5330   -4.3880  -27.8720 O   0  0  0  0  0  0  0  0  0  0  0  0
    1.3480   -3.0560  -28.8530 H   0  0  0  0  0  0  0  0  0  0  0  0
    2.5960   -4.1920  -28.4200 H   0  0  0  0  0  0  0  0  0  0  0  0
  1  2  1  0  0  0  0
  2  3  2  0  0  0  0
  4  3  1  0  0  0  0
  5  4  2  0  0  0  0
  6  5  1  0  0  0  0
  6  1  2  0  0  0  0
  7 14  1  0  0  0  0
  8  7  2  0  0  0  0
  9  1  1  0  0  0  0
  9  7  1  0  0  0  0
 10  9  1  0  0  0  0
 11 17  1  0  0  0  0
 12 11  2  0  0  0  0
 13 12  1  0  0  0  0
 14 13  2  0  0  0  0
 14 15  1  0  0  0  0
 15 16  2  0  0  0  0
 16 11  1  0  0  0  0
 17 19  1  0  0  0  0
 18 19  1  0  0  0  0
 20 21  1  0  0  0  0
 20  5  1  0  0  0  0
 21 22  1  0  0  0  0
 23 32  1  0  0  0  0
 23 21  1  0  0  0  0
 24 23  2  0  0  0  0
 25 26  2  0  0  0  0
 25 24  1  0  0  0  0
 26 27  1  0  0  0  0
 27 28  2  0  0  0  0
 27 32  1  0  0  0  0
 28 29  1  0  0  0  0
 29 30  2  0  0  0  0
 31 30  1  0  0  0  0
 32 31  2  0  0  0  0
 33 35  2  0  0  0  0
 33 28  1  0  0  0  0
 34 33  1  0  0  0  0
 36 34  1  0  0  0  0
 37 34  1  0  0  0  0
M  END
>  <minimizedAffinity>
-7.77502441

$$$$
