
 OpenBabel10152419583D

 37 40  0  0  0  0  0  0  0  0999 V2000
    3.0380   -8.8120  -26.8310 C   0  0  0  0  0  0  0  0  0  0  0  0
    2.8860   -7.9990  -25.7090 C   0  0  0  0  0  3  0  0  0  0  0  0
    2.3630   -8.5350  -24.5370 C   0  0  0  0  0  3  0  0  0  0  0  0
    2.0330   -9.8900  -24.4750 C   0  0  0  0  0  3  0  0  0  0  0  0
    2.2910  -10.7550  -25.5510 C   0  0  0  0  0  0  0  0  0  0  0  0
    2.8020  -10.1910  -26.7270 C   0  0  0  0  0  3  0  0  0  0  0  0
    2.7310   -7.2160  -28.7500 C   0  0  0  0  0  0  0  0  0  0  0  0
    3.0420   -6.9500  -29.9080 O   0  0  0  0  0  0  0  0  0  0  0  0
    3.4010   -8.1920  -28.0410 N   0  0  0  0  0  0  0  0  0  0  0  0
    4.2990   -8.4350  -28.4460 H   0  0  0  0  0  0  0  0  0  0  0  0
   -0.4040   -4.8710  -27.0330 C   0  0  0  0  0  0  0  0  0  0  0  0
    0.7150   -4.2540  -27.6080 C   0  0  0  0  0  3  0  0  0  0  0  0
    1.7670   -5.0160  -28.1240 C   0  0  0  0  0  3  0  0  0  0  0  0
    1.6900   -6.4060  -28.0740 C   0  0  0  0  0  0  0  0  0  0  0  0
    0.6120   -7.0280  -27.4290 C   0  0  0  0  0  3  0  0  0  0  0  0
   -0.4380   -6.2600  -26.9190 C   0  0  0  0  0  3  0  0  0  0  0  0
   -1.3860   -4.0070  -26.6370 O   0  0  0  0  0  0  0  0  0  0  0  0
   -1.3380   -2.0460  -25.1860 C   0  0  0  0  0  1  0  0  0  0  0  0
   -1.0960   -2.6100  -26.5780 C   0  0  0  0  0  2  0  0  0  0  0  0
    1.9550  -12.2390  -25.5030 C   0  0  0  0  0  2  0  0  0  0  0  0
    0.5860  -12.5060  -25.9080 N   0  0  0  0  0  0  0  0  0  0  0  0
    0.3730  -13.3800  -26.3580 H   0  0  0  0  0  0  0  0  0  0  0  0
   -0.4260  -11.6780  -25.4470 C   0  0  0  0  0  0  0  0  0  0  0  0
   -0.8850  -10.7560  -26.3110 N   0  0  0  0  0  0  0  0  0  0  0  0
   -1.6130   -9.7650  -25.8040 C   0  0  0  0  0  3  0  0  0  0  0  0
   -1.8460   -9.5590  -24.5080 N   0  0  0  0  0  0  0  0  0  0  0  0
   -1.4180  -10.4960  -23.6390 C   0  0  0  0  0  0  0  0  0  0  0  0
   -1.5800  -10.3380  -22.2570 C   0  0  0  0  0  0  0  0  0  0  0  0
   -1.2230  -11.3320  -21.3330 C   0  0  0  0  0  3  0  0  0  0  0  0
   -0.6230  -12.4970  -21.7780 C   0  0  0  0  0  3  0  0  0  0  0  0
   -0.3570  -12.6410  -23.1360 C   0  0  0  0  0  3  0  0  0  0  0  0
   -0.7440  -11.6470  -24.0760 C   0  0  0  0  0  0  0  0  0  0  0  0
   -2.0380   -9.0550  -21.6860 C   0  0  0  0  0  0  0  0  0  0  0  0
   -1.2750   -7.9600  -21.9880 N   0  0  0  0  0  0  0  0  0  0  0  0
   -2.9720   -8.9990  -20.8980 O   0  0  0  0  0  0  0  0  0  0  0  0
   -1.5270   -7.0700  -21.5820 H   0  0  0  0  0  0  0  0  0  0  0  0
   -0.5050   -7.9990  -22.6420 H   0  0  0  0  0  0  0  0  0  0  0  0
  1  6  2  0  0  0  0
  1  2  1  0  0  0  0
  2  3  2  0  0  0  0
  3  4  1  0  0  0  0
  5 20  1  0  0  0  0
  5  4  2  0  0  0  0
  6  5  1  0  0  0  0
  7 14  1  0  0  0  0
  7  9  1  0  0  0  0
  8  7  2  0  0  0  0
  9  1  1  0  0  0  0
 10  9  1  0  0  0  0
 11 16  1  0  0  0  0
 11 17  1  0  0  0  0
 12 11  2  0  0  0  0
 13 14  2  0  0  0  0
 13 12  1  0  0  0  0
 14 15  1  0  0  0  0
 15 16  2  0  0  0  0
 17 19  1  0  0  0  0
 19 18  1  0  0  0  0
 21 20  1  0  0  0  0
 21 23  1  0  0  0  0
 22 21  1  0  0  0  0
 23 32  1  0  0  0  0
 24 25  1  0  0  0  0
 24 23  2  0  0  0  0
 25 26  2  0  0  0  0
 26 27  1  0  0  0  0
 27 28  1  0  0  0  0
 28 33  1  0  0  0  0
 28 29  2  0  0  0  0
 30 29  1  0  0  0  0
 31 30  2  0  0  0  0
 32 27  2  0  0  0  0
 32 31  1  0  0  0  0
 33 35  2  0  0  0  0
 34 33  1  0  0  0  0
 34 36  1  0  0  0  0
 37 34  1  0  0  0  0
M  END
>  <minimizedAffinity>
-9.30703926

$$$$
