
 OpenBabel10152419583D

 37 40  0  0  0  0  0  0  0  0999 V2000
    1.6870   -6.2610  -28.2340 C   0  0  0  0  0  0  0  0  0  0  0  0
    1.3450   -4.9470  -27.9180 C   0  0  0  0  0  3  0  0  0  0  0  0
    0.3670   -4.7030  -26.9590 C   0  0  0  0  0  3  0  0  0  0  0  0
   -0.2360   -5.7690  -26.2890 C   0  0  0  0  0  3  0  0  0  0  0  0
    0.1790   -7.0930  -26.5010 C   0  0  0  0  0  0  0  0  0  0  0  0
    1.1530   -7.3180  -27.4830 C   0  0  0  0  0  3  0  0  0  0  0  0
    3.6300   -7.3160  -29.4340 C   0  0  0  0  0  0  0  0  0  0  0  0
    4.4320   -7.2070  -30.3570 O   0  0  0  0  0  0  0  0  0  0  0  0
    2.5470   -6.4660  -29.3290 N   0  0  0  0  0  0  0  0  0  0  0  0
    2.3370   -5.9780  -30.1920 H   0  0  0  0  0  0  0  0  0  0  0  0
    4.3010  -10.5720  -26.7450 C   0  0  0  0  0  0  0  0  0  0  0  0
    3.8840  -10.8080  -28.0620 C   0  0  0  0  0  3  0  0  0  0  0  0
    3.6140   -9.7470  -28.9290 C   0  0  0  0  0  3  0  0  0  0  0  0
    3.7730   -8.4390  -28.4770 C   0  0  0  0  0  0  0  0  0  0  0  0
    4.1110   -8.1950  -27.1390 C   0  0  0  0  0  3  0  0  0  0  0  0
    4.3840   -9.2610  -26.2780 C   0  0  0  0  0  3  0  0  0  0  0  0
    4.6000  -11.7000  -26.0350 O   0  0  0  0  0  0  0  0  0  0  0  0
    3.7450  -12.9140  -24.0990 C   0  0  0  0  0  1  0  0  0  0  0  0
    3.5320  -12.5170  -25.5520 C   0  0  0  0  0  2  0  0  0  0  0  0
   -0.4510   -8.2710  -25.7710 C   0  0  0  0  0  2  0  0  0  0  0  0
   -0.2180   -8.2190  -24.3390 N   0  0  0  0  0  0  0  0  0  0  0  0
    0.4720   -7.5810  -23.9810 H   0  0  0  0  0  0  0  0  0  0  0  0
   -1.1120   -8.8510  -23.4880 C   0  0  0  0  0  0  0  0  0  0  0  0
   -2.0020   -8.0630  -22.8610 N   0  0  0  0  0  0  0  0  0  0  0  0
   -2.6460   -8.5880  -21.8230 C   0  0  0  0  0  3  0  0  0  0  0  0
   -2.4160   -9.7910  -21.2970 N   0  0  0  0  0  0  0  0  0  0  0  0
   -1.5500  -10.5990  -21.9390 C   0  0  0  0  0  0  0  0  0  0  0  0
   -1.2170  -11.8610  -21.4320 C   0  0  0  0  0  0  0  0  0  0  0  0
   -0.3860  -12.7600  -22.1180 C   0  0  0  0  0  3  0  0  0  0  0  0
    0.1930  -12.3780  -23.3160 C   0  0  0  0  0  3  0  0  0  0  0  0
   -0.0390  -11.0940  -23.7970 C   0  0  0  0  0  3  0  0  0  0  0  0
   -0.9040  -10.1940  -23.1170 C   0  0  0  0  0  0  0  0  0  0  0  0
   -1.6380  -12.2730  -20.0760 C   0  0  0  0  0  0  0  0  0  0  0  0
   -2.9700  -12.5440  -19.9210 N   0  0  0  0  0  0  0  0  0  0  0  0
   -0.8630  -12.2560  -19.1300 O   0  0  0  0  0  0  0  0  0  0  0  0
   -3.3080  -12.7860  -19.0000 H   0  0  0  0  0  0  0  0  0  0  0  0
   -3.6140  -12.5650  -20.7000 H   0  0  0  0  0  0  0  0  0  0  0  0
  1  2  2  0  0  0  0
  1  6  1  0  0  0  0
  2  3  1  0  0  0  0
  3  4  2  0  0  0  0
  5  4  1  0  0  0  0
  5 20  1  0  0  0  0
  6  5  2  0  0  0  0
  7  9  1  0  0  0  0
  7 14  1  0  0  0  0
  8  7  2  0  0  0  0
  9  1  1  0  0  0  0
 10  9  1  0  0  0  0
 11 16  1  0  0  0  0
 11 17  1  0  0  0  0
 12 11  2  0  0  0  0
 13 14  2  0  0  0  0
 13 12  1  0  0  0  0
 14 15  1  0  0  0  0
 15 16  2  0  0  0  0
 17 19  1  0  0  0  0
 19 18  1  0  0  0  0
 20 21  1  0  0  0  0
 21 22  1  0  0  0  0
 21 23  1  0  0  0  0
 23 32  2  0  0  0  0
 23 24  1  0  0  0  0
 24 25  2  0  0  0  0
 25 26  1  0  0  0  0
 27 28  1  0  0  0  0
 27 26  2  0  0  0  0
 28 33  1  0  0  0  0
 29 28  2  0  0  0  0
 30 29  1  0  0  0  0
 31 30  2  0  0  0  0
 31 32  1  0  0  0  0
 32 27  1  0  0  0  0
 33 34  1  0  0  0  0
 33 35  2  0  0  0  0
 34 36  1  0  0  0  0
 37 34  1  0  0  0  0
M  END
>  <minimizedAffinity>
-9.49857903

$$$$

 OpenBabel10152419583D

 37 40  0  0  0  0  0  0  0  0999 V2000
    2.7940  -10.6850  -26.0120 C   0  0  0  0  0  0  0  0  0  0  0  0
    2.2080  -11.1160  -27.2010 C   0  0  0  0  0  3  0  0  0  0  0  0
    1.3260  -12.1920  -27.1830 C   0  0  0  0  0  3  0  0  0  0  0  0
    1.0000  -12.8070  -25.9730 C   0  0  0  0  0  3  0  0  0  0  0  0
    1.4810  -12.3130  -24.7500 C   0  0  0  0  0  0  0  0  0  0  0  0
    2.3800  -11.2400  -24.7930 C   0  0  0  0  0  3  0  0  0  0  0  0
    3.7160   -8.3950  -26.4930 C   0  0  0  0  0  0  0  0  0  0  0  0
    4.7220   -7.7400  -26.7560 O   0  0  0  0  0  0  0  0  0  0  0  0
    3.8100   -9.7150  -26.1000 N   0  0  0  0  0  0  0  0  0  0  0  0
    4.7380   -9.9730  -25.7870 H   0  0  0  0  0  0  0  0  0  0  0  0
    0.0270   -6.2330  -26.4740 C   0  0  0  0  0  0  0  0  0  0  0  0
    0.5480   -6.7660  -25.2870 C   0  0  0  0  0  3  0  0  0  0  0  0
    1.7260   -7.5170  -25.2950 C   0  0  0  0  0  3  0  0  0  0  0  0
    2.3930   -7.7260  -26.5010 C   0  0  0  0  0  0  0  0  0  0  0  0
    1.8360   -7.2650  -27.7010 C   0  0  0  0  0  3  0  0  0  0  0  0
    0.6590   -6.5110  -27.6850 C   0  0  0  0  0  3  0  0  0  0  0  0
   -1.0870   -5.4610  -26.3060 O   0  0  0  0  0  0  0  0  0  0  0  0
    0.0780   -3.4900  -27.1480 C   0  0  0  0  0  1  0  0  0  0  0  0
   -0.9350   -4.0480  -26.1610 C   0  0  0  0  0  2  0  0  0  0  0  0
    1.1270  -12.9560  -23.4160 C   0  0  0  0  0  2  0  0  0  0  0  0
   -0.2800  -12.8050  -23.0890 N   0  0  0  0  0  0  0  0  0  0  0  0
   -0.9170  -13.5460  -23.3280 H   0  0  0  0  0  0  0  0  0  0  0  0
   -0.6680  -11.7770  -22.2440 C   0  0  0  0  0  0  0  0  0  0  0  0
   -0.7570  -12.0780  -20.9370 N   0  0  0  0  0  0  0  0  0  0  0  0
   -1.4180  -11.2200  -20.1640 C   0  0  0  0  0  3  0  0  0  0  0  0
   -2.0760  -10.1420  -20.5910 N   0  0  0  0  0  0  0  0  0  0  0  0
   -1.9640   -9.8150  -21.8930 C   0  0  0  0  0  0  0  0  0  0  0  0
   -2.6570   -8.7260  -22.4350 C   0  0  0  0  0  0  0  0  0  0  0  0
   -2.4960   -8.3090  -23.7650 C   0  0  0  0  0  3  0  0  0  0  0  0
   -1.6740   -9.0300  -24.6130 C   0  0  0  0  0  3  0  0  0  0  0  0
   -1.0480  -10.1760  -24.1320 C   0  0  0  0  0  3  0  0  0  0  0  0
   -1.1890  -10.5820  -22.7770 C   0  0  0  0  0  0  0  0  0  0  0  0
   -3.6930   -8.0180  -21.6540 C   0  0  0  0  0  0  0  0  0  0  0  0
   -3.3340   -7.6420  -20.3880 N   0  0  0  0  0  0  0  0  0  0  0  0
   -4.8350   -7.8850  -22.0730 O   0  0  0  0  0  0  0  0  0  0  0  0
   -4.0270   -7.1950  -19.8040 H   0  0  0  0  0  0  0  0  0  0  0  0
   -2.3920   -7.7450  -20.0380 H   0  0  0  0  0  0  0  0  0  0  0  0
  1  6  1  0  0  0  0
  2  3  1  0  0  0  0
  2  1  2  0  0  0  0
  3  4  2  0  0  0  0
  4  5  1  0  0  0  0
  5 20  1  0  0  0  0
  6  5  2  0  0  0  0
  7  9  1  0  0  0  0
  8  7  2  0  0  0  0
  9  1  1  0  0  0  0
  9 10  1  0  0  0  0
 11 17  1  0  0  0  0
 11 12  1  0  0  0  0
 13 12  2  0  0  0  0
 14  7  1  0  0  0  0
 14 13  1  0  0  0  0
 15 16  1  0  0  0  0
 15 14  2  0  0  0  0
 16 11  2  0  0  0  0
 17 19  1  0  0  0  0
 18 19  1  0  0  0  0
 20 21  1  0  0  0  0
 21 23  1  0  0  0  0
 22 21  1  0  0  0  0
 23 24  1  0  0  0  0
 24 25  2  0  0  0  0
 26 25  1  0  0  0  0
 27 26  2  0  0  0  0
 28 27  1  0  0  0  0
 28 33  1  0  0  0  0
 29 28  2  0  0  0  0
 30 31  2  0  0  0  0
 30 29  1  0  0  0  0
 31 32  1  0  0  0  0
 32 23  2  0  0  0  0
 32 27  1  0  0  0  0
 33 34  1  0  0  0  0
 34 37  1  0  0  0  0
 34 36  1  0  0  0  0
 35 33  2  0  0  0  0
M  END
>  <minimizedAffinity>
-9.47623253

$$$$

 OpenBabel10152419583D

 37 40  0  0  0  0  0  0  0  0999 V2000
    3.0380   -8.8120  -26.8310 C   0  0  0  0  0  0  0  0  0  0  0  0
    2.8860   -7.9990  -25.7090 C   0  0  0  0  0  3  0  0  0  0  0  0
    2.3630   -8.5350  -24.5370 C   0  0  0  0  0  3  0  0  0  0  0  0
    2.0330   -9.8900  -24.4750 C   0  0  0  0  0  3  0  0  0  0  0  0
    2.2910  -10.7550  -25.5510 C   0  0  0  0  0  0  0  0  0  0  0  0
    2.8020  -10.1910  -26.7270 C   0  0  0  0  0  3  0  0  0  0  0  0
    2.7310   -7.2160  -28.7500 C   0  0  0  0  0  0  0  0  0  0  0  0
    3.0420   -6.9500  -29.9080 O   0  0  0  0  0  0  0  0  0  0  0  0
    3.4010   -8.1920  -28.0410 N   0  0  0  0  0  0  0  0  0  0  0  0
    4.2990   -8.4350  -28.4460 H   0  0  0  0  0  0  0  0  0  0  0  0
   -0.4040   -4.8710  -27.0330 C   0  0  0  0  0  0  0  0  0  0  0  0
    0.7150   -4.2540  -27.6080 C   0  0  0  0  0  3  0  0  0  0  0  0
    1.7670   -5.0160  -28.1240 C   0  0  0  0  0  3  0  0  0  0  0  0
    1.6900   -6.4060  -28.0740 C   0  0  0  0  0  0  0  0  0  0  0  0
    0.6120   -7.0280  -27.4290 C   0  0  0  0  0  3  0  0  0  0  0  0
   -0.4380   -6.2600  -26.9190 C   0  0  0  0  0  3  0  0  0  0  0  0
   -1.3860   -4.0070  -26.6370 O   0  0  0  0  0  0  0  0  0  0  0  0
   -1.3380   -2.0460  -25.1860 C   0  0  0  0  0  1  0  0  0  0  0  0
   -1.0960   -2.6100  -26.5780 C   0  0  0  0  0  2  0  0  0  0  0  0
    1.9550  -12.2390  -25.5030 C   0  0  0  0  0  2  0  0  0  0  0  0
    0.5860  -12.5060  -25.9080 N   0  0  0  0  0  0  0  0  0  0  0  0
    0.3730  -13.3800  -26.3580 H   0  0  0  0  0  0  0  0  0  0  0  0
   -0.4260  -11.6780  -25.4470 C   0  0  0  0  0  0  0  0  0  0  0  0
   -0.8850  -10.7560  -26.3110 N   0  0  0  0  0  0  0  0  0  0  0  0
   -1.6130   -9.7650  -25.8040 C   0  0  0  0  0  3  0  0  0  0  0  0
   -1.8460   -9.5590  -24.5080 N   0  0  0  0  0  0  0  0  0  0  0  0
   -1.4180  -10.4960  -23.6390 C   0  0  0  0  0  0  0  0  0  0  0  0
   -1.5800  -10.3380  -22.2570 C   0  0  0  0  0  0  0  0  0  0  0  0
   -1.2230  -11.3320  -21.3330 C   0  0  0  0  0  3  0  0  0  0  0  0
   -0.6230  -12.4970  -21.7780 C   0  0  0  0  0  3  0  0  0  0  0  0
   -0.3570  -12.6410  -23.1360 C   0  0  0  0  0  3  0  0  0  0  0  0
   -0.7440  -11.6470  -24.0760 C   0  0  0  0  0  0  0  0  0  0  0  0
   -2.0380   -9.0550  -21.6860 C   0  0  0  0  0  0  0  0  0  0  0  0
   -1.2750   -7.9600  -21.9880 N   0  0  0  0  0  0  0  0  0  0  0  0
   -2.9720   -8.9990  -20.8980 O   0  0  0  0  0  0  0  0  0  0  0  0
   -1.5270   -7.0700  -21.5820 H   0  0  0  0  0  0  0  0  0  0  0  0
   -0.5050   -7.9990  -22.6420 H   0  0  0  0  0  0  0  0  0  0  0  0
  1  6  2  0  0  0  0
  1  2  1  0  0  0  0
  2  3  2  0  0  0  0
  3  4  1  0  0  0  0
  5 20  1  0  0  0  0
  5  4  2  0  0  0  0
  6  5  1  0  0  0  0
  7 14  1  0  0  0  0
  7  9  1  0  0  0  0
  8  7  2  0  0  0  0
  9  1  1  0  0  0  0
 10  9  1  0  0  0  0
 11 16  1  0  0  0  0
 11 17  1  0  0  0  0
 12 11  2  0  0  0  0
 13 14  2  0  0  0  0
 13 12  1  0  0  0  0
 14 15  1  0  0  0  0
 15 16  2  0  0  0  0
 17 19  1  0  0  0  0
 19 18  1  0  0  0  0
 21 20  1  0  0  0  0
 21 23  1  0  0  0  0
 22 21  1  0  0  0  0
 23 32  1  0  0  0  0
 24 25  1  0  0  0  0
 24 23  2  0  0  0  0
 25 26  2  0  0  0  0
 26 27  1  0  0  0  0
 27 28  1  0  0  0  0
 28 33  1  0  0  0  0
 28 29  2  0  0  0  0
 30 29  1  0  0  0  0
 31 30  2  0  0  0  0
 32 27  2  0  0  0  0
 32 31  1  0  0  0  0
 33 35  2  0  0  0  0
 34 33  1  0  0  0  0
 34 36  1  0  0  0  0
 37 34  1  0  0  0  0
M  END
>  <minimizedAffinity>
-9.30703926

$$$$

 OpenBabel10152419583D

 37 40  0  0  0  0  0  0  0  0999 V2000
   -1.4840  -10.6540  -21.2020 C   0  0  0  0  0  0  0  0  0  0  0  0
   -1.1680  -11.8460  -20.5520 C   0  0  0  0  0  3  0  0  0  0  0  0
   -0.5770  -12.8830  -21.2660 C   0  0  0  0  0  3  0  0  0  0  0  0
   -0.2650  -12.7130  -22.6160 C   0  0  0  0  0  3  0  0  0  0  0  0
   -0.4610  -11.4820  -23.2610 C   0  0  0  0  0  0  0  0  0  0  0  0
   -1.0720  -10.4560  -22.5280 C   0  0  0  0  0  3  0  0  0  0  0  0
   -2.4590   -8.3730  -20.7880 C   0  0  0  0  0  0  0  0  0  0  0  0
   -2.9290   -7.6070  -19.9510 O   0  0  0  0  0  0  0  0  0  0  0  0
   -2.2370   -9.7020  -20.4900 N   0  0  0  0  0  0  0  0  0  0  0  0
   -2.7440  -10.0180  -19.6710 H   0  0  0  0  0  0  0  0  0  0  0  0
   -1.6210   -7.1760  -24.8070 C   0  0  0  0  0  0  0  0  0  0  0  0
   -0.8110   -6.7420  -23.7490 C   0  0  0  0  0  3  0  0  0  0  0  0
   -1.1100   -7.0880  -22.4290 C   0  0  0  0  0  3  0  0  0  0  0  0
   -2.2230   -7.8840  -22.1670 C   0  0  0  0  0  0  0  0  0  0  0  0
   -3.0820   -8.2530  -23.2110 C   0  0  0  0  0  3  0  0  0  0  0  0
   -2.7750   -7.9080  -24.5300 C   0  0  0  0  0  3  0  0  0  0  0  0
   -1.1690   -6.8250  -26.0470 O   0  0  0  0  0  0  0  0  0  0  0  0
    0.3700   -5.5760  -27.4700 C   0  0  0  0  0  1  0  0  0  0  0  0
   -0.4790   -5.5850  -26.2080 C   0  0  0  0  0  2  0  0  0  0  0  0
   -0.1140  -11.2660  -24.7280 C   0  0  0  0  0  2  0  0  0  0  0  0
    1.3030  -11.4410  -24.9900 N   0  0  0  0  0  0  0  0  0  0  0  0
    1.6690  -12.3740  -25.0790 H   0  0  0  0  0  0  0  0  0  0  0  0
    2.0610  -10.3410  -25.3570 C   0  0  0  0  0  0  0  0  0  0  0  0
    1.7950   -9.1900  -24.7150 N   0  0  0  0  0  0  0  0  0  0  0  0
    2.2730   -8.0730  -25.2560 C   0  0  0  0  0  3  0  0  0  0  0  0
    2.9110   -7.9900  -26.4240 N   0  0  0  0  0  0  0  0  0  0  0  0
    3.2100   -9.1410  -27.0560 C   0  0  0  0  0  0  0  0  0  0  0  0
    3.8380   -9.1440  -28.3090 C   0  0  0  0  0  0  0  0  0  0  0  0
    4.2390  -10.3240  -28.9530 C   0  0  0  0  0  3  0  0  0  0  0  0
    3.9540  -11.5500  -28.3780 C   0  0  0  0  0  3  0  0  0  0  0  0
    3.2430  -11.5840  -27.1820 C   0  0  0  0  0  3  0  0  0  0  0  0
    2.8620  -10.3880  -26.5140 C   0  0  0  0  0  0  0  0  0  0  0  0
    4.0100   -7.8940  -29.0770 C   0  0  0  0  0  0  0  0  0  0  0  0
    4.6750   -6.8850  -28.4350 N   0  0  0  0  0  0  0  0  0  0  0  0
    3.4870   -7.7350  -30.1710 O   0  0  0  0  0  0  0  0  0  0  0  0
    4.7760   -5.9980  -28.9080 H   0  0  0  0  0  0  0  0  0  0  0  0
    5.1130   -7.0120  -27.5330 H   0  0  0  0  0  0  0  0  0  0  0  0
  1  2  1  0  0  0  0
  1  9  1  0  0  0  0
  3  2  2  0  0  0  0
  4  3  1  0  0  0  0
  5  4  2  0  0  0  0
  5  6  1  0  0  0  0
  6  1  2  0  0  0  0
  7  9  1  0  0  0  0
  7  8  2  0  0  0  0
  9 10  1  0  0  0  0
 11 16  2  0  0  0  0
 11 12  1  0  0  0  0
 12 13  2  0  0  0  0
 13 14  1  0  0  0  0
 14  7  1  0  0  0  0
 15 14  2  0  0  0  0
 16 15  1  0  0  0  0
 17 11  1  0  0  0  0
 18 19  1  0  0  0  0
 19 17  1  0  0  0  0
 20  5  1  0  0  0  0
 21 20  1  0  0  0  0
 22 21  1  0  0  0  0
 23 21  1  0  0  0  0
 23 24  1  0  0  0  0
 25 24  2  0  0  0  0
 26 25  1  0  0  0  0
 27 32  1  0  0  0  0
 27 26  2  0  0  0  0
 28 27  1  0  0  0  0
 29 30  1  0  0  0  0
 29 28  2  0  0  0  0
 30 31  2  0  0  0  0
 31 32  1  0  0  0  0
 32 23  2  0  0  0  0
 33 34  1  0  0  0  0
 33 28  1  0  0  0  0
 34 37  1  0  0  0  0
 35 33  2  0  0  0  0
 36 34  1  0  0  0  0
M  END
>  <minimizedAffinity>
-9.09903622

$$$$

 OpenBabel10152419583D

 37 40  0  0  0  0  0  0  0  0999 V2000
   -0.9580  -10.5210  -23.5030 C   0  0  0  0  0  0  0  0  0  0  0  0
   -1.6200  -10.6910  -24.7180 C   0  0  0  0  0  3  0  0  0  0  0  0
   -1.0040  -11.4020  -25.7430 C   0  0  0  0  0  3  0  0  0  0  0  0
    0.2520  -11.9760  -25.5390 C   0  0  0  0  0  3  0  0  0  0  0  0
    0.8840  -11.9220  -24.2870 C   0  0  0  0  0  0  0  0  0  0  0  0
    0.2540  -11.1880  -23.2730 C   0  0  0  0  0  3  0  0  0  0  0  0
   -1.5140   -8.2700  -22.5280 C   0  0  0  0  0  0  0  0  0  0  0  0
   -1.8490   -7.6560  -21.5190 O   0  0  0  0  0  0  0  0  0  0  0  0
   -1.5370   -9.6500  -22.5620 N   0  0  0  0  0  0  0  0  0  0  0  0
   -2.1000  -10.0580  -21.8240 H   0  0  0  0  0  0  0  0  0  0  0  0
   -0.7210   -5.9000  -25.9980 C   0  0  0  0  0  0  0  0  0  0  0  0
   -1.7410   -6.8620  -26.0080 C   0  0  0  0  0  3  0  0  0  0  0  0
   -1.9700   -7.6740  -24.8950 C   0  0  0  0  0  3  0  0  0  0  0  0
   -1.1800   -7.5140  -23.7590 C   0  0  0  0  0  0  0  0  0  0  0  0
   -0.1080   -6.6120  -23.7710 C   0  0  0  0  0  3  0  0  0  0  0  0
    0.1140   -5.7990  -24.8860 C   0  0  0  0  0  3  0  0  0  0  0  0
   -0.6580   -5.1290  -27.1240 O   0  0  0  0  0  0  0  0  0  0  0  0
    1.1600   -3.9690  -28.2650 C   0  0  0  0  0  1  0  0  0  0  0  0
    0.4490   -5.2900  -28.0120 C   0  0  0  0  0  2  0  0  0  0  0  0
    2.2460  -12.5540  -24.0330 C   0  0  0  0  0  2  0  0  0  0  0  0
    3.3280  -11.7750  -24.6100 N   0  0  0  0  0  0  0  0  0  0  0  0
    4.1430  -11.5870  -24.0510 H   0  0  0  0  0  0  0  0  0  0  0  0
    3.3280  -11.5290  -25.9740 C   0  0  0  0  0  0  0  0  0  0  0  0
    3.7390  -12.5370  -26.7630 N   0  0  0  0  0  0  0  0  0  0  0  0
    4.0450  -12.2300  -28.0210 C   0  0  0  0  0  3  0  0  0  0  0  0
    4.0680  -11.0000  -28.5350 N   0  0  0  0  0  0  0  0  0  0  0  0
    3.6260   -9.9900  -27.7600 C   0  0  0  0  0  0  0  0  0  0  0  0
    3.6580   -8.6620  -28.2040 C   0  0  0  0  0  0  0  0  0  0  0  0
    3.1280   -7.6000  -27.4560 C   0  0  0  0  0  3  0  0  0  0  0  0
    2.6070   -7.8410  -26.1970 C   0  0  0  0  0  3  0  0  0  0  0  0
    2.6510   -9.1350  -25.6870 C   0  0  0  0  0  3  0  0  0  0  0  0
    3.1620  -10.2160  -26.4550 C   0  0  0  0  0  0  0  0  0  0  0  0
    4.3630   -8.2920  -29.4490 C   0  0  0  0  0  0  0  0  0  0  0  0
    4.4710   -6.9520  -29.6980 N   0  0  0  0  0  0  0  0  0  0  0  0
    4.7210   -9.1360  -30.2590 O   0  0  0  0  0  0  0  0  0  0  0  0
    4.9070   -6.6560  -30.5610 H   0  0  0  0  0  0  0  0  0  0  0  0
    4.1810   -6.2500  -29.0300 H   0  0  0  0  0  0  0  0  0  0  0  0
  1  6  1  0  0  0  0
  1  9  1  0  0  0  0
  2  1  2  0  0  0  0
  3  4  2  0  0  0  0
  3  2  1  0  0  0  0
  4  5  1  0  0  0  0
  5 20  1  0  0  0  0
  5  6  2  0  0  0  0
  7  8  2  0  0  0  0
  9  7  1  0  0  0  0
  9 10  1  0  0  0  0
 11 16  1  0  0  0  0
 12 11  2  0  0  0  0
 12 13  1  0  0  0  0
 13 14  2  0  0  0  0
 14  7  1  0  0  0  0
 15 14  1  0  0  0  0
 16 15  2  0  0  0  0
 17 11  1  0  0  0  0
 18 19  1  0  0  0  0
 19 17  1  0  0  0  0
 21 22  1  0  0  0  0
 21 20  1  0  0  0  0
 23 21  1  0  0  0  0
 24 23  2  0  0  0  0
 25 24  1  0  0  0  0
 26 25  2  0  0  0  0
 26 27  1  0  0  0  0
 27 32  1  0  0  0  0
 28 27  2  0  0  0  0
 28 29  1  0  0  0  0
 29 30  2  0  0  0  0
 30 31  1  0  0  0  0
 32 23  1  0  0  0  0
 32 31  2  0  0  0  0
 33 28  1  0  0  0  0
 34 33  1  0  0  0  0
 34 37  1  0  0  0  0
 35 33  2  0  0  0  0
 36 34  1  0  0  0  0
M  END
>  <minimizedAffinity>
-9.08780861

$$$$

 OpenBabel10152419583D

 37 40  0  0  0  0  0  0  0  0999 V2000
    3.9360  -10.4720  -27.0330 C   0  0  0  0  0  0  0  0  0  0  0  0
    4.7220  -11.2970  -26.2310 C   0  0  0  0  0  3  0  0  0  0  0  0
    4.1190  -12.2920  -25.4680 C   0  0  0  0  0  3  0  0  0  0  0  0
    2.7390  -12.4880  -25.5410 C   0  0  0  0  0  3  0  0  0  0  0  0
    1.9430  -11.7520  -26.4330 C   0  0  0  0  0  0  0  0  0  0  0  0
    2.5680  -10.7440  -27.1790 C   0  0  0  0  0  3  0  0  0  0  0  0
    4.0420   -8.1220  -27.9230 C   0  0  0  0  0  0  0  0  0  0  0  0
    4.6230   -7.3490  -28.6810 O   0  0  0  0  0  0  0  0  0  0  0  0
    4.5610   -9.3710  -27.6470 N   0  0  0  0  0  0  0  0  0  0  0  0
    5.5440   -9.4560  -27.8810 H   0  0  0  0  0  0  0  0  0  0  0  0
    0.6520   -6.5870  -25.8170 C   0  0  0  0  0  0  0  0  0  0  0  0
    1.5800   -7.4150  -25.1700 C   0  0  0  0  0  3  0  0  0  0  0  0
    2.6610   -7.9620  -25.8660 C   0  0  0  0  0  3  0  0  0  0  0  0
    2.8200   -7.6660  -27.2190 C   0  0  0  0  0  0  0  0  0  0  0  0
    1.8530   -6.9050  -27.8900 C   0  0  0  0  0  3  0  0  0  0  0  0
    0.7770   -6.3590  -27.1870 C   0  0  0  0  0  3  0  0  0  0  0  0
   -0.3100   -6.0660  -24.9990 O   0  0  0  0  0  0  0  0  0  0  0  0
   -1.2140   -5.8480  -22.7430 C   0  0  0  0  0  1  0  0  0  0  0  0
    0.0170   -5.7900  -23.6360 C   0  0  0  0  0  2  0  0  0  0  0  0
    0.4390  -11.9580  -26.5430 C   0  0  0  0  0  2  0  0  0  0  0  0
   -0.1670  -12.2810  -25.2630 N   0  0  0  0  0  0  0  0  0  0  0  0
    0.1540  -13.0940  -24.7640 H   0  0  0  0  0  0  0  0  0  0  0  0
   -0.9810  -11.3430  -24.6480 C   0  0  0  0  0  0  0  0  0  0  0  0
   -1.3210  -10.2710  -25.3840 N   0  0  0  0  0  0  0  0  0  0  0  0
   -1.8240   -9.2260  -24.7310 C   0  0  0  0  0  3  0  0  0  0  0  0
   -1.9310   -9.1190  -23.4070 N   0  0  0  0  0  0  0  0  0  0  0  0
   -1.6230  -10.2010  -22.6650 C   0  0  0  0  0  0  0  0  0  0  0  0
   -1.6640  -10.1620  -21.2650 C   0  0  0  0  0  0  0  0  0  0  0  0
   -1.4320  -11.2920  -20.4670 C   0  0  0  0  0  3  0  0  0  0  0  0
   -1.0820  -12.4910  -21.0640 C   0  0  0  0  0  3  0  0  0  0  0  0
   -0.9360  -12.5380  -22.4470 C   0  0  0  0  0  3  0  0  0  0  0  0
   -1.1980  -11.4000  -23.2570 C   0  0  0  0  0  0  0  0  0  0  0  0
   -1.8440   -8.8840  -20.5440 C   0  0  0  0  0  0  0  0  0  0  0  0
   -2.9940   -8.1980  -20.8230 N   0  0  0  0  0  0  0  0  0  0  0  0
   -0.9630   -8.4180  -19.8340 O   0  0  0  0  0  0  0  0  0  0  0  0
   -3.1360   -7.2980  -20.3850 H   0  0  0  0  0  0  0  0  0  0  0  0
   -3.7270   -8.5810  -21.4050 H   0  0  0  0  0  0  0  0  0  0  0  0
  1  2  1  0  0  0  0
  2  3  2  0  0  0  0
  4  3  1  0  0  0  0
  5  4  2  0  0  0  0
  6  1  2  0  0  0  0
  6  5  1  0  0  0  0
  7  9  1  0  0  0  0
  7 14  1  0  0  0  0
  8  7  2  0  0  0  0
  9  1  1  0  0  0  0
 10  9  1  0  0  0  0
 11 12  1  0  0  0  0
 11 17  1  0  0  0  0
 13 12  2  0  0  0  0
 14 13  1  0  0  0  0
 15 14  2  0  0  0  0
 15 16  1  0  0  0  0
 16 11  2  0  0  0  0
 17 19  1  0  0  0  0
 19 18  1  0  0  0  0
 20  5  1  0  0  0  0
 20 21  1  0  0  0  0
 21 22  1  0  0  0  0
 21 23  1  0  0  0  0
 23 32  1  0  0  0  0
 24 25  1  0  0  0  0
 24 23  2  0  0  0  0
 25 26  2  0  0  0  0
 26 27  1  0  0  0  0
 27 28  1  0  0  0  0
 28 33  1  0  0  0  0
 28 29  2  0  0  0  0
 30 29  1  0  0  0  0
 31 30  2  0  0  0  0
 32 27  2  0  0  0  0
 32 31  1  0  0  0  0
 33 35  2  0  0  0  0
 34 33  1  0  0  0  0
 34 36  1  0  0  0  0
 37 34  1  0  0  0  0
M  END
>  <minimizedAffinity>
-9.03934956

$$$$

 OpenBabel10152419583D

 37 40  0  0  0  0  0  0  0  0999 V2000
    0.0230  -12.2940  -22.8220 C   0  0  0  0  0  0  0  0  0  0  0  0
    1.1780  -12.9580  -22.4130 C   0  0  0  0  0  3  0  0  0  0  0  0
    2.3370  -12.8570  -23.1750 C   0  0  0  0  0  3  0  0  0  0  0  0
    2.3510  -12.0600  -24.3220 C   0  0  0  0  0  3  0  0  0  0  0  0
    1.2390  -11.2860  -24.6870 C   0  0  0  0  0  0  0  0  0  0  0  0
    0.0770  -11.4150  -23.9140 C   0  0  0  0  0  3  0  0  0  0  0  0
   -1.9990  -11.6880  -21.4550 C   0  0  0  0  0  0  0  0  0  0  0  0
   -2.8640  -12.0990  -20.6860 O   0  0  0  0  0  0  0  0  0  0  0  0
   -1.1680  -12.5650  -22.1230 N   0  0  0  0  0  0  0  0  0  0  0  0
   -1.5200  -13.5150  -22.1400 H   0  0  0  0  0  0  0  0  0  0  0  0
   -2.0140   -7.4800  -22.2120 C   0  0  0  0  0  0  0  0  0  0  0  0
   -2.3620   -8.3890  -23.2210 C   0  0  0  0  0  3  0  0  0  0  0  0
   -2.3090   -9.7660  -22.9950 C   0  0  0  0  0  3  0  0  0  0  0  0
   -1.9160  -10.2370  -21.7450 C   0  0  0  0  0  0  0  0  0  0  0  0
   -1.4900   -9.3380  -20.7570 C   0  0  0  0  0  3  0  0  0  0  0  0
   -1.5500   -7.9610  -20.9890 C   0  0  0  0  0  3  0  0  0  0  0  0
   -2.1830   -6.1670  -22.5490 O   0  0  0  0  0  0  0  0  0  0  0  0
    0.0590   -5.6330  -23.3480 C   0  0  0  0  0  1  0  0  0  0  0  0
   -1.0810   -5.2700  -22.4090 C   0  0  0  0  0  2  0  0  0  0  0  0
    1.2350  -10.3970  -25.9230 C   0  0  0  0  0  2  0  0  0  0  0  0
    2.0010   -9.1790  -25.7260 N   0  0  0  0  0  0  0  0  0  0  0  0
    2.6540   -9.1320  -24.9620 H   0  0  0  0  0  0  0  0  0  0  0  0
    2.0050   -8.2180  -26.7260 C   0  0  0  0  0  0  0  0  0  0  0  0
    3.1560   -8.0630  -27.4020 N   0  0  0  0  0  0  0  0  0  0  0  0
    3.2830   -6.9580  -28.1310 C   0  0  0  0  0  3  0  0  0  0  0  0
    2.4070   -5.9530  -28.1730 N   0  0  0  0  0  0  0  0  0  0  0  0
    1.2380   -6.1150  -27.5240 C   0  0  0  0  0  0  0  0  0  0  0  0
    0.2810   -5.0930  -27.4780 C   0  0  0  0  0  0  0  0  0  0  0  0
   -0.9790   -5.2600  -26.8840 C   0  0  0  0  0  3  0  0  0  0  0  0
   -1.2870   -6.4540  -26.2550 C   0  0  0  0  0  3  0  0  0  0  0  0
   -0.3210   -7.4530  -26.1970 C   0  0  0  0  0  3  0  0  0  0  0  0
    0.9460   -7.2950  -26.8220 C   0  0  0  0  0  0  0  0  0  0  0  0
    0.5970   -3.7320  -27.9580 C   0  0  0  0  0  0  0  0  0  0  0  0
    0.0100   -2.7050  -27.2720 N   0  0  0  0  0  0  0  0  0  0  0  0
    1.2480   -3.5460  -28.9770 O   0  0  0  0  0  0  0  0  0  0  0  0
    0.1640   -1.7600  -27.5950 H   0  0  0  0  0  0  0  0  0  0  0  0
   -0.5250   -2.8520  -26.4270 H   0  0  0  0  0  0  0  0  0  0  0  0
  1  2  1  0  0  0  0
  1  9  1  0  0  0  0
  3  2  2  0  0  0  0
  4  3  1  0  0  0  0
  5  4  2  0  0  0  0
  5  6  1  0  0  0  0
  6  1  2  0  0  0  0
  7  8  2  0  0  0  0
  9  7  1  0  0  0  0
 10  9  1  0  0  0  0
 11 16  1  0  0  0  0
 12 13  1  0  0  0  0
 12 11  2  0  0  0  0
 13 14  2  0  0  0  0
 14  7  1  0  0  0  0
 14 15  1  0  0  0  0
 16 15  2  0  0  0  0
 17 19  1  0  0  0  0
 17 11  1  0  0  0  0
 18 19  1  0  0  0  0
 20 21  1  0  0  0  0
 20  5  1  0  0  0  0
 21 22  1  0  0  0  0
 23 21  1  0  0  0  0
 24 23  2  0  0  0  0
 25 24  1  0  0  0  0
 26 25  2  0  0  0  0
 26 27  1  0  0  0  0
 27 28  2  0  0  0  0
 27 32  1  0  0  0  0
 28 29  1  0  0  0  0
 29 30  2  0  0  0  0
 30 31  1  0  0  0  0
 32 23  1  0  0  0  0
 32 31  2  0  0  0  0
 33 28  1  0  0  0  0
 33 34  1  0  0  0  0
 34 37  1  0  0  0  0
 35 33  2  0  0  0  0
 36 34  1  0  0  0  0
M  END
>  <minimizedAffinity>
-8.11406898

$$$$

 OpenBabel10152419583D

 37 40  0  0  0  0  0  0  0  0999 V2000
    1.1140  -11.5620  -25.9340 C   0  0  0  0  0  0  0  0  0  0  0  0
    1.2930  -12.5210  -24.9380 C   0  0  0  0  0  3  0  0  0  0  0  0
    2.5810  -12.9060  -24.5780 C   0  0  0  0  0  3  0  0  0  0  0  0
    3.6850  -12.3030  -25.1830 C   0  0  0  0  0  3  0  0  0  0  0  0
    3.5320  -11.2510  -26.0980 C   0  0  0  0  0  0  0  0  0  0  0  0
    2.2270  -10.8900  -26.4590 C   0  0  0  0  0  3  0  0  0  0  0  0
   -1.3300  -11.0380  -25.6580 C   0  0  0  0  0  0  0  0  0  0  0  0
   -2.4470  -11.1080  -26.1650 O   0  0  0  0  0  0  0  0  0  0  0  0
   -0.1970  -11.3330  -26.3890 N   0  0  0  0  0  0  0  0  0  0  0  0
   -0.3540  -11.3210  -27.3910 H   0  0  0  0  0  0  0  0  0  0  0  0
   -1.2030   -9.5390  -21.6560 C   0  0  0  0  0  0  0  0  0  0  0  0
   -1.0480   -8.6740  -22.7480 C   0  0  0  0  0  3  0  0  0  0  0  0
   -1.0370   -9.1650  -24.0550 C   0  0  0  0  0  3  0  0  0  0  0  0
   -1.1940  -10.5320  -24.2710 C   0  0  0  0  0  0  0  0  0  0  0  0
   -1.2690  -11.4120  -23.1820 C   0  0  0  0  0  3  0  0  0  0  0  0
   -1.2830  -10.9130  -21.8770 C   0  0  0  0  0  3  0  0  0  0  0  0
   -1.2680   -8.9140  -20.4430 O   0  0  0  0  0  0  0  0  0  0  0  0
   -3.4260   -8.0950  -21.2360 C   0  0  0  0  0  1  0  0  0  0  0  0
   -2.3130   -7.9690  -20.2070 C   0  0  0  0  0  2  0  0  0  0  0  0
    4.7200  -10.5660  -26.7590 C   0  0  0  0  0  2  0  0  0  0  0  0
    4.6270   -9.1180  -26.6930 N   0  0  0  0  0  0  0  0  0  0  0  0
    5.3370   -8.6070  -26.1960 H   0  0  0  0  0  0  0  0  0  0  0  0
    3.7220   -8.4640  -27.5130 C   0  0  0  0  0  0  0  0  0  0  0  0
    4.0750   -8.3230  -28.8030 N   0  0  0  0  0  0  0  0  0  0  0  0
    3.3880   -7.4410  -29.5230 C   0  0  0  0  0  3  0  0  0  0  0  0
    2.4450   -6.6240  -29.0540 N   0  0  0  0  0  0  0  0  0  0  0  0
    2.0620   -6.7820  -27.7720 C   0  0  0  0  0  0  0  0  0  0  0  0
    1.1120   -5.9370  -27.1850 C   0  0  0  0  0  0  0  0  0  0  0  0
    0.6300   -6.1280  -25.8810 C   0  0  0  0  0  3  0  0  0  0  0  0
    1.1490   -7.1460  -25.1010 C   0  0  0  0  0  3  0  0  0  0  0  0
    2.1670   -7.9410  -25.6200 C   0  0  0  0  0  3  0  0  0  0  0  0
    2.6350   -7.7660  -26.9510 C   0  0  0  0  0  0  0  0  0  0  0  0
    0.6450   -4.7190  -27.8780 C   0  0  0  0  0  0  0  0  0  0  0  0
    1.6220   -3.9220  -28.4080 N   0  0  0  0  0  0  0  0  0  0  0  0
   -0.5330   -4.3880  -27.8720 O   0  0  0  0  0  0  0  0  0  0  0  0
    1.3480   -3.0560  -28.8530 H   0  0  0  0  0  0  0  0  0  0  0  0
    2.5960   -4.1920  -28.4200 H   0  0  0  0  0  0  0  0  0  0  0  0
  1  2  1  0  0  0  0
  2  3  2  0  0  0  0
  4  3  1  0  0  0  0
  5  4  2  0  0  0  0
  6  5  1  0  0  0  0
  6  1  2  0  0  0  0
  7 14  1  0  0  0  0
  8  7  2  0  0  0  0
  9  1  1  0  0  0  0
  9  7  1  0  0  0  0
 10  9  1  0  0  0  0
 11 17  1  0  0  0  0
 12 11  2  0  0  0  0
 13 12  1  0  0  0  0
 14 13  2  0  0  0  0
 14 15  1  0  0  0  0
 15 16  2  0  0  0  0
 16 11  1  0  0  0  0
 17 19  1  0  0  0  0
 18 19  1  0  0  0  0
 20 21  1  0  0  0  0
 20  5  1  0  0  0  0
 21 22  1  0  0  0  0
 23 32  1  0  0  0  0
 23 21  1  0  0  0  0
 24 23  2  0  0  0  0
 25 26  2  0  0  0  0
 25 24  1  0  0  0  0
 26 27  1  0  0  0  0
 27 28  2  0  0  0  0
 27 32  1  0  0  0  0
 28 29  1  0  0  0  0
 29 30  2  0  0  0  0
 31 30  1  0  0  0  0
 32 31  2  0  0  0  0
 33 35  2  0  0  0  0
 33 28  1  0  0  0  0
 34 33  1  0  0  0  0
 36 34  1  0  0  0  0
 37 34  1  0  0  0  0
M  END
>  <minimizedAffinity>
-7.77502441

$$$$

 OpenBabel10152419583D

 37 40  0  0  0  0  0  0  0  0999 V2000
    0.2840  -12.7100  -23.0430 C   0  0  0  0  0  0  0  0  0  0  0  0
    1.4080  -12.9590  -22.2560 C   0  0  0  0  0  3  0  0  0  0  0  0
    2.6750  -12.9000  -22.8270 C   0  0  0  0  0  3  0  0  0  0  0  0
    2.8190  -12.5520  -24.1720 C   0  0  0  0  0  3  0  0  0  0  0  0
    1.7140  -12.1770  -24.9510 C   0  0  0  0  0  0  0  0  0  0  0  0
    0.4460  -12.2590  -24.3610 C   0  0  0  0  0  3  0  0  0  0  0  0
   -1.8180  -12.0730  -21.8170 C   0  0  0  0  0  0  0  0  0  0  0  0
   -2.7710  -12.4810  -21.1590 O   0  0  0  0  0  0  0  0  0  0  0  0
   -0.9790  -12.9520  -22.4720 N   0  0  0  0  0  0  0  0  0  0  0  0
   -1.3800  -13.8760  -22.5880 H   0  0  0  0  0  0  0  0  0  0  0  0
   -1.5370   -7.8360  -22.3150 C   0  0  0  0  0  0  0  0  0  0  0  0
   -1.6170   -8.6820  -23.4290 C   0  0  0  0  0  3  0  0  0  0  0  0
   -1.6570  -10.0700  -23.2740 C   0  0  0  0  0  3  0  0  0  0  0  0
   -1.6280  -10.6140  -21.9920 C   0  0  0  0  0  0  0  0  0  0  0  0
   -1.4660   -9.7790  -20.8780 C   0  0  0  0  0  3  0  0  0  0  0  0
   -1.4310   -8.3910  -21.0400 C   0  0  0  0  0  3  0  0  0  0  0  0
   -1.5790   -6.5030  -22.6110 O   0  0  0  0  0  0  0  0  0  0  0  0
   -0.6800   -5.0870  -24.3830 C   0  0  0  0  0  1  0  0  0  0  0  0
   -0.4010   -5.8660  -23.1060 C   0  0  0  0  0  2  0  0  0  0  0  0
    1.8460  -11.7770  -26.4150 C   0  0  0  0  0  2  0  0  0  0  0  0
    2.9170  -10.8190  -26.6280 N   0  0  0  0  0  0  0  0  0  0  0  0
    3.7350  -11.1090  -27.1370 H   0  0  0  0  0  0  0  0  0  0  0  0
    2.6860   -9.4800  -26.3540 C   0  0  0  0  0  0  0  0  0  0  0  0
    2.0940   -9.2030  -25.1790 N   0  0  0  0  0  0  0  0  0  0  0  0
    1.5830   -7.9830  -25.0350 C   0  0  0  0  0  3  0  0  0  0  0  0
    1.5270   -7.0500  -25.9840 N   0  0  0  0  0  0  0  0  0  0  0  0
    2.1470   -7.3070  -27.1520 C   0  0  0  0  0  0  0  0  0  0  0  0
    2.0990   -6.4010  -28.2190 C   0  0  0  0  0  0  0  0  0  0  0  0
    2.8030   -6.6010  -29.4160 C   0  0  0  0  0  3  0  0  0  0  0  0
    3.5290   -7.7660  -29.5980 C   0  0  0  0  0  3  0  0  0  0  0  0
    3.5150   -8.7310  -28.5960 C   0  0  0  0  0  3  0  0  0  0  0  0
    2.8250   -8.5160  -27.3720 C   0  0  0  0  0  0  0  0  0  0  0  0
    1.2020   -5.2280  -28.1820 C   0  0  0  0  0  0  0  0  0  0  0  0
    1.7910   -4.0180  -28.4270 N   0  0  0  0  0  0  0  0  0  0  0  0
    0.0320   -5.3240  -27.8370 O   0  0  0  0  0  0  0  0  0  0  0  0
    1.2220   -3.1840  -28.3680 H   0  0  0  0  0  0  0  0  0  0  0  0
    2.7560   -3.9320  -28.7170 H   0  0  0  0  0  0  0  0  0  0  0  0
  1  9  1  0  0  0  0
  1  2  1  0  0  0  0
  3  2  2  0  0  0  0
  4  3  1  0  0  0  0
  5  6  1  0  0  0  0
  5  4  2  0  0  0  0
  6  1  2  0  0  0  0
  7  8  2  0  0  0  0
  9  7  1  0  0  0  0
 10  9  1  0  0  0  0
 11 16  1  0  0  0  0
 12 13  1  0  0  0  0
 12 11  2  0  0  0  0
 13 14  2  0  0  0  0
 14  7  1  0  0  0  0
 14 15  1  0  0  0  0
 16 15  2  0  0  0  0
 17 11  1  0  0  0  0
 18 19  1  0  0  0  0
 19 17  1  0  0  0  0
 20  5  1  0  0  0  0
 21 20  1  0  0  0  0
 21 23  1  0  0  0  0
 22 21  1  0  0  0  0
 23 24  1  0  0  0  0
 24 25  2  0  0  0  0
 26 25  1  0  0  0  0
 27 26  2  0  0  0  0
 28 33  1  0  0  0  0
 28 27  1  0  0  0  0
 29 28  2  0  0  0  0
 30 29  1  0  0  0  0
 30 31  2  0  0  0  0
 31 32  1  0  0  0  0
 32 27  1  0  0  0  0
 32 23  2  0  0  0  0
 33 35  2  0  0  0  0
 34 36  1  0  0  0  0
 34 33  1  0  0  0  0
 37 34  1  0  0  0  0
M  END
>  <minimizedAffinity>
-7.55307722

$$$$
