
 OpenBabel10152419333D

 34 37  0  0  1  0  0  0  0  0999 V2000
    3.7270   -8.9660  -26.4400 C   0  0  0  0  0  1  0  0  0  0  0  0
    2.2670   -8.9020  -25.9700 C   0  0  2  0  0  3  0  0  0  0  0  0
    1.7120  -10.2670  -25.5770 C   0  0  0  0  0  0  0  0  0  0  0  0
    1.6520  -11.3620  -26.4430 C   0  0  0  0  0  3  0  0  0  0  0  0
    0.9750  -12.5230  -26.0590 C   0  0  0  0  0  3  0  0  0  0  0  0
    0.2970  -12.5920  -24.8340 C   0  0  0  0  0  3  0  0  0  0  0  0
    0.3530  -11.5240  -23.9490 C   0  0  0  0  0  0  0  0  0  0  0  0
    1.1160  -10.4060  -24.3110 C   0  0  0  0  0  3  0  0  0  0  0  0
   -0.3550  -11.3900  -22.7460 N   0  0  0  0  0  0  0  0  0  0  0  0
   -0.9820  -10.3680  -22.0900 C   0  0  0  0  0  0  0  0  0  0  0  0
   -1.3470  -10.5610  -20.9340 O   0  0  0  0  0  0  0  0  0  0  0  0
   -0.3640  -12.2110  -22.1480 H   0  0  0  0  0  0  0  0  0  0  0  0
   -1.2060   -9.0530  -22.7010 C   0  0  1  0  0  3  0  0  0  0  0  0
   -2.4200   -8.7060  -23.5400 C   0  0  0  0  0  2  0  0  0  0  0  0
   -2.3350   -8.2650  -22.1320 C   0  0  0  0  0  0  0  0  0  0  0  0
   -3.2360   -8.7840  -21.2320 F   0  0  0  0  0  0  0  0  0  0  0  0
   -2.1910   -6.9280  -21.8480 F   0  0  0  0  0  0  0  0  0  0  0  0
    1.4730   -8.2580  -27.0270 N   0  0  0  0  0  0  0  0  0  0  0  0
    0.5690   -8.7000  -27.1760 H   0  0  0  0  0  0  0  0  0  0  0  0
    1.2610   -6.8930  -27.1130 C   0  0  0  0  0  0  0  0  0  0  0  0
    1.6680   -6.4010  -28.2920 N   0  0  0  0  0  0  0  0  0  0  0  0
    1.3440   -5.1380  -28.5530 C   0  0  0  0  0  3  0  0  0  0  0  0
    0.6380   -4.3280  -27.7580 N   0  0  0  0  0  0  0  0  0  0  0  0
    0.2800   -4.7910  -26.5390 C   0  0  0  0  0  0  0  0  0  0  0  0
   -0.4600   -4.0050  -25.6310 C   0  0  0  0  0  0  0  0  0  0  0  0
   -0.7740   -4.4760  -24.3410 C   0  0  0  0  0  3  0  0  0  0  0  0
   -0.3340   -5.7200  -23.9200 C   0  0  0  0  0  3  0  0  0  0  0  0
    0.3800   -6.5160  -24.8080 C   0  0  0  0  0  3  0  0  0  0  0  0
    0.6430   -6.0910  -26.1360 C   0  0  0  0  0  0  0  0  0  0  0  0
   -0.9720   -2.6340  -25.9570 C   0  0  0  0  0  0  0  0  0  0  0  0
   -0.5010   -2.0150  -27.0770 N   0  0  0  0  0  0  0  0  0  0  0  0
   -1.7980   -2.0730  -25.2500 O   0  0  0  0  0  0  0  0  0  0  0  0
   -0.8450   -1.0940  -27.3060 H   0  0  0  0  0  0  0  0  0  0  0  0
    0.2130   -2.4510  -27.6540 H   0  0  0  0  0  0  0  0  0  0  0  0
  2  1  1  6  0  0  0
  2  3  1  0  0  0  0
  3  8  1  0  0  0  0
  4  5  1  0  0  0  0
  4  3  2  0  0  0  0
  5  6  2  0  0  0  0
  6  7  1  0  0  0  0
  7  9  1  0  0  0  0
  8  7  2  0  0  0  0
  9 12  1  0  0  0  0
  9 10  1  0  0  0  0
 10 11  2  0  0  0  0
 13 15  1  0  0  0  0
 13 10  1  1  0  0  0
 14 13  1  0  0  0  0
 14 15  1  0  0  0  0
 15 17  1  0  0  0  0
 15 16  1  0  0  0  0
 18  2  1  0  0  0  0
 19 18  1  0  0  0  0
 20 18  1  0  0  0  0
 20 29  1  0  0  0  0
 21 20  2  0  0  0  0
 22 21  1  0  0  0  0
 22 23  2  0  0  0  0
 23 24  1  0  0  0  0
 24 29  2  0  0  0  0
 24 25  1  0  0  0  0
 25 26  2  0  0  0  0
 26 27  1  0  0  0  0
 28 27  2  0  0  0  0
 29 28  1  0  0  0  0
 30 25  1  0  0  0  0
 30 32  2  0  0  0  0
 31 30  1  0  0  0  0
 33 31  1  0  0  0  0
 34 31  1  0  0  0  0
M  END
>  <minimizedAffinity>
-8.73859978

$$$$
