
 OpenBabel10152419333D

 34 37  0  0  1  0  0  0  0  0999 V2000
   -2.3740   -8.6630  -21.6310 C   0  0  0  0  0  1  0  0  0  0  0  0
   -1.6800   -9.1560  -22.9090 C   0  0  2  0  0  3  0  0  0  0  0  0
   -1.0890  -10.5540  -22.7600 C   0  0  0  0  0  0  0  0  0  0  0  0
   -1.6550  -11.5590  -21.9710 C   0  0  0  0  0  3  0  0  0  0  0  0
   -0.9620  -12.7540  -21.7540 C   0  0  0  0  0  3  0  0  0  0  0  0
    0.3280  -12.9440  -22.2690 C   0  0  0  0  0  3  0  0  0  0  0  0
    0.9060  -11.9680  -23.0680 C   0  0  0  0  0  0  0  0  0  0  0  0
    0.1580  -10.8190  -23.3540 C   0  0  0  0  0  3  0  0  0  0  0  0
    2.2190  -11.9550  -23.5630 N   0  0  0  0  0  0  0  0  0  0  0  0
    2.8330  -12.3650  -24.7120 C   0  0  0  0  0  0  0  0  0  0  0  0
    4.0610  -12.3750  -24.7390 O   0  0  0  0  0  0  0  0  0  0  0  0
    2.9310  -11.6390  -22.9110 H   0  0  0  0  0  0  0  0  0  0  0  0
    2.0890  -12.8190  -25.8910 C   0  0  1  0  0  3  0  0  0  0  0  0
    1.1260  -11.9450  -26.6720 C   0  0  0  0  0  2  0  0  0  0  0  0
    2.4900  -12.1940  -27.1840 C   0  0  0  0  0  0  0  0  0  0  0  0
    3.3580  -11.1310  -27.2670 F   0  0  0  0  0  0  0  0  0  0  0  0
    2.6610  -12.9560  -28.3150 F   0  0  0  0  0  0  0  0  0  0  0  0
   -0.6690   -8.1590  -23.2940 N   0  0  0  0  0  0  0  0  0  0  0  0
    0.2600   -8.3730  -22.9390 H   0  0  0  0  0  0  0  0  0  0  0  0
   -0.4970   -7.6900  -24.5840 C   0  0  0  0  0  0  0  0  0  0  0  0
   -1.5850   -7.0400  -25.0250 N   0  0  0  0  0  0  0  0  0  0  0  0
   -1.4620   -6.3910  -26.1790 C   0  0  0  0  0  3  0  0  0  0  0  0
   -0.3550   -6.3140  -26.9240 N   0  0  0  0  0  0  0  0  0  0  0  0
    0.7270   -7.0200  -26.5250 C   0  0  0  0  0  0  0  0  0  0  0  0
    1.9360   -7.0050  -27.2500 C   0  0  0  0  0  0  0  0  0  0  0  0
    3.0370   -7.7920  -26.8580 C   0  0  0  0  0  3  0  0  0  0  0  0
    2.9450   -8.6300  -25.7590 C   0  0  0  0  0  3  0  0  0  0  0  0
    1.7680   -8.6440  -25.0200 C   0  0  0  0  0  3  0  0  0  0  0  0
    0.6750   -7.8030  -25.3550 C   0  0  0  0  0  0  0  0  0  0  0  0
    2.1530   -6.1610  -28.4700 C   0  0  0  0  0  0  0  0  0  0  0  0
    1.6620   -4.8890  -28.4740 N   0  0  0  0  0  0  0  0  0  0  0  0
    2.7590   -6.5850  -29.4450 O   0  0  0  0  0  0  0  0  0  0  0  0
    1.8090   -4.3120  -29.2890 H   0  0  0  0  0  0  0  0  0  0  0  0
    1.1250   -4.5340  -27.6890 H   0  0  0  0  0  0  0  0  0  0  0  0
  2  3  1  0  0  0  0
  2  1  1  1  0  0  0
  3  4  1  0  0  0  0
  4  5  2  0  0  0  0
  6  5  1  0  0  0  0
  7  6  2  0  0  0  0
  8  7  1  0  0  0  0
  8  3  2  0  0  0  0
  9  7  1  0  0  0  0
  9 12  1  0  0  0  0
 10  9  1  0  0  0  0
 11 10  2  0  0  0  0
 13 10  1  1  0  0  0
 14 13  1  0  0  0  0
 15 14  1  0  0  0  0
 15 13  1  0  0  0  0
 16 15  1  0  0  0  0
 17 15  1  0  0  0  0
 18 19  1  0  0  0  0
 18  2  1  0  0  0  0
 20 18  1  0  0  0  0
 21 20  1  0  0  0  0
 22 21  2  0  0  0  0
 23 24  2  0  0  0  0
 23 22  1  0  0  0  0
 24 29  1  0  0  0  0
 25 26  2  0  0  0  0
 25 24  1  0  0  0  0
 26 27  1  0  0  0  0
 27 28  2  0  0  0  0
 29 28  1  0  0  0  0
 29 20  2  0  0  0  0
 30 25  1  0  0  0  0
 31 30  1  0  0  0  0
 31 34  1  0  0  0  0
 32 30  2  0  0  0  0
 33 31  1  0  0  0  0
M  END
>  <minimizedAffinity>
-9.38198757

$$$$
