
 OpenBabel10152419333D

 34 37  0  0  1  0  0  0  0  0999 V2000
   -0.5060   -5.0140  -24.4950 C   0  0  0  0  0  1  0  0  0  0  0  0
   -0.0670   -6.4180  -24.9370 C   0  0  2  0  0  3  0  0  0  0  0  0
    0.8870   -6.3930  -26.1270 C   0  0  0  0  0  0  0  0  0  0  0  0
    0.6880   -5.6100  -27.2680 C   0  0  0  0  0  3  0  0  0  0  0  0
    1.5170   -5.7720  -28.3820 C   0  0  0  0  0  3  0  0  0  0  0  0
    2.5170   -6.7550  -28.4020 C   0  0  0  0  0  3  0  0  0  0  0  0
    2.7440   -7.5350  -27.2770 C   0  0  0  0  0  0  0  0  0  0  0  0
    1.9670   -7.2930  -26.1360 C   0  0  0  0  0  3  0  0  0  0  0  0
    3.6190   -8.6260  -27.1720 N   0  0  0  0  0  0  0  0  0  0  0  0
    3.5520   -9.8850  -26.6450 C   0  0  0  0  0  0  0  0  0  0  0  0
    4.5930  -10.5300  -26.5550 O   0  0  0  0  0  0  0  0  0  0  0  0
    4.5700   -8.4580  -27.4860 H   0  0  0  0  0  0  0  0  0  0  0  0
    2.3000  -10.4760  -26.1590 C   0  0  1  0  0  3  0  0  0  0  0  0
    1.8190  -11.8650  -26.5340 C   0  0  0  0  0  2  0  0  0  0  0  0
    2.4530  -11.6240  -25.2210 C   0  0  0  0  0  0  0  0  0  0  0  0
    3.6610  -12.2260  -24.9610 F   0  0  0  0  0  0  0  0  0  0  0  0
    1.6960  -11.7070  -24.0770 F   0  0  0  0  0  0  0  0  0  0  0  0
   -1.2760   -7.2120  -25.2050 N   0  0  0  0  0  0  0  0  0  0  0  0
   -1.5710   -7.1770  -26.1780 H   0  0  0  0  0  0  0  0  0  0  0  0
   -1.4500   -8.5200  -24.7900 C   0  0  0  0  0  0  0  0  0  0  0  0
   -1.4550   -9.3730  -25.8250 N   0  0  0  0  0  0  0  0  0  0  0  0
   -1.4320  -10.6680  -25.5270 C   0  0  0  0  0  3  0  0  0  0  0  0
   -1.3850  -11.1920  -24.2980 N   0  0  0  0  0  0  0  0  0  0  0  0
   -1.4480  -10.3450  -23.2460 C   0  0  0  0  0  0  0  0  0  0  0  0
   -1.4130  -10.8060  -21.9140 C   0  0  0  0  0  0  0  0  0  0  0  0
   -1.5400   -9.9200  -20.8270 C   0  0  0  0  0  3  0  0  0  0  0  0
   -1.7360   -8.5660  -21.0440 C   0  0  0  0  0  3  0  0  0  0  0  0
   -1.7540   -8.0900  -22.3490 C   0  0  0  0  0  3  0  0  0  0  0  0
   -1.5530   -8.9550  -23.4550 C   0  0  0  0  0  0  0  0  0  0  0  0
   -1.2310  -12.2490  -21.5480 C   0  0  0  0  0  0  0  0  0  0  0  0
   -2.3240  -12.9590  -21.1450 N   0  0  0  0  0  0  0  0  0  0  0  0
   -0.1380  -12.7950  -21.6110 O   0  0  0  0  0  0  0  0  0  0  0  0
   -2.2110  -13.9320  -20.9020 H   0  0  0  0  0  0  0  0  0  0  0  0
   -3.2310  -12.5120  -21.0510 H   0  0  0  0  0  0  0  0  0  0  0  0
  2  1  1  6  0  0  0
  3  2  1  0  0  0  0
  4  3  2  0  0  0  0
  5  4  1  0  0  0  0
  6  5  2  0  0  0  0
  6  7  1  0  0  0  0
  7  9  1  0  0  0  0
  7  8  2  0  0  0  0
  8  3  1  0  0  0  0
  9 10  1  0  0  0  0
 10 11  2  0  0  0  0
 12  9  1  0  0  0  0
 13 10  1  6  0  0  0
 13 15  1  0  0  0  0
 14 13  1  0  0  0  0
 14 15  1  0  0  0  0
 15 16  1  0  0  0  0
 15 17  1  0  0  0  0
 18  2  1  0  0  0  0
 18 20  1  0  0  0  0
 19 18  1  0  0  0  0
 20 29  1  0  0  0  0
 21 22  1  0  0  0  0
 21 20  2  0  0  0  0
 22 23  2  0  0  0  0
 23 24  1  0  0  0  0
 24 25  1  0  0  0  0
 25 30  1  0  0  0  0
 25 26  2  0  0  0  0
 27 26  1  0  0  0  0
 28 27  2  0  0  0  0
 29 24  2  0  0  0  0
 29 28  1  0  0  0  0
 30 31  1  0  0  0  0
 31 34  1  0  0  0  0
 31 33  1  0  0  0  0
 32 30  2  0  0  0  0
M  END
>  <minimizedAffinity>
-9.71145535

$$$$
