
 OpenBabel10152419333D

 34 37  0  0  1  0  0  0  0  0999 V2000
   -0.5440   -5.0870  -23.3550 C   0  0  0  0  0  1  0  0  0  0  0  0
   -0.6510   -6.4770  -23.9960 C   0  0  2  0  0  3  0  0  0  0  0  0
   -1.3060   -7.5040  -23.0780 C   0  0  0  0  0  0  0  0  0  0  0  0
   -1.9460   -7.1800  -21.8790 C   0  0  0  0  0  3  0  0  0  0  0  0
   -2.3690   -8.1940  -21.0140 C   0  0  0  0  0  3  0  0  0  0  0  0
   -2.1100   -9.5420  -21.2990 C   0  0  0  0  0  3  0  0  0  0  0  0
   -1.4890   -9.8910  -22.4910 C   0  0  0  0  0  0  0  0  0  0  0  0
   -1.1590   -8.8680  -23.3890 C   0  0  0  0  0  3  0  0  0  0  0  0
   -1.0610  -11.1710  -22.8730 N   0  0  0  0  0  0  0  0  0  0  0  0
   -0.4940  -11.7180  -23.9890 C   0  0  0  0  0  0  0  0  0  0  0  0
   -0.4210  -12.9420  -24.0590 O   0  0  0  0  0  0  0  0  0  0  0  0
   -1.2730  -11.9180  -22.2190 H   0  0  0  0  0  0  0  0  0  0  0  0
   -0.0010  -10.9070  -25.1070 C   0  0  1  0  0  3  0  0  0  0  0  0
    0.0490  -11.3890  -26.5440 C   0  0  0  0  0  2  0  0  0  0  0  0
   -1.0320  -10.4860  -26.0990 C   0  0  0  0  0  0  0  0  0  0  0  0
   -2.3200  -10.9650  -26.0940 F   0  0  0  0  0  0  0  0  0  0  0  0
   -1.0740   -9.1940  -26.5690 F   0  0  0  0  0  0  0  0  0  0  0  0
    0.6940   -6.8880  -24.4260 N   0  0  0  0  0  0  0  0  0  0  0  0
    1.0100   -7.7500  -23.9880 H   0  0  0  0  0  0  0  0  0  0  0  0
    1.0980   -6.9510  -25.7480 C   0  0  0  0  0  0  0  0  0  0  0  0
    0.5100   -6.0020  -26.4920 N   0  0  0  0  0  0  0  0  0  0  0  0
    0.9640   -5.8550  -27.7330 C   0  0  0  0  0  3  0  0  0  0  0  0
    1.9590   -6.5490  -28.2950 N   0  0  0  0  0  0  0  0  0  0  0  0
    2.5140   -7.5520  -27.5780 C   0  0  0  0  0  0  0  0  0  0  0  0
    3.5640   -8.3420  -28.0900 C   0  0  0  0  0  0  0  0  0  0  0  0
    4.0930   -9.4230  -27.3580 C   0  0  0  0  0  3  0  0  0  0  0  0
    3.5680   -9.7570  -26.1200 C   0  0  0  0  0  3  0  0  0  0  0  0
    2.5460   -8.9790  -25.5910 C   0  0  0  0  0  3  0  0  0  0  0  0
    2.0510   -7.8410  -26.2790 C   0  0  0  0  0  0  0  0  0  0  0  0
    4.2000   -8.0990  -29.4250 C   0  0  0  0  0  0  0  0  0  0  0  0
    4.4160   -6.8100  -29.8160 N   0  0  0  0  0  0  0  0  0  0  0  0
    4.5310   -9.0220  -30.1570 O   0  0  0  0  0  0  0  0  0  0  0  0
    4.8490   -6.6380  -30.7120 H   0  0  0  0  0  0  0  0  0  0  0  0
    4.1130   -6.0320  -29.2380 H   0  0  0  0  0  0  0  0  0  0  0  0
  2  1  1  1  0  0  0
  2  3  1  0  0  0  0
  3  4  1  0  0  0  0
  4  5  2  0  0  0  0
  6  5  1  0  0  0  0
  7  6  2  0  0  0  0
  8  3  2  0  0  0  0
  8  7  1  0  0  0  0
  9  7  1  0  0  0  0
  9 12  1  0  0  0  0
 10  9  1  0  0  0  0
 11 10  2  0  0  0  0
 13 10  1  1  0  0  0
 14 15  1  0  0  0  0
 14 13  1  0  0  0  0
 15 16  1  0  0  0  0
 15 13  1  0  0  0  0
 17 15  1  0  0  0  0
 18  2  1  0  0  0  0
 18 19  1  0  0  0  0
 20 18  1  0  0  0  0
 21 20  2  0  0  0  0
 22 21  1  0  0  0  0
 23 22  2  0  0  0  0
 23 24  1  0  0  0  0
 24 29  1  0  0  0  0
 25 24  2  0  0  0  0
 25 26  1  0  0  0  0
 26 27  2  0  0  0  0
 27 28  1  0  0  0  0
 29 20  1  0  0  0  0
 29 28  2  0  0  0  0
 30 25  1  0  0  0  0
 31 30  1  0  0  0  0
 31 34  1  0  0  0  0
 32 30  2  0  0  0  0
 33 31  1  0  0  0  0
M  END
>  <minimizedAffinity>
-8.91037178

$$$$
