
 OpenBabel10152419333D

 34 37  0  0  1  0  0  0  0  0999 V2000
   -0.5060   -5.0140  -24.4950 C   0  0  0  0  0  1  0  0  0  0  0  0
   -0.0670   -6.4180  -24.9370 C   0  0  2  0  0  3  0  0  0  0  0  0
    0.8870   -6.3930  -26.1270 C   0  0  0  0  0  0  0  0  0  0  0  0
    0.6880   -5.6100  -27.2680 C   0  0  0  0  0  3  0  0  0  0  0  0
    1.5170   -5.7720  -28.3820 C   0  0  0  0  0  3  0  0  0  0  0  0
    2.5170   -6.7550  -28.4020 C   0  0  0  0  0  3  0  0  0  0  0  0
    2.7440   -7.5350  -27.2770 C   0  0  0  0  0  0  0  0  0  0  0  0
    1.9670   -7.2930  -26.1360 C   0  0  0  0  0  3  0  0  0  0  0  0
    3.6190   -8.6260  -27.1720 N   0  0  0  0  0  0  0  0  0  0  0  0
    3.5520   -9.8850  -26.6450 C   0  0  0  0  0  0  0  0  0  0  0  0
    4.5930  -10.5300  -26.5550 O   0  0  0  0  0  0  0  0  0  0  0  0
    4.5700   -8.4580  -27.4860 H   0  0  0  0  0  0  0  0  0  0  0  0
    2.3000  -10.4760  -26.1590 C   0  0  1  0  0  3  0  0  0  0  0  0
    1.8190  -11.8650  -26.5340 C   0  0  0  0  0  2  0  0  0  0  0  0
    2.4530  -11.6240  -25.2210 C   0  0  0  0  0  0  0  0  0  0  0  0
    3.6610  -12.2260  -24.9610 F   0  0  0  0  0  0  0  0  0  0  0  0
    1.6960  -11.7070  -24.0770 F   0  0  0  0  0  0  0  0  0  0  0  0
   -1.2760   -7.2120  -25.2050 N   0  0  0  0  0  0  0  0  0  0  0  0
   -1.5710   -7.1770  -26.1780 H   0  0  0  0  0  0  0  0  0  0  0  0
   -1.4500   -8.5200  -24.7900 C   0  0  0  0  0  0  0  0  0  0  0  0
   -1.4550   -9.3730  -25.8250 N   0  0  0  0  0  0  0  0  0  0  0  0
   -1.4320  -10.6680  -25.5270 C   0  0  0  0  0  3  0  0  0  0  0  0
   -1.3850  -11.1920  -24.2980 N   0  0  0  0  0  0  0  0  0  0  0  0
   -1.4480  -10.3450  -23.2460 C   0  0  0  0  0  0  0  0  0  0  0  0
   -1.4130  -10.8060  -21.9140 C   0  0  0  0  0  0  0  0  0  0  0  0
   -1.5400   -9.9200  -20.8270 C   0  0  0  0  0  3  0  0  0  0  0  0
   -1.7360   -8.5660  -21.0440 C   0  0  0  0  0  3  0  0  0  0  0  0
   -1.7540   -8.0900  -22.3490 C   0  0  0  0  0  3  0  0  0  0  0  0
   -1.5530   -8.9550  -23.4550 C   0  0  0  0  0  0  0  0  0  0  0  0
   -1.2310  -12.2490  -21.5480 C   0  0  0  0  0  0  0  0  0  0  0  0
   -2.3240  -12.9590  -21.1450 N   0  0  0  0  0  0  0  0  0  0  0  0
   -0.1380  -12.7950  -21.6110 O   0  0  0  0  0  0  0  0  0  0  0  0
   -2.2110  -13.9320  -20.9020 H   0  0  0  0  0  0  0  0  0  0  0  0
   -3.2310  -12.5120  -21.0510 H   0  0  0  0  0  0  0  0  0  0  0  0
  2  1  1  6  0  0  0
  3  2  1  0  0  0  0
  4  3  2  0  0  0  0
  5  4  1  0  0  0  0
  6  5  2  0  0  0  0
  6  7  1  0  0  0  0
  7  9  1  0  0  0  0
  7  8  2  0  0  0  0
  8  3  1  0  0  0  0
  9 10  1  0  0  0  0
 10 11  2  0  0  0  0
 12  9  1  0  0  0  0
 13 10  1  6  0  0  0
 13 15  1  0  0  0  0
 14 13  1  0  0  0  0
 14 15  1  0  0  0  0
 15 16  1  0  0  0  0
 15 17  1  0  0  0  0
 18  2  1  0  0  0  0
 18 20  1  0  0  0  0
 19 18  1  0  0  0  0
 20 29  1  0  0  0  0
 21 22  1  0  0  0  0
 21 20  2  0  0  0  0
 22 23  2  0  0  0  0
 23 24  1  0  0  0  0
 24 25  1  0  0  0  0
 25 30  1  0  0  0  0
 25 26  2  0  0  0  0
 27 26  1  0  0  0  0
 28 27  2  0  0  0  0
 29 24  2  0  0  0  0
 29 28  1  0  0  0  0
 30 31  1  0  0  0  0
 31 34  1  0  0  0  0
 31 33  1  0  0  0  0
 32 30  2  0  0  0  0
M  END
>  <minimizedAffinity>
-9.71145535

$$$$

 OpenBabel10152419333D

 34 37  0  0  1  0  0  0  0  0999 V2000
    2.9950  -11.8700  -27.3030 C   0  0  0  0  0  1  0  0  0  0  0  0
    2.7850  -11.3900  -25.8600 C   0  0  2  0  0  3  0  0  0  0  0  0
    1.3120  -11.2460  -25.4920 C   0  0  0  0  0  0  0  0  0  0  0  0
    0.2890  -11.0790  -26.4290 C   0  0  0  0  0  3  0  0  0  0  0  0
   -1.0100  -10.7840  -26.0030 C   0  0  0  0  0  3  0  0  0  0  0  0
   -1.2990  -10.5920  -24.6450 C   0  0  0  0  0  3  0  0  0  0  0  0
   -0.3030  -10.7660  -23.6940 C   0  0  0  0  0  0  0  0  0  0  0  0
    0.9690  -11.1560  -24.1310 C   0  0  0  0  0  3  0  0  0  0  0  0
   -0.3980  -10.5040  -22.3190 N   0  0  0  0  0  0  0  0  0  0  0  0
   -1.2280   -9.7680  -21.5200 C   0  0  0  0  0  0  0  0  0  0  0  0
   -0.9030   -9.6010  -20.3480 O   0  0  0  0  0  0  0  0  0  0  0  0
    0.3570  -10.8700  -21.7480 H   0  0  0  0  0  0  0  0  0  0  0  0
   -2.4640   -9.1510  -22.0150 C   0  0  1  0  0  3  0  0  0  0  0  0
   -3.1860   -8.0200  -21.3080 C   0  0  0  0  0  2  0  0  0  0  0  0
   -2.3360   -7.7430  -22.4840 C   0  0  0  0  0  0  0  0  0  0  0  0
   -1.2000   -6.9900  -22.3030 F   0  0  0  0  0  0  0  0  0  0  0  0
   -2.9180   -7.3340  -23.6610 F   0  0  0  0  0  0  0  0  0  0  0  0
    3.5320  -10.1360  -25.6810 N   0  0  0  0  0  0  0  0  0  0  0  0
    4.5410  -10.2710  -25.6550 H   0  0  0  0  0  0  0  0  0  0  0  0
    3.3090   -8.9900  -26.4220 C   0  0  0  0  0  0  0  0  0  0  0  0
    4.1030   -8.9340  -27.5020 N   0  0  0  0  0  0  0  0  0  0  0  0
    3.8450   -7.9700  -28.3800 C   0  0  0  0  0  3  0  0  0  0  0  0
    2.8600   -7.0690  -28.2920 N   0  0  0  0  0  0  0  0  0  0  0  0
    2.0970   -7.0730  -27.1760 C   0  0  0  0  0  0  0  0  0  0  0  0
    1.0400   -6.1570  -26.9930 C   0  0  0  0  0  0  0  0  0  0  0  0
    0.2910   -6.1300  -25.8010 C   0  0  0  0  0  3  0  0  0  0  0  0
    0.5970   -6.9910  -24.7590 C   0  0  0  0  0  3  0  0  0  0  0  0
    1.6220   -7.9140  -24.9290 C   0  0  0  0  0  3  0  0  0  0  0  0
    2.3390   -8.0070  -26.1500 C   0  0  0  0  0  0  0  0  0  0  0  0
    0.6270   -5.1590  -28.0330 C   0  0  0  0  0  0  0  0  0  0  0  0
    1.5800   -4.3350  -28.5560 N   0  0  0  0  0  0  0  0  0  0  0  0
   -0.5300   -5.0770  -28.4210 O   0  0  0  0  0  0  0  0  0  0  0  0
    1.3110   -3.6640  -29.2610 H   0  0  0  0  0  0  0  0  0  0  0  0
    2.5380   -4.3640  -28.2190 H   0  0  0  0  0  0  0  0  0  0  0  0
  2  1  1  6  0  0  0
  2 18  1  0  0  0  0
  2  3  1  0  0  0  0
  3  8  1  0  0  0  0
  4  5  1  0  0  0  0
  4  3  2  0  0  0  0
  5  6  2  0  0  0  0
  6  7  1  0  0  0  0
  7  9  1  0  0  0  0
  8  7  2  0  0  0  0
  9 12  1  0  0  0  0
  9 10  1  0  0  0  0
 10 11  2  0  0  0  0
 13 10  1  1  0  0  0
 13 14  1  0  0  0  0
 15 16  1  0  0  0  0
 15 13  1  0  0  0  0
 15 14  1  0  0  0  0
 17 15  1  0  0  0  0
 18 19  1  0  0  0  0
 20 29  1  0  0  0  0
 20 18  1  0  0  0  0
 21 20  2  0  0  0  0
 22 23  2  0  0  0  0
 22 21  1  0  0  0  0
 23 24  1  0  0  0  0
 24 25  2  0  0  0  0
 24 29  1  0  0  0  0
 25 26  1  0  0  0  0
 26 27  2  0  0  0  0
 28 27  1  0  0  0  0
 29 28  2  0  0  0  0
 30 25  1  0  0  0  0
 31 34  1  0  0  0  0
 31 30  1  0  0  0  0
 32 30  2  0  0  0  0
 33 31  1  0  0  0  0
M  END
>  <minimizedAffinity>
-9.55701447

$$$$

 OpenBabel10152419333D

 34 37  0  0  1  0  0  0  0  0999 V2000
    2.4890   -8.3830  -24.7820 C   0  0  0  0  0  1  0  0  0  0  0  0
    2.6570   -9.4730  -25.8510 C   0  0  2  0  0  3  0  0  0  0  0  0
    2.9750   -8.9050  -27.2300 C   0  0  0  0  0  0  0  0  0  0  0  0
    3.8380   -9.5150  -28.1440 C   0  0  0  0  0  3  0  0  0  0  0  0
    4.2070   -8.8460  -29.3150 C   0  0  0  0  0  3  0  0  0  0  0  0
    3.7700   -7.5370  -29.5670 C   0  0  0  0  0  3  0  0  0  0  0  0
    2.8990   -6.9150  -28.6830 C   0  0  0  0  0  0  0  0  0  0  0  0
    2.4650   -7.6370  -27.5640 C   0  0  0  0  0  3  0  0  0  0  0  0
    2.4620   -5.5830  -28.7300 N   0  0  0  0  0  0  0  0  0  0  0  0
    1.3480   -4.9060  -28.3220 C   0  0  0  0  0  0  0  0  0  0  0  0
    1.2040   -3.7470  -28.7010 O   0  0  0  0  0  0  0  0  0  0  0  0
    3.0540   -4.9450  -29.2530 H   0  0  0  0  0  0  0  0  0  0  0  0
    0.3130   -5.5160  -27.4800 C   0  0  1  0  0  3  0  0  0  0  0  0
    0.2410   -5.3510  -25.9740 C   0  0  0  0  0  2  0  0  0  0  0  0
   -0.6490   -4.5650  -26.8530 C   0  0  0  0  0  0  0  0  0  0  0  0
   -0.4880   -3.2000  -26.8900 F   0  0  0  0  0  0  0  0  0  0  0  0
   -1.9990   -4.8220  -26.8550 F   0  0  0  0  0  0  0  0  0  0  0  0
    1.4440  -10.3030  -25.8530 N   0  0  0  0  0  0  0  0  0  0  0  0
    1.6110  -11.2570  -26.1650 H   0  0  0  0  0  0  0  0  0  0  0  0
    0.5630  -10.3890  -24.7890 C   0  0  0  0  0  0  0  0  0  0  0  0
    0.8770  -11.3990  -23.9650 N   0  0  0  0  0  0  0  0  0  0  0  0
    0.2100  -11.4590  -22.8160 C   0  0  0  0  0  3  0  0  0  0  0  0
   -0.7260  -10.5970  -22.4050 N   0  0  0  0  0  0  0  0  0  0  0  0
   -1.1000   -9.6150  -23.2560 C   0  0  0  0  0  0  0  0  0  0  0  0
   -2.0840   -8.6650  -22.9120 C   0  0  0  0  0  0  0  0  0  0  0  0
   -2.5070   -7.6830  -23.8290 C   0  0  0  0  0  3  0  0  0  0  0  0
   -1.9850   -7.6470  -25.1120 C   0  0  0  0  0  3  0  0  0  0  0  0
   -1.0010   -8.5630  -25.4630 C   0  0  0  0  0  3  0  0  0  0  0  0
   -0.5070   -9.5110  -24.5300 C   0  0  0  0  0  0  0  0  0  0  0  0
   -2.7430   -8.6140  -21.5670 C   0  0  0  0  0  0  0  0  0  0  0  0
   -1.9850   -8.8730  -20.4630 N   0  0  0  0  0  0  0  0  0  0  0  0
   -3.9290   -8.3400  -21.4420 O   0  0  0  0  0  0  0  0  0  0  0  0
   -2.4200   -8.8350  -19.5530 H   0  0  0  0  0  0  0  0  0  0  0  0
   -1.0080   -9.1380  -20.5510 H   0  0  0  0  0  0  0  0  0  0  0  0
  2  1  1  1  0  0  0
  3  2  1  0  0  0  0
  4  3  2  0  0  0  0
  5  4  1  0  0  0  0
  6  5  2  0  0  0  0
  6  7  1  0  0  0  0
  7  8  2  0  0  0  0
  8  3  1  0  0  0  0
  9  7  1  0  0  0  0
  9 10  1  0  0  0  0
 11 10  2  0  0  0  0
 12  9  1  0  0  0  0
 13 10  1  6  0  0  0
 13 15  1  0  0  0  0
 13 14  1  0  0  0  0
 15 14  1  0  0  0  0
 16 15  1  0  0  0  0
 17 15  1  0  0  0  0
 18  2  1  0  0  0  0
 18 20  1  0  0  0  0
 19 18  1  0  0  0  0
 20 29  2  0  0  0  0
 20 21  1  0  0  0  0
 21 22  2  0  0  0  0
 22 23  1  0  0  0  0
 24 25  1  0  0  0  0
 24 23  2  0  0  0  0
 25 30  1  0  0  0  0
 26 25  2  0  0  0  0
 27 26  1  0  0  0  0
 28 27  2  0  0  0  0
 28 29  1  0  0  0  0
 29 24  1  0  0  0  0
 30 32  2  0  0  0  0
 30 31  1  0  0  0  0
 31 33  1  0  0  0  0
 34 31  1  0  0  0  0
M  END
>  <minimizedAffinity>
-9.39481735

$$$$

 OpenBabel10152419333D

 34 37  0  0  1  0  0  0  0  0999 V2000
   -2.3740   -8.6630  -21.6310 C   0  0  0  0  0  1  0  0  0  0  0  0
   -1.6800   -9.1560  -22.9090 C   0  0  2  0  0  3  0  0  0  0  0  0
   -1.0890  -10.5540  -22.7600 C   0  0  0  0  0  0  0  0  0  0  0  0
   -1.6550  -11.5590  -21.9710 C   0  0  0  0  0  3  0  0  0  0  0  0
   -0.9620  -12.7540  -21.7540 C   0  0  0  0  0  3  0  0  0  0  0  0
    0.3280  -12.9440  -22.2690 C   0  0  0  0  0  3  0  0  0  0  0  0
    0.9060  -11.9680  -23.0680 C   0  0  0  0  0  0  0  0  0  0  0  0
    0.1580  -10.8190  -23.3540 C   0  0  0  0  0  3  0  0  0  0  0  0
    2.2190  -11.9550  -23.5630 N   0  0  0  0  0  0  0  0  0  0  0  0
    2.8330  -12.3650  -24.7120 C   0  0  0  0  0  0  0  0  0  0  0  0
    4.0610  -12.3750  -24.7390 O   0  0  0  0  0  0  0  0  0  0  0  0
    2.9310  -11.6390  -22.9110 H   0  0  0  0  0  0  0  0  0  0  0  0
    2.0890  -12.8190  -25.8910 C   0  0  1  0  0  3  0  0  0  0  0  0
    1.1260  -11.9450  -26.6720 C   0  0  0  0  0  2  0  0  0  0  0  0
    2.4900  -12.1940  -27.1840 C   0  0  0  0  0  0  0  0  0  0  0  0
    3.3580  -11.1310  -27.2670 F   0  0  0  0  0  0  0  0  0  0  0  0
    2.6610  -12.9560  -28.3150 F   0  0  0  0  0  0  0  0  0  0  0  0
   -0.6690   -8.1590  -23.2940 N   0  0  0  0  0  0  0  0  0  0  0  0
    0.2600   -8.3730  -22.9390 H   0  0  0  0  0  0  0  0  0  0  0  0
   -0.4970   -7.6900  -24.5840 C   0  0  0  0  0  0  0  0  0  0  0  0
   -1.5850   -7.0400  -25.0250 N   0  0  0  0  0  0  0  0  0  0  0  0
   -1.4620   -6.3910  -26.1790 C   0  0  0  0  0  3  0  0  0  0  0  0
   -0.3550   -6.3140  -26.9240 N   0  0  0  0  0  0  0  0  0  0  0  0
    0.7270   -7.0200  -26.5250 C   0  0  0  0  0  0  0  0  0  0  0  0
    1.9360   -7.0050  -27.2500 C   0  0  0  0  0  0  0  0  0  0  0  0
    3.0370   -7.7920  -26.8580 C   0  0  0  0  0  3  0  0  0  0  0  0
    2.9450   -8.6300  -25.7590 C   0  0  0  0  0  3  0  0  0  0  0  0
    1.7680   -8.6440  -25.0200 C   0  0  0  0  0  3  0  0  0  0  0  0
    0.6750   -7.8030  -25.3550 C   0  0  0  0  0  0  0  0  0  0  0  0
    2.1530   -6.1610  -28.4700 C   0  0  0  0  0  0  0  0  0  0  0  0
    1.6620   -4.8890  -28.4740 N   0  0  0  0  0  0  0  0  0  0  0  0
    2.7590   -6.5850  -29.4450 O   0  0  0  0  0  0  0  0  0  0  0  0
    1.8090   -4.3120  -29.2890 H   0  0  0  0  0  0  0  0  0  0  0  0
    1.1250   -4.5340  -27.6890 H   0  0  0  0  0  0  0  0  0  0  0  0
  2  3  1  0  0  0  0
  2  1  1  1  0  0  0
  3  4  1  0  0  0  0
  4  5  2  0  0  0  0
  6  5  1  0  0  0  0
  7  6  2  0  0  0  0
  8  7  1  0  0  0  0
  8  3  2  0  0  0  0
  9  7  1  0  0  0  0
  9 12  1  0  0  0  0
 10  9  1  0  0  0  0
 11 10  2  0  0  0  0
 13 10  1  1  0  0  0
 14 13  1  0  0  0  0
 15 14  1  0  0  0  0
 15 13  1  0  0  0  0
 16 15  1  0  0  0  0
 17 15  1  0  0  0  0
 18 19  1  0  0  0  0
 18  2  1  0  0  0  0
 20 18  1  0  0  0  0
 21 20  1  0  0  0  0
 22 21  2  0  0  0  0
 23 24  2  0  0  0  0
 23 22  1  0  0  0  0
 24 29  1  0  0  0  0
 25 26  2  0  0  0  0
 25 24  1  0  0  0  0
 26 27  1  0  0  0  0
 27 28  2  0  0  0  0
 29 28  1  0  0  0  0
 29 20  2  0  0  0  0
 30 25  1  0  0  0  0
 31 30  1  0  0  0  0
 31 34  1  0  0  0  0
 32 30  2  0  0  0  0
 33 31  1  0  0  0  0
M  END
>  <minimizedAffinity>
-9.38198757

$$$$

 OpenBabel10152419333D

 34 37  0  0  1  0  0  0  0  0999 V2000
   -0.6500  -10.0590  -26.4920 C   0  0  0  0  0  1  0  0  0  0  0  0
    0.8040  -10.1780  -26.0120 C   0  0  2  0  0  3  0  0  0  0  0  0
    0.9530  -11.0770  -24.7890 C   0  0  0  0  0  0  0  0  0  0  0  0
    2.0300  -11.9430  -24.5860 C   0  0  0  0  0  3  0  0  0  0  0  0
    2.0060  -12.8540  -23.5250 C   0  0  0  0  0  3  0  0  0  0  0  0
    0.8860  -12.9590  -22.6880 C   0  0  0  0  0  3  0  0  0  0  0  0
   -0.1900  -12.1000  -22.8600 C   0  0  0  0  0  0  0  0  0  0  0  0
   -0.1080  -11.1300  -23.8670 C   0  0  0  0  0  3  0  0  0  0  0  0
   -1.4200  -12.1490  -22.1880 N   0  0  0  0  0  0  0  0  0  0  0  0
   -2.0010  -11.4550  -21.1640 C   0  0  0  0  0  0  0  0  0  0  0  0
   -3.0430  -11.8940  -20.6860 O   0  0  0  0  0  0  0  0  0  0  0  0
   -2.0300  -12.9200  -22.4410 H   0  0  0  0  0  0  0  0  0  0  0  0
   -1.4150  -10.2330  -20.6010 C   0  0  1  0  0  3  0  0  0  0  0  0
   -0.9200   -9.0690  -21.4360 C   0  0  0  0  0  2  0  0  0  0  0  0
   -2.2320   -8.9970  -20.7600 C   0  0  0  0  0  0  0  0  0  0  0  0
   -3.3640   -8.9380  -21.5380 F   0  0  0  0  0  0  0  0  0  0  0  0
   -2.4070   -8.1250  -19.7110 F   0  0  0  0  0  0  0  0  0  0  0  0
    1.3200   -8.8210  -25.7760 N   0  0  0  0  0  0  0  0  0  0  0  0
    2.0810   -8.5670  -26.4020 H   0  0  0  0  0  0  0  0  0  0  0  0
    0.5200   -7.6990  -25.6570 C   0  0  0  0  0  0  0  0  0  0  0  0
   -0.2810   -7.7720  -24.5830 N   0  0  0  0  0  0  0  0  0  0  0  0
   -0.9570   -6.6700  -24.2710 C   0  0  0  0  0  3  0  0  0  0  0  0
   -0.8960   -5.5010  -24.9150 N   0  0  0  0  0  0  0  0  0  0  0  0
   -0.1450   -5.4350  -26.0380 C   0  0  0  0  0  0  0  0  0  0  0  0
   -0.0270   -4.2460  -26.7870 C   0  0  0  0  0  0  0  0  0  0  0  0
    0.7080   -4.2050  -27.9870 C   0  0  0  0  0  3  0  0  0  0  0  0
    1.3120   -5.3500  -28.4800 C   0  0  0  0  0  3  0  0  0  0  0  0
    1.2230   -6.5270  -27.7470 C   0  0  0  0  0  3  0  0  0  0  0  0
    0.5500   -6.5700  -26.4980 C   0  0  0  0  0  0  0  0  0  0  0  0
   -0.6540   -2.9480  -26.3740 C   0  0  0  0  0  0  0  0  0  0  0  0
   -0.4960   -1.8630  -27.1860 N   0  0  0  0  0  0  0  0  0  0  0  0
   -1.3010   -2.8480  -25.3400 O   0  0  0  0  0  0  0  0  0  0  0  0
   -0.9200   -0.9880  -26.9170 H   0  0  0  0  0  0  0  0  0  0  0  0
    0.0690   -1.9200  -28.0280 H   0  0  0  0  0  0  0  0  0  0  0  0
  2  1  1  1  0  0  0
  2 18  1  0  0  0  0
  2  3  1  0  0  0  0
  3  4  2  0  0  0  0
  3  8  1  0  0  0  0
  4  5  1  0  0  0  0
  5  6  2  0  0  0  0
  7  6  1  0  0  0  0
  7  9  1  0  0  0  0
  8  7  2  0  0  0  0
  9 10  1  0  0  0  0
 10 11  2  0  0  0  0
 12  9  1  0  0  0  0
 13 10  1  6  0  0  0
 14 15  1  0  0  0  0
 14 13  1  0  0  0  0
 15 13  1  0  0  0  0
 15 17  1  0  0  0  0
 16 15  1  0  0  0  0
 18 20  1  0  0  0  0
 19 18  1  0  0  0  0
 20 21  1  0  0  0  0
 21 22  2  0  0  0  0
 23 22  1  0  0  0  0
 24 23  2  0  0  0  0
 25 30  1  0  0  0  0
 25 24  1  0  0  0  0
 26 25  2  0  0  0  0
 27 26  1  0  0  0  0
 27 28  2  0  0  0  0
 28 29  1  0  0  0  0
 29 24  1  0  0  0  0
 29 20  2  0  0  0  0
 30 32  2  0  0  0  0
 31 33  1  0  0  0  0
 31 30  1  0  0  0  0
 34 31  1  0  0  0  0
M  END
>  <minimizedAffinity>
-9.20219803

$$$$

 OpenBabel10152419333D

 34 37  0  0  1  0  0  0  0  0999 V2000
    1.0010   -5.0870  -27.5360 C   0  0  0  0  0  1  0  0  0  0  0  0
    1.2250   -6.5390  -27.0880 C   0  0  2  0  0  3  0  0  0  0  0  0
    2.4340   -7.1850  -27.7580 C   0  0  0  0  0  0  0  0  0  0  0  0
    2.9140   -6.8180  -29.0170 C   0  0  0  0  0  3  0  0  0  0  0  0
    3.9190   -7.5730  -29.6310 C   0  0  0  0  0  3  0  0  0  0  0  0
    4.4180   -8.7360  -29.0290 C   0  0  0  0  0  3  0  0  0  0  0  0
    3.9680   -9.1140  -27.7720 C   0  0  0  0  0  0  0  0  0  0  0  0
    3.0310   -8.2930  -27.1310 C   0  0  0  0  0  3  0  0  0  0  0  0
    4.2790  -10.2980  -27.0870 N   0  0  0  0  0  0  0  0  0  0  0  0
    3.6420  -11.1000  -26.1830 C   0  0  0  0  0  0  0  0  0  0  0  0
    4.2950  -11.9800  -25.6290 O   0  0  0  0  0  0  0  0  0  0  0  0
    5.2280  -10.6380  -27.2060 H   0  0  0  0  0  0  0  0  0  0  0  0
    2.2270  -10.9300  -25.8320 C   0  0  1  0  0  3  0  0  0  0  0  0
    1.2730  -12.0830  -25.5850 C   0  0  0  0  0  2  0  0  0  0  0  0
    1.8560  -11.3410  -24.4480 C   0  0  0  0  0  0  0  0  0  0  0  0
    2.7130  -12.0080  -23.6050 F   0  0  0  0  0  0  0  0  0  0  0  0
    1.0460  -10.5480  -23.6690 F   0  0  0  0  0  0  0  0  0  0  0  0
   -0.0170   -7.2890  -27.3300 N   0  0  0  0  0  0  0  0  0  0  0  0
    0.0500   -7.9330  -28.1150 H   0  0  0  0  0  0  0  0  0  0  0  0
   -0.7280   -7.9480  -26.3430 C   0  0  0  0  0  0  0  0  0  0  0  0
   -1.1340   -9.1590  -26.7490 N   0  0  0  0  0  0  0  0  0  0  0  0
   -1.6650   -9.9500  -25.8210 C   0  0  0  0  0  3  0  0  0  0  0  0
   -1.8120   -9.6540  -24.5260 N   0  0  0  0  0  0  0  0  0  0  0  0
   -1.4680   -8.4120  -24.1180 C   0  0  0  0  0  0  0  0  0  0  0  0
   -1.5940   -8.0070  -22.7730 C   0  0  0  0  0  0  0  0  0  0  0  0
   -1.2900   -6.6920  -22.3710 C   0  0  0  0  0  3  0  0  0  0  0  0
   -0.8860   -5.7480  -23.3010 C   0  0  0  0  0  3  0  0  0  0  0  0
   -0.7380   -6.1330  -24.6280 C   0  0  0  0  0  3  0  0  0  0  0  0
   -0.9670   -7.4710  -25.0400 C   0  0  0  0  0  0  0  0  0  0  0  0
   -2.0440   -8.9260  -21.6770 C   0  0  0  0  0  0  0  0  0  0  0  0
   -1.2430   -9.9780  -21.3430 N   0  0  0  0  0  0  0  0  0  0  0  0
   -3.0970   -8.7460  -21.0810 O   0  0  0  0  0  0  0  0  0  0  0  0
   -1.5360  -10.5980  -20.6010 H   0  0  0  0  0  0  0  0  0  0  0  0
   -0.3840  -10.1630  -21.8520 H   0  0  0  0  0  0  0  0  0  0  0  0
  2  1  1  6  0  0  0
  3  8  1  0  0  0  0
  3  2  1  0  0  0  0
  4  3  2  0  0  0  0
  5  6  2  0  0  0  0
  5  4  1  0  0  0  0
  6  7  1  0  0  0  0
  7  8  2  0  0  0  0
  7  9  1  0  0  0  0
  9 10  1  0  0  0  0
 10 11  2  0  0  0  0
 12  9  1  0  0  0  0
 13 10  1  1  0  0  0
 13 14  1  0  0  0  0
 13 15  1  0  0  0  0
 14 15  1  0  0  0  0
 15 17  1  0  0  0  0
 15 16  1  0  0  0  0
 18  2  1  0  0  0  0
 18 20  1  0  0  0  0
 19 18  1  0  0  0  0
 20 29  1  0  0  0  0
 21 20  2  0  0  0  0
 21 22  1  0  0  0  0
 22 23  2  0  0  0  0
 23 24  1  0  0  0  0
 24 25  1  0  0  0  0
 25 26  2  0  0  0  0
 25 30  1  0  0  0  0
 27 26  1  0  0  0  0
 28 27  2  0  0  0  0
 29 28  1  0  0  0  0
 29 24  2  0  0  0  0
 30 31  1  0  0  0  0
 30 32  2  0  0  0  0
 31 33  1  0  0  0  0
 34 31  1  0  0  0  0
M  END
>  <minimizedAffinity>
-9.12216568

$$$$

 OpenBabel10152419333D

 34 37  0  0  1  0  0  0  0  0999 V2000
   -0.6200   -8.9960  -25.8420 C   0  0  0  0  0  1  0  0  0  0  0  0
    0.7210   -8.5450  -25.2450 C   0  0  2  0  0  3  0  0  0  0  0  0
    1.7230   -8.1030  -26.3070 C   0  0  0  0  0  0  0  0  0  0  0  0
    3.0160   -8.6180  -26.4190 C   0  0  0  0  0  3  0  0  0  0  0  0
    3.9270   -8.0390  -27.3090 C   0  0  0  0  0  3  0  0  0  0  0  0
    3.5830   -6.9030  -28.0570 C   0  0  0  0  0  3  0  0  0  0  0  0
    2.3000   -6.3820  -27.9740 C   0  0  0  0  0  0  0  0  0  0  0  0
    1.3730   -7.0320  -27.1500 C   0  0  0  0  0  3  0  0  0  0  0  0
    1.8350   -5.1960  -28.5630 N   0  0  0  0  0  0  0  0  0  0  0  0
    0.9890   -4.1890  -28.1930 C   0  0  0  0  0  0  0  0  0  0  0  0
    0.6470   -3.3780  -29.0490 O   0  0  0  0  0  0  0  0  0  0  0  0
    2.1090   -5.0490  -29.5290 H   0  0  0  0  0  0  0  0  0  0  0  0
    0.4580   -4.0590  -26.8320 C   0  0  1  0  0  3  0  0  0  0  0  0
   -0.8260   -3.3280  -26.4910 C   0  0  0  0  0  2  0  0  0  0  0  0
   -0.8050   -4.8030  -26.5610 C   0  0  0  0  0  0  0  0  0  0  0  0
   -1.5410   -5.4190  -27.5470 F   0  0  0  0  0  0  0  0  0  0  0  0
   -0.9590   -5.5400  -25.4100 F   0  0  0  0  0  0  0  0  0  0  0  0
    1.2390   -9.6370  -24.4070 N   0  0  0  0  0  0  0  0  0  0  0  0
    1.9120   -9.3240  -23.7110 H   0  0  0  0  0  0  0  0  0  0  0  0
    0.4400  -10.5800  -23.7840 C   0  0  0  0  0  0  0  0  0  0  0  0
    0.6980  -11.8190  -24.2270 N   0  0  0  0  0  0  0  0  0  0  0  0
    0.1200  -12.8180  -23.5670 C   0  0  0  0  0  3  0  0  0  0  0  0
   -0.6730  -12.6990  -22.4970 N   0  0  0  0  0  0  0  0  0  0  0  0
   -0.9940  -11.4520  -22.0830 C   0  0  0  0  0  0  0  0  0  0  0  0
   -1.8300  -11.2290  -20.9690 C   0  0  0  0  0  0  0  0  0  0  0  0
   -2.2060   -9.9280  -20.5830 C   0  0  0  0  0  3  0  0  0  0  0  0
   -1.7850   -8.8290  -21.3150 C   0  0  0  0  0  3  0  0  0  0  0  0
   -0.9460   -9.0280  -22.4040 C   0  0  0  0  0  3  0  0  0  0  0  0
   -0.4950  -10.3240  -22.7640 C   0  0  0  0  0  0  0  0  0  0  0  0
   -2.3700  -12.3340  -20.1120 C   0  0  0  0  0  0  0  0  0  0  0  0
   -1.5210  -12.9580  -19.2460 N   0  0  0  0  0  0  0  0  0  0  0  0
   -3.5440  -12.6750  -20.1690 O   0  0  0  0  0  0  0  0  0  0  0  0
   -1.8790  -13.6990  -18.6610 H   0  0  0  0  0  0  0  0  0  0  0  0
   -0.5360  -12.7130  -19.2130 H   0  0  0  0  0  0  0  0  0  0  0  0
  2  1  1  6  0  0  0
  2 18  1  0  0  0  0
  3  2  1  0  0  0  0
  4  3  1  0  0  0  0
  5  4  2  0  0  0  0
  6  7  2  0  0  0  0
  6  5  1  0  0  0  0
  7  8  1  0  0  0  0
  8  3  2  0  0  0  0
  9 10  1  0  0  0  0
  9  7  1  0  0  0  0
 11 10  2  0  0  0  0
 12  9  1  0  0  0  0
 13 10  1  6  0  0  0
 13 15  1  0  0  0  0
 13 14  1  0  0  0  0
 15 14  1  0  0  0  0
 15 17  1  0  0  0  0
 16 15  1  0  0  0  0
 18 20  1  0  0  0  0
 18 19  1  0  0  0  0
 20 29  1  0  0  0  0
 21 20  2  0  0  0  0
 21 22  1  0  0  0  0
 22 23  2  0  0  0  0
 23 24  1  0  0  0  0
 24 25  1  0  0  0  0
 25 26  2  0  0  0  0
 25 30  1  0  0  0  0
 27 26  1  0  0  0  0
 28 27  2  0  0  0  0
 29 28  1  0  0  0  0
 29 24  2  0  0  0  0
 30 31  1  0  0  0  0
 31 34  1  0  0  0  0
 31 33  1  0  0  0  0
 32 30  2  0  0  0  0
M  END
>  <minimizedAffinity>
-8.93458939

$$$$

 OpenBabel10152419333D

 34 37  0  0  1  0  0  0  0  0999 V2000
   -0.5440   -5.0870  -23.3550 C   0  0  0  0  0  1  0  0  0  0  0  0
   -0.6510   -6.4770  -23.9960 C   0  0  2  0  0  3  0  0  0  0  0  0
   -1.3060   -7.5040  -23.0780 C   0  0  0  0  0  0  0  0  0  0  0  0
   -1.9460   -7.1800  -21.8790 C   0  0  0  0  0  3  0  0  0  0  0  0
   -2.3690   -8.1940  -21.0140 C   0  0  0  0  0  3  0  0  0  0  0  0
   -2.1100   -9.5420  -21.2990 C   0  0  0  0  0  3  0  0  0  0  0  0
   -1.4890   -9.8910  -22.4910 C   0  0  0  0  0  0  0  0  0  0  0  0
   -1.1590   -8.8680  -23.3890 C   0  0  0  0  0  3  0  0  0  0  0  0
   -1.0610  -11.1710  -22.8730 N   0  0  0  0  0  0  0  0  0  0  0  0
   -0.4940  -11.7180  -23.9890 C   0  0  0  0  0  0  0  0  0  0  0  0
   -0.4210  -12.9420  -24.0590 O   0  0  0  0  0  0  0  0  0  0  0  0
   -1.2730  -11.9180  -22.2190 H   0  0  0  0  0  0  0  0  0  0  0  0
   -0.0010  -10.9070  -25.1070 C   0  0  1  0  0  3  0  0  0  0  0  0
    0.0490  -11.3890  -26.5440 C   0  0  0  0  0  2  0  0  0  0  0  0
   -1.0320  -10.4860  -26.0990 C   0  0  0  0  0  0  0  0  0  0  0  0
   -2.3200  -10.9650  -26.0940 F   0  0  0  0  0  0  0  0  0  0  0  0
   -1.0740   -9.1940  -26.5690 F   0  0  0  0  0  0  0  0  0  0  0  0
    0.6940   -6.8880  -24.4260 N   0  0  0  0  0  0  0  0  0  0  0  0
    1.0100   -7.7500  -23.9880 H   0  0  0  0  0  0  0  0  0  0  0  0
    1.0980   -6.9510  -25.7480 C   0  0  0  0  0  0  0  0  0  0  0  0
    0.5100   -6.0020  -26.4920 N   0  0  0  0  0  0  0  0  0  0  0  0
    0.9640   -5.8550  -27.7330 C   0  0  0  0  0  3  0  0  0  0  0  0
    1.9590   -6.5490  -28.2950 N   0  0  0  0  0  0  0  0  0  0  0  0
    2.5140   -7.5520  -27.5780 C   0  0  0  0  0  0  0  0  0  0  0  0
    3.5640   -8.3420  -28.0900 C   0  0  0  0  0  0  0  0  0  0  0  0
    4.0930   -9.4230  -27.3580 C   0  0  0  0  0  3  0  0  0  0  0  0
    3.5680   -9.7570  -26.1200 C   0  0  0  0  0  3  0  0  0  0  0  0
    2.5460   -8.9790  -25.5910 C   0  0  0  0  0  3  0  0  0  0  0  0
    2.0510   -7.8410  -26.2790 C   0  0  0  0  0  0  0  0  0  0  0  0
    4.2000   -8.0990  -29.4250 C   0  0  0  0  0  0  0  0  0  0  0  0
    4.4160   -6.8100  -29.8160 N   0  0  0  0  0  0  0  0  0  0  0  0
    4.5310   -9.0220  -30.1570 O   0  0  0  0  0  0  0  0  0  0  0  0
    4.8490   -6.6380  -30.7120 H   0  0  0  0  0  0  0  0  0  0  0  0
    4.1130   -6.0320  -29.2380 H   0  0  0  0  0  0  0  0  0  0  0  0
  2  1  1  1  0  0  0
  2  3  1  0  0  0  0
  3  4  1  0  0  0  0
  4  5  2  0  0  0  0
  6  5  1  0  0  0  0
  7  6  2  0  0  0  0
  8  3  2  0  0  0  0
  8  7  1  0  0  0  0
  9  7  1  0  0  0  0
  9 12  1  0  0  0  0
 10  9  1  0  0  0  0
 11 10  2  0  0  0  0
 13 10  1  1  0  0  0
 14 15  1  0  0  0  0
 14 13  1  0  0  0  0
 15 16  1  0  0  0  0
 15 13  1  0  0  0  0
 17 15  1  0  0  0  0
 18  2  1  0  0  0  0
 18 19  1  0  0  0  0
 20 18  1  0  0  0  0
 21 20  2  0  0  0  0
 22 21  1  0  0  0  0
 23 22  2  0  0  0  0
 23 24  1  0  0  0  0
 24 29  1  0  0  0  0
 25 24  2  0  0  0  0
 25 26  1  0  0  0  0
 26 27  2  0  0  0  0
 27 28  1  0  0  0  0
 29 20  1  0  0  0  0
 29 28  2  0  0  0  0
 30 25  1  0  0  0  0
 31 30  1  0  0  0  0
 31 34  1  0  0  0  0
 32 30  2  0  0  0  0
 33 31  1  0  0  0  0
M  END
>  <minimizedAffinity>
-8.91037178

$$$$

 OpenBabel10152419333D

 34 37  0  0  1  0  0  0  0  0999 V2000
    3.7270   -8.9660  -26.4400 C   0  0  0  0  0  1  0  0  0  0  0  0
    2.2670   -8.9020  -25.9700 C   0  0  2  0  0  3  0  0  0  0  0  0
    1.7120  -10.2670  -25.5770 C   0  0  0  0  0  0  0  0  0  0  0  0
    1.6520  -11.3620  -26.4430 C   0  0  0  0  0  3  0  0  0  0  0  0
    0.9750  -12.5230  -26.0590 C   0  0  0  0  0  3  0  0  0  0  0  0
    0.2970  -12.5920  -24.8340 C   0  0  0  0  0  3  0  0  0  0  0  0
    0.3530  -11.5240  -23.9490 C   0  0  0  0  0  0  0  0  0  0  0  0
    1.1160  -10.4060  -24.3110 C   0  0  0  0  0  3  0  0  0  0  0  0
   -0.3550  -11.3900  -22.7460 N   0  0  0  0  0  0  0  0  0  0  0  0
   -0.9820  -10.3680  -22.0900 C   0  0  0  0  0  0  0  0  0  0  0  0
   -1.3470  -10.5610  -20.9340 O   0  0  0  0  0  0  0  0  0  0  0  0
   -0.3640  -12.2110  -22.1480 H   0  0  0  0  0  0  0  0  0  0  0  0
   -1.2060   -9.0530  -22.7010 C   0  0  1  0  0  3  0  0  0  0  0  0
   -2.4200   -8.7060  -23.5400 C   0  0  0  0  0  2  0  0  0  0  0  0
   -2.3350   -8.2650  -22.1320 C   0  0  0  0  0  0  0  0  0  0  0  0
   -3.2360   -8.7840  -21.2320 F   0  0  0  0  0  0  0  0  0  0  0  0
   -2.1910   -6.9280  -21.8480 F   0  0  0  0  0  0  0  0  0  0  0  0
    1.4730   -8.2580  -27.0270 N   0  0  0  0  0  0  0  0  0  0  0  0
    0.5690   -8.7000  -27.1760 H   0  0  0  0  0  0  0  0  0  0  0  0
    1.2610   -6.8930  -27.1130 C   0  0  0  0  0  0  0  0  0  0  0  0
    1.6680   -6.4010  -28.2920 N   0  0  0  0  0  0  0  0  0  0  0  0
    1.3440   -5.1380  -28.5530 C   0  0  0  0  0  3  0  0  0  0  0  0
    0.6380   -4.3280  -27.7580 N   0  0  0  0  0  0  0  0  0  0  0  0
    0.2800   -4.7910  -26.5390 C   0  0  0  0  0  0  0  0  0  0  0  0
   -0.4600   -4.0050  -25.6310 C   0  0  0  0  0  0  0  0  0  0  0  0
   -0.7740   -4.4760  -24.3410 C   0  0  0  0  0  3  0  0  0  0  0  0
   -0.3340   -5.7200  -23.9200 C   0  0  0  0  0  3  0  0  0  0  0  0
    0.3800   -6.5160  -24.8080 C   0  0  0  0  0  3  0  0  0  0  0  0
    0.6430   -6.0910  -26.1360 C   0  0  0  0  0  0  0  0  0  0  0  0
   -0.9720   -2.6340  -25.9570 C   0  0  0  0  0  0  0  0  0  0  0  0
   -0.5010   -2.0150  -27.0770 N   0  0  0  0  0  0  0  0  0  0  0  0
   -1.7980   -2.0730  -25.2500 O   0  0  0  0  0  0  0  0  0  0  0  0
   -0.8450   -1.0940  -27.3060 H   0  0  0  0  0  0  0  0  0  0  0  0
    0.2130   -2.4510  -27.6540 H   0  0  0  0  0  0  0  0  0  0  0  0
  2  1  1  6  0  0  0
  2  3  1  0  0  0  0
  3  8  1  0  0  0  0
  4  5  1  0  0  0  0
  4  3  2  0  0  0  0
  5  6  2  0  0  0  0
  6  7  1  0  0  0  0
  7  9  1  0  0  0  0
  8  7  2  0  0  0  0
  9 12  1  0  0  0  0
  9 10  1  0  0  0  0
 10 11  2  0  0  0  0
 13 15  1  0  0  0  0
 13 10  1  1  0  0  0
 14 13  1  0  0  0  0
 14 15  1  0  0  0  0
 15 17  1  0  0  0  0
 15 16  1  0  0  0  0
 18  2  1  0  0  0  0
 19 18  1  0  0  0  0
 20 18  1  0  0  0  0
 20 29  1  0  0  0  0
 21 20  2  0  0  0  0
 22 21  1  0  0  0  0
 22 23  2  0  0  0  0
 23 24  1  0  0  0  0
 24 29  2  0  0  0  0
 24 25  1  0  0  0  0
 25 26  2  0  0  0  0
 26 27  1  0  0  0  0
 28 27  2  0  0  0  0
 29 28  1  0  0  0  0
 30 25  1  0  0  0  0
 30 32  2  0  0  0  0
 31 30  1  0  0  0  0
 33 31  1  0  0  0  0
 34 31  1  0  0  0  0
M  END
>  <minimizedAffinity>
-8.73859978

$$$$
