
 OpenBabel10152419333D

 34 37  0  0  1  0  0  0  0  0999 V2000
   -0.6500  -10.0590  -26.4920 C   0  0  0  0  0  1  0  0  0  0  0  0
    0.8040  -10.1780  -26.0120 C   0  0  2  0  0  3  0  0  0  0  0  0
    0.9530  -11.0770  -24.7890 C   0  0  0  0  0  0  0  0  0  0  0  0
    2.0300  -11.9430  -24.5860 C   0  0  0  0  0  3  0  0  0  0  0  0
    2.0060  -12.8540  -23.5250 C   0  0  0  0  0  3  0  0  0  0  0  0
    0.8860  -12.9590  -22.6880 C   0  0  0  0  0  3  0  0  0  0  0  0
   -0.1900  -12.1000  -22.8600 C   0  0  0  0  0  0  0  0  0  0  0  0
   -0.1080  -11.1300  -23.8670 C   0  0  0  0  0  3  0  0  0  0  0  0
   -1.4200  -12.1490  -22.1880 N   0  0  0  0  0  0  0  0  0  0  0  0
   -2.0010  -11.4550  -21.1640 C   0  0  0  0  0  0  0  0  0  0  0  0
   -3.0430  -11.8940  -20.6860 O   0  0  0  0  0  0  0  0  0  0  0  0
   -2.0300  -12.9200  -22.4410 H   0  0  0  0  0  0  0  0  0  0  0  0
   -1.4150  -10.2330  -20.6010 C   0  0  1  0  0  3  0  0  0  0  0  0
   -0.9200   -9.0690  -21.4360 C   0  0  0  0  0  2  0  0  0  0  0  0
   -2.2320   -8.9970  -20.7600 C   0  0  0  0  0  0  0  0  0  0  0  0
   -3.3640   -8.9380  -21.5380 F   0  0  0  0  0  0  0  0  0  0  0  0
   -2.4070   -8.1250  -19.7110 F   0  0  0  0  0  0  0  0  0  0  0  0
    1.3200   -8.8210  -25.7760 N   0  0  0  0  0  0  0  0  0  0  0  0
    2.0810   -8.5670  -26.4020 H   0  0  0  0  0  0  0  0  0  0  0  0
    0.5200   -7.6990  -25.6570 C   0  0  0  0  0  0  0  0  0  0  0  0
   -0.2810   -7.7720  -24.5830 N   0  0  0  0  0  0  0  0  0  0  0  0
   -0.9570   -6.6700  -24.2710 C   0  0  0  0  0  3  0  0  0  0  0  0
   -0.8960   -5.5010  -24.9150 N   0  0  0  0  0  0  0  0  0  0  0  0
   -0.1450   -5.4350  -26.0380 C   0  0  0  0  0  0  0  0  0  0  0  0
   -0.0270   -4.2460  -26.7870 C   0  0  0  0  0  0  0  0  0  0  0  0
    0.7080   -4.2050  -27.9870 C   0  0  0  0  0  3  0  0  0  0  0  0
    1.3120   -5.3500  -28.4800 C   0  0  0  0  0  3  0  0  0  0  0  0
    1.2230   -6.5270  -27.7470 C   0  0  0  0  0  3  0  0  0  0  0  0
    0.5500   -6.5700  -26.4980 C   0  0  0  0  0  0  0  0  0  0  0  0
   -0.6540   -2.9480  -26.3740 C   0  0  0  0  0  0  0  0  0  0  0  0
   -0.4960   -1.8630  -27.1860 N   0  0  0  0  0  0  0  0  0  0  0  0
   -1.3010   -2.8480  -25.3400 O   0  0  0  0  0  0  0  0  0  0  0  0
   -0.9200   -0.9880  -26.9170 H   0  0  0  0  0  0  0  0  0  0  0  0
    0.0690   -1.9200  -28.0280 H   0  0  0  0  0  0  0  0  0  0  0  0
  2  1  1  1  0  0  0
  2 18  1  0  0  0  0
  2  3  1  0  0  0  0
  3  4  2  0  0  0  0
  3  8  1  0  0  0  0
  4  5  1  0  0  0  0
  5  6  2  0  0  0  0
  7  6  1  0  0  0  0
  7  9  1  0  0  0  0
  8  7  2  0  0  0  0
  9 10  1  0  0  0  0
 10 11  2  0  0  0  0
 12  9  1  0  0  0  0
 13 10  1  6  0  0  0
 14 15  1  0  0  0  0
 14 13  1  0  0  0  0
 15 13  1  0  0  0  0
 15 17  1  0  0  0  0
 16 15  1  0  0  0  0
 18 20  1  0  0  0  0
 19 18  1  0  0  0  0
 20 21  1  0  0  0  0
 21 22  2  0  0  0  0
 23 22  1  0  0  0  0
 24 23  2  0  0  0  0
 25 30  1  0  0  0  0
 25 24  1  0  0  0  0
 26 25  2  0  0  0  0
 27 26  1  0  0  0  0
 27 28  2  0  0  0  0
 28 29  1  0  0  0  0
 29 24  1  0  0  0  0
 29 20  2  0  0  0  0
 30 32  2  0  0  0  0
 31 33  1  0  0  0  0
 31 30  1  0  0  0  0
 34 31  1  0  0  0  0
M  END
>  <minimizedAffinity>
-9.20219803

$$$$
