
 OpenBabel10152419233D

 37 40  0  0  0  0  0  0  0  0999 V2000
    6.2960  -11.5850    9.3120 C   0  0  0  0  0  0  0  0  0  0  0  0
    5.6390  -10.9170    8.2790 C   0  0  0  0  0  3  0  0  0  0  0  0
    5.9930   -9.6090    7.9670 C   0  0  0  0  0  3  0  0  0  0  0  0
    7.0250   -8.9840    8.6660 C   0  0  0  0  0  3  0  0  0  0  0  0
    7.7800   -9.6730    9.6280 C   0  0  0  0  0  0  0  0  0  0  0  0
    7.4060  -10.9900    9.9290 C   0  0  0  0  0  3  0  0  0  0  0  0
    6.4120  -13.9660   10.1490 C   0  0  0  0  0  0  0  0  0  0  0  0
    5.8020  -15.0310   10.2120 O   0  0  0  0  0  0  0  0  0  0  0  0
    5.7720  -12.8280    9.7050 N   0  0  0  0  0  0  0  0  0  0  0  0
    4.7630  -12.9250    9.7160 H   0  0  0  0  0  0  0  0  0  0  0  0
   10.5620  -10.6290    9.8740 C   0  0  0  0  0  1  0  0  0  0  0  0
   10.7890  -11.7660   10.7260 N   0  0  0  0  0  0  0  0  0  0  0  0
    9.9160  -12.8020   10.9070 C   0  0  0  0  0  0  0  0  0  0  0  0
    8.5860  -12.7600   10.5300 C   0  0  0  0  0  3  0  0  0  0  0  0
    7.8100  -13.9180   10.6410 C   0  0  0  0  0  0  0  0  0  0  0  0
    8.3420  -15.0510   11.2400 C   0  0  0  0  0  3  0  0  0  0  0  0
    9.6590  -14.9910   11.6400 C   0  0  0  0  0  3  0  0  0  0  0  0
   10.4480  -13.9060   11.4650 N   0  0  0  0  0  0  0  0  0  0  0  0
   11.7280  -11.9690   11.0480 H   0  0  0  0  0  0  0  0  0  0  0  0
    8.9170   -9.0050   10.3880 C   0  0  0  0  0  2  0  0  0  0  0  0
    8.5580   -8.7280   11.7680 N   0  0  0  0  0  0  0  0  0  0  0  0
    8.1360   -7.8420   11.9940 H   0  0  0  0  0  0  0  0  0  0  0  0
    8.5800   -9.7610   12.6920 C   0  0  0  0  0  0  0  0  0  0  0  0
    9.7830  -10.0960   13.1900 N   0  0  0  0  0  0  0  0  0  0  0  0
    9.8680  -11.2610   13.8260 C   0  0  0  0  0  3  0  0  0  0  0  0
    8.8900  -12.1630   13.9270 N   0  0  0  0  0  0  0  0  0  0  0  0
    7.6740  -11.8200   13.4590 C   0  0  0  0  0  0  0  0  0  0  0  0
    6.5990  -12.7180   13.4890 C   0  0  0  0  0  0  0  0  0  0  0  0
    5.3010  -12.3610   13.0940 C   0  0  0  0  0  3  0  0  0  0  0  0
    5.0630  -11.0950   12.5870 C   0  0  0  0  0  3  0  0  0  0  0  0
    6.1290  -10.2120   12.4510 C   0  0  0  0  0  3  0  0  0  0  0  0
    7.4380  -10.5630   12.8790 C   0  0  0  0  0  0  0  0  0  0  0  0
    6.8030  -14.1390   13.8400 C   0  0  0  0  0  0  0  0  0  0  0  0
    8.1030  -14.5550   13.9260 N   0  0  0  0  0  0  0  0  0  0  0  0
    5.8640  -14.9190   13.9290 O   0  0  0  0  0  0  0  0  0  0  0  0
    8.2850  -15.5290   14.1190 H   0  0  0  0  0  0  0  0  0  0  0  0
    8.8820  -13.9140   13.8580 H   0  0  0  0  0  0  0  0  0  0  0  0
  1  9  1  0  0  0  0
  1  6  1  0  0  0  0
  2  1  2  0  0  0  0
  3  2  1  0  0  0  0
  3  4  2  0  0  0  0
  4  5  1  0  0  0  0
  5  6  2  0  0  0  0
  5 20  1  0  0  0  0
  7  8  2  0  0  0  0
  7 15  1  0  0  0  0
  9 10  1  0  0  0  0
  9  7  1  0  0  0  0
 11 12  1  0  0  0  0
 12 13  1  0  0  0  0
 12 19  1  0  0  0  0
 13 18  1  0  0  0  0
 14 15  1  0  0  0  0
 14 13  2  0  0  0  0
 15 16  2  0  0  0  0
 16 17  1  0  0  0  0
 18 17  2  0  0  0  0
 20 21  1  0  0  0  0
 21 22  1  0  0  0  0
 21 23  1  0  0  0  0
 23 32  2  0  0  0  0
 23 24  1  0  0  0  0
 24 25  2  0  0  0  0
 25 26  1  0  0  0  0
 27 28  1  0  0  0  0
 27 26  2  0  0  0  0
 28 33  1  0  0  0  0
 29 28  2  0  0  0  0
 30 29  1  0  0  0  0
 31 30  2  0  0  0  0
 31 32  1  0  0  0  0
 32 27  1  0  0  0  0
 33 34  1  0  0  0  0
 33 35  2  0  0  0  0
 34 36  1  0  0  0  0
 37 34  1  0  0  0  0
M  END
>  <minimizedAffinity>
1.3715086

$$$$

 OpenBabel10152419233D

 37 40  0  0  0  0  0  0  0  0999 V2000
    7.3130  -13.4130   10.4550 C   0  0  0  0  0  0  0  0  0  0  0  0
    7.8820  -12.7310    9.3800 C   0  0  0  0  0  3  0  0  0  0  0  0
    9.2630  -12.7260    9.2170 C   0  0  0  0  0  3  0  0  0  0  0  0
   10.0690  -13.4310   10.1100 C   0  0  0  0  0  3  0  0  0  0  0  0
    9.5150  -14.2210   11.1290 C   0  0  0  0  0  0  0  0  0  0  0  0
    8.1210  -14.2110   11.2770 C   0  0  0  0  0  3  0  0  0  0  0  0
    5.1400  -12.1240   10.4580 C   0  0  0  0  0  0  0  0  0  0  0  0
    4.0110  -12.0760   10.9400 O   0  0  0  0  0  0  0  0  0  0  0  0
    5.9370  -13.2280   10.6750 N   0  0  0  0  0  0  0  0  0  0  0  0
    5.4080  -14.0260   11.0060 H   0  0  0  0  0  0  0  0  0  0  0  0
    9.3470   -8.8750   10.0350 C   0  0  0  0  0  1  0  0  0  0  0  0
    8.3980   -8.7350    8.9630 N   0  0  0  0  0  0  0  0  0  0  0  0
    7.2040   -9.3960    8.8750 C   0  0  0  0  0  0  0  0  0  0  0  0
    6.8770  -10.4960    9.6480 C   0  0  0  0  0  3  0  0  0  0  0  0
    5.5830  -11.0190    9.5740 C   0  0  0  0  0  0  0  0  0  0  0  0
    4.6860  -10.5140    8.6440 C   0  0  0  0  0  3  0  0  0  0  0  0
    5.1100   -9.4540    7.8730 C   0  0  0  0  0  3  0  0  0  0  0  0
    6.3300   -8.8820    7.9890 N   0  0  0  0  0  0  0  0  0  0  0  0
    8.4670   -7.9440    8.3330 H   0  0  0  0  0  0  0  0  0  0  0  0
   10.3850  -15.0050   12.1020 C   0  0  0  0  0  2  0  0  0  0  0  0
   10.1490  -14.6110   13.4810 N   0  0  0  0  0  0  0  0  0  0  0  0
   10.8790  -14.7480   14.1590 H   0  0  0  0  0  0  0  0  0  0  0  0
    9.0340  -13.8440   13.7810 C   0  0  0  0  0  0  0  0  0  0  0  0
    7.8490  -14.4780   13.7750 N   0  0  0  0  0  0  0  0  0  0  0  0
    6.7590  -13.7170   13.7540 C   0  0  0  0  0  3  0  0  0  0  0  0
    6.7430  -12.3880   13.6430 N   0  0  0  0  0  0  0  0  0  0  0  0
    7.9260  -11.7440   13.6820 C   0  0  0  0  0  0  0  0  0  0  0  0
    8.0070  -10.3530   13.5350 C   0  0  0  0  0  0  0  0  0  0  0  0
    9.2110   -9.6460   13.6620 C   0  0  0  0  0  3  0  0  0  0  0  0
   10.3920  -10.3360   13.8750 C   0  0  0  0  0  3  0  0  0  0  0  0
   10.3600  -11.7250   13.9270 C   0  0  0  0  0  3  0  0  0  0  0  0
    9.1360  -12.4400   13.8280 C   0  0  0  0  0  0  0  0  0  0  0  0
    6.8280   -9.5610   13.1230 C   0  0  0  0  0  0  0  0  0  0  0  0
    5.6590   -9.8410   13.7770 N   0  0  0  0  0  0  0  0  0  0  0  0
    6.8740   -8.7880   12.1750 O   0  0  0  0  0  0  0  0  0  0  0  0
    4.8210   -9.3530   13.4940 H   0  0  0  0  0  0  0  0  0  0  0  0
    5.6170  -10.4740   14.5630 H   0  0  0  0  0  0  0  0  0  0  0  0
  1  9  1  0  0  0  0
  1  6  1  0  0  0  0
  2  1  2  0  0  0  0
  3  2  1  0  0  0  0
  3  4  2  0  0  0  0
  4  5  1  0  0  0  0
  5  6  2  0  0  0  0
  5 20  1  0  0  0  0
  7  9  1  0  0  0  0
  7  8  2  0  0  0  0
  9 10  1  0  0  0  0
 12 11  1  0  0  0  0
 13 12  1  0  0  0  0
 13 14  1  0  0  0  0
 15 14  2  0  0  0  0
 15  7  1  0  0  0  0
 16 15  1  0  0  0  0
 17 18  1  0  0  0  0
 17 16  2  0  0  0  0
 18 13  2  0  0  0  0
 19 12  1  0  0  0  0
 20 21  1  0  0  0  0
 21 23  1  0  0  0  0
 21 22  1  0  0  0  0
 23 32  1  0  0  0  0
 24 23  2  0  0  0  0
 25 24  1  0  0  0  0
 26 27  1  0  0  0  0
 26 25  2  0  0  0  0
 27 32  1  0  0  0  0
 28 29  1  0  0  0  0
 28 27  2  0  0  0  0
 29 30  2  0  0  0  0
 30 31  1  0  0  0  0
 32 31  2  0  0  0  0
 33 28  1  0  0  0  0
 33 34  1  0  0  0  0
 34 37  1  0  0  0  0
 35 33  2  0  0  0  0
 36 34  1  0  0  0  0
M  END
>  <minimizedAffinity>
3.21866727

$$$$

 OpenBabel10152419233D

 37 40  0  0  0  0  0  0  0  0999 V2000
    8.1810   -8.9480   12.3470 C   0  0  0  0  0  0  0  0  0  0  0  0
    9.3610   -8.8550   13.0840 C   0  0  0  0  0  3  0  0  0  0  0  0
   10.5890   -8.9960   12.4460 C   0  0  0  0  0  3  0  0  0  0  0  0
   10.6340   -9.1980   11.0680 C   0  0  0  0  0  3  0  0  0  0  0  0
    9.4680   -9.1790   10.2860 C   0  0  0  0  0  0  0  0  0  0  0  0
    8.2410   -9.0360   10.9490 C   0  0  0  0  0  3  0  0  0  0  0  0
    6.2220  -10.0600   13.4910 C   0  0  0  0  0  0  0  0  0  0  0  0
    5.0750   -9.8850   13.8970 O   0  0  0  0  0  0  0  0  0  0  0  0
    6.9760   -8.9850   13.0690 N   0  0  0  0  0  0  0  0  0  0  0  0
    6.5950   -8.1000   13.3820 H   0  0  0  0  0  0  0  0  0  0  0  0
   10.7810  -12.4670   12.1280 C   0  0  0  0  0  1  0  0  0  0  0  0
    9.8630  -13.3220   12.8340 N   0  0  0  0  0  0  0  0  0  0  0  0
    8.6020  -12.9710   13.2270 C   0  0  0  0  0  0  0  0  0  0  0  0
    8.1430  -11.6660   13.2590 C   0  0  0  0  0  3  0  0  0  0  0  0
    6.7980  -11.4250   13.5520 C   0  0  0  0  0  0  0  0  0  0  0  0
    5.9730  -12.4770   13.9260 C   0  0  0  0  0  3  0  0  0  0  0  0
    6.5240  -13.7390   13.9230 C   0  0  0  0  0  3  0  0  0  0  0  0
    7.8010  -14.0000   13.5630 N   0  0  0  0  0  0  0  0  0  0  0  0
   10.0290  -14.3210   12.8590 H   0  0  0  0  0  0  0  0  0  0  0  0
    9.5070   -9.3860    8.7780 C   0  0  0  0  0  2  0  0  0  0  0  0
    8.2220   -9.1100    8.1590 N   0  0  0  0  0  0  0  0  0  0  0  0
    8.1710   -8.4230    7.4260 H   0  0  0  0  0  0  0  0  0  0  0  0
    7.1540   -9.9560    8.4160 C   0  0  0  0  0  0  0  0  0  0  0  0
    5.9330   -9.3940    8.4330 N   0  0  0  0  0  0  0  0  0  0  0  0
    4.9490  -10.1080    8.9720 C   0  0  0  0  0  3  0  0  0  0  0  0
    5.0890  -11.2880    9.5800 N   0  0  0  0  0  0  0  0  0  0  0  0
    6.3030  -11.8710    9.5380 C   0  0  0  0  0  0  0  0  0  0  0  0
    6.5510  -13.0900   10.1810 C   0  0  0  0  0  0  0  0  0  0  0  0
    7.7750  -13.7670   10.0790 C   0  0  0  0  0  3  0  0  0  0  0  0
    8.8190  -13.1920    9.3750 C   0  0  0  0  0  3  0  0  0  0  0  0
    8.6380  -11.9350    8.8080 C   0  0  0  0  0  3  0  0  0  0  0  0
    7.3870  -11.2630    8.8850 C   0  0  0  0  0  0  0  0  0  0  0  0
    5.5570  -13.6820   11.1020 C   0  0  0  0  0  0  0  0  0  0  0  0
    5.7160  -15.0110   11.3820 N   0  0  0  0  0  0  0  0  0  0  0  0
    4.5860  -13.0470   11.4920 O   0  0  0  0  0  0  0  0  0  0  0  0
    5.0320  -15.4640   11.9710 H   0  0  0  0  0  0  0  0  0  0  0  0
    6.5180  -15.5390   11.0670 H   0  0  0  0  0  0  0  0  0  0  0  0
  1  9  1  0  0  0  0
  1  2  1  0  0  0  0
  3  2  2  0  0  0  0
  4  3  1  0  0  0  0
  5  6  1  0  0  0  0
  5  4  2  0  0  0  0
  6  1  2  0  0  0  0
  7 15  1  0  0  0  0
  7  8  2  0  0  0  0
  9 10  1  0  0  0  0
  9  7  1  0  0  0  0
 11 12  1  0  0  0  0
 12 19  1  0  0  0  0
 12 13  1  0  0  0  0
 13 14  2  0  0  0  0
 13 18  1  0  0  0  0
 14 15  1  0  0  0  0
 15 16  2  0  0  0  0
 17 16  1  0  0  0  0
 18 17  2  0  0  0  0
 20  5  1  0  0  0  0
 21 23  1  0  0  0  0
 21 20  1  0  0  0  0
 22 21  1  0  0  0  0
 23 24  2  0  0  0  0
 23 32  1  0  0  0  0
 24 25  1  0  0  0  0
 25 26  2  0  0  0  0
 27 26  1  0  0  0  0
 27 28  1  0  0  0  0
 28 33  1  0  0  0  0
 29 28  2  0  0  0  0
 30 29  1  0  0  0  0
 31 32  1  0  0  0  0
 31 30  2  0  0  0  0
 32 27  2  0  0  0  0
 33 34  1  0  0  0  0
 33 35  2  0  0  0  0
 34 36  1  0  0  0  0
 37 34  1  0  0  0  0
M  END
>  <minimizedAffinity>
3.91394496

$$$$
