
 OpenBabel10152419233D

 37 40  0  0  0  0  0  0  0  0999 V2000
    7.3130  -13.4130   10.4550 C   0  0  0  0  0  0  0  0  0  0  0  0
    7.8820  -12.7310    9.3800 C   0  0  0  0  0  3  0  0  0  0  0  0
    9.2630  -12.7260    9.2170 C   0  0  0  0  0  3  0  0  0  0  0  0
   10.0690  -13.4310   10.1100 C   0  0  0  0  0  3  0  0  0  0  0  0
    9.5150  -14.2210   11.1290 C   0  0  0  0  0  0  0  0  0  0  0  0
    8.1210  -14.2110   11.2770 C   0  0  0  0  0  3  0  0  0  0  0  0
    5.1400  -12.1240   10.4580 C   0  0  0  0  0  0  0  0  0  0  0  0
    4.0110  -12.0760   10.9400 O   0  0  0  0  0  0  0  0  0  0  0  0
    5.9370  -13.2280   10.6750 N   0  0  0  0  0  0  0  0  0  0  0  0
    5.4080  -14.0260   11.0060 H   0  0  0  0  0  0  0  0  0  0  0  0
    9.3470   -8.8750   10.0350 C   0  0  0  0  0  1  0  0  0  0  0  0
    8.3980   -8.7350    8.9630 N   0  0  0  0  0  0  0  0  0  0  0  0
    7.2040   -9.3960    8.8750 C   0  0  0  0  0  0  0  0  0  0  0  0
    6.8770  -10.4960    9.6480 C   0  0  0  0  0  3  0  0  0  0  0  0
    5.5830  -11.0190    9.5740 C   0  0  0  0  0  0  0  0  0  0  0  0
    4.6860  -10.5140    8.6440 C   0  0  0  0  0  3  0  0  0  0  0  0
    5.1100   -9.4540    7.8730 C   0  0  0  0  0  3  0  0  0  0  0  0
    6.3300   -8.8820    7.9890 N   0  0  0  0  0  0  0  0  0  0  0  0
    8.4670   -7.9440    8.3330 H   0  0  0  0  0  0  0  0  0  0  0  0
   10.3850  -15.0050   12.1020 C   0  0  0  0  0  2  0  0  0  0  0  0
   10.1490  -14.6110   13.4810 N   0  0  0  0  0  0  0  0  0  0  0  0
   10.8790  -14.7480   14.1590 H   0  0  0  0  0  0  0  0  0  0  0  0
    9.0340  -13.8440   13.7810 C   0  0  0  0  0  0  0  0  0  0  0  0
    7.8490  -14.4780   13.7750 N   0  0  0  0  0  0  0  0  0  0  0  0
    6.7590  -13.7170   13.7540 C   0  0  0  0  0  3  0  0  0  0  0  0
    6.7430  -12.3880   13.6430 N   0  0  0  0  0  0  0  0  0  0  0  0
    7.9260  -11.7440   13.6820 C   0  0  0  0  0  0  0  0  0  0  0  0
    8.0070  -10.3530   13.5350 C   0  0  0  0  0  0  0  0  0  0  0  0
    9.2110   -9.6460   13.6620 C   0  0  0  0  0  3  0  0  0  0  0  0
   10.3920  -10.3360   13.8750 C   0  0  0  0  0  3  0  0  0  0  0  0
   10.3600  -11.7250   13.9270 C   0  0  0  0  0  3  0  0  0  0  0  0
    9.1360  -12.4400   13.8280 C   0  0  0  0  0  0  0  0  0  0  0  0
    6.8280   -9.5610   13.1230 C   0  0  0  0  0  0  0  0  0  0  0  0
    5.6590   -9.8410   13.7770 N   0  0  0  0  0  0  0  0  0  0  0  0
    6.8740   -8.7880   12.1750 O   0  0  0  0  0  0  0  0  0  0  0  0
    4.8210   -9.3530   13.4940 H   0  0  0  0  0  0  0  0  0  0  0  0
    5.6170  -10.4740   14.5630 H   0  0  0  0  0  0  0  0  0  0  0  0
  1  9  1  0  0  0  0
  1  6  1  0  0  0  0
  2  1  2  0  0  0  0
  3  2  1  0  0  0  0
  3  4  2  0  0  0  0
  4  5  1  0  0  0  0
  5  6  2  0  0  0  0
  5 20  1  0  0  0  0
  7  9  1  0  0  0  0
  7  8  2  0  0  0  0
  9 10  1  0  0  0  0
 12 11  1  0  0  0  0
 13 12  1  0  0  0  0
 13 14  1  0  0  0  0
 15 14  2  0  0  0  0
 15  7  1  0  0  0  0
 16 15  1  0  0  0  0
 17 18  1  0  0  0  0
 17 16  2  0  0  0  0
 18 13  2  0  0  0  0
 19 12  1  0  0  0  0
 20 21  1  0  0  0  0
 21 23  1  0  0  0  0
 21 22  1  0  0  0  0
 23 32  1  0  0  0  0
 24 23  2  0  0  0  0
 25 24  1  0  0  0  0
 26 27  1  0  0  0  0
 26 25  2  0  0  0  0
 27 32  1  0  0  0  0
 28 29  1  0  0  0  0
 28 27  2  0  0  0  0
 29 30  2  0  0  0  0
 30 31  1  0  0  0  0
 32 31  2  0  0  0  0
 33 28  1  0  0  0  0
 33 34  1  0  0  0  0
 34 37  1  0  0  0  0
 35 33  2  0  0  0  0
 36 34  1  0  0  0  0
M  END
>  <minimizedAffinity>
3.21866727

$$$$
