
 OpenBabel10152419233D

 37 40  0  0  0  0  0  0  0  0999 V2000
    6.2960  -11.5850    9.3120 C   0  0  0  0  0  0  0  0  0  0  0  0
    5.6390  -10.9170    8.2790 C   0  0  0  0  0  3  0  0  0  0  0  0
    5.9930   -9.6090    7.9670 C   0  0  0  0  0  3  0  0  0  0  0  0
    7.0250   -8.9840    8.6660 C   0  0  0  0  0  3  0  0  0  0  0  0
    7.7800   -9.6730    9.6280 C   0  0  0  0  0  0  0  0  0  0  0  0
    7.4060  -10.9900    9.9290 C   0  0  0  0  0  3  0  0  0  0  0  0
    6.4120  -13.9660   10.1490 C   0  0  0  0  0  0  0  0  0  0  0  0
    5.8020  -15.0310   10.2120 O   0  0  0  0  0  0  0  0  0  0  0  0
    5.7720  -12.8280    9.7050 N   0  0  0  0  0  0  0  0  0  0  0  0
    4.7630  -12.9250    9.7160 H   0  0  0  0  0  0  0  0  0  0  0  0
   10.5620  -10.6290    9.8740 C   0  0  0  0  0  1  0  0  0  0  0  0
   10.7890  -11.7660   10.7260 N   0  0  0  0  0  0  0  0  0  0  0  0
    9.9160  -12.8020   10.9070 C   0  0  0  0  0  0  0  0  0  0  0  0
    8.5860  -12.7600   10.5300 C   0  0  0  0  0  3  0  0  0  0  0  0
    7.8100  -13.9180   10.6410 C   0  0  0  0  0  0  0  0  0  0  0  0
    8.3420  -15.0510   11.2400 C   0  0  0  0  0  3  0  0  0  0  0  0
    9.6590  -14.9910   11.6400 C   0  0  0  0  0  3  0  0  0  0  0  0
   10.4480  -13.9060   11.4650 N   0  0  0  0  0  0  0  0  0  0  0  0
   11.7280  -11.9690   11.0480 H   0  0  0  0  0  0  0  0  0  0  0  0
    8.9170   -9.0050   10.3880 C   0  0  0  0  0  2  0  0  0  0  0  0
    8.5580   -8.7280   11.7680 N   0  0  0  0  0  0  0  0  0  0  0  0
    8.1360   -7.8420   11.9940 H   0  0  0  0  0  0  0  0  0  0  0  0
    8.5800   -9.7610   12.6920 C   0  0  0  0  0  0  0  0  0  0  0  0
    9.7830  -10.0960   13.1900 N   0  0  0  0  0  0  0  0  0  0  0  0
    9.8680  -11.2610   13.8260 C   0  0  0  0  0  3  0  0  0  0  0  0
    8.8900  -12.1630   13.9270 N   0  0  0  0  0  0  0  0  0  0  0  0
    7.6740  -11.8200   13.4590 C   0  0  0  0  0  0  0  0  0  0  0  0
    6.5990  -12.7180   13.4890 C   0  0  0  0  0  0  0  0  0  0  0  0
    5.3010  -12.3610   13.0940 C   0  0  0  0  0  3  0  0  0  0  0  0
    5.0630  -11.0950   12.5870 C   0  0  0  0  0  3  0  0  0  0  0  0
    6.1290  -10.2120   12.4510 C   0  0  0  0  0  3  0  0  0  0  0  0
    7.4380  -10.5630   12.8790 C   0  0  0  0  0  0  0  0  0  0  0  0
    6.8030  -14.1390   13.8400 C   0  0  0  0  0  0  0  0  0  0  0  0
    8.1030  -14.5550   13.9260 N   0  0  0  0  0  0  0  0  0  0  0  0
    5.8640  -14.9190   13.9290 O   0  0  0  0  0  0  0  0  0  0  0  0
    8.2850  -15.5290   14.1190 H   0  0  0  0  0  0  0  0  0  0  0  0
    8.8820  -13.9140   13.8580 H   0  0  0  0  0  0  0  0  0  0  0  0
  1  9  1  0  0  0  0
  1  6  1  0  0  0  0
  2  1  2  0  0  0  0
  3  2  1  0  0  0  0
  3  4  2  0  0  0  0
  4  5  1  0  0  0  0
  5  6  2  0  0  0  0
  5 20  1  0  0  0  0
  7  8  2  0  0  0  0
  7 15  1  0  0  0  0
  9 10  1  0  0  0  0
  9  7  1  0  0  0  0
 11 12  1  0  0  0  0
 12 13  1  0  0  0  0
 12 19  1  0  0  0  0
 13 18  1  0  0  0  0
 14 15  1  0  0  0  0
 14 13  2  0  0  0  0
 15 16  2  0  0  0  0
 16 17  1  0  0  0  0
 18 17  2  0  0  0  0
 20 21  1  0  0  0  0
 21 22  1  0  0  0  0
 21 23  1  0  0  0  0
 23 32  2  0  0  0  0
 23 24  1  0  0  0  0
 24 25  2  0  0  0  0
 25 26  1  0  0  0  0
 27 28  1  0  0  0  0
 27 26  2  0  0  0  0
 28 33  1  0  0  0  0
 29 28  2  0  0  0  0
 30 29  1  0  0  0  0
 31 30  2  0  0  0  0
 31 32  1  0  0  0  0
 32 27  1  0  0  0  0
 33 34  1  0  0  0  0
 33 35  2  0  0  0  0
 34 36  1  0  0  0  0
 37 34  1  0  0  0  0
M  END
>  <minimizedAffinity>
1.3715086

$$$$
