
 OpenBabel10152419193D

 34 37  0  0  1  0  0  0  0  0999 V2000
   10.4950  -14.5670   12.8640 C   0  0  0  0  0  1  0  0  0  0  0  0
   10.6900  -13.5050   11.7710 C   0  0  2  0  0  3  0  0  0  0  0  0
   10.4310  -12.0720   12.2410 C   0  0  0  0  0  0  0  0  0  0  0  0
   10.5960  -11.6260   13.5560 C   0  0  0  0  0  3  0  0  0  0  0  0
   10.2980  -10.2990   13.9060 C   0  0  0  0  0  3  0  0  0  0  0  0
    9.7910   -9.4010   12.9600 C   0  0  0  0  0  3  0  0  0  0  0  0
    9.6410   -9.8100   11.6440 C   0  0  0  0  0  0  0  0  0  0  0  0
    9.9960  -11.1190   11.3010 C   0  0  0  0  0  3  0  0  0  0  0  0
    8.9960   -9.0710   10.6410 N   0  0  0  0  0  0  0  0  0  0  0  0
    8.2820   -9.4270    9.5460 C   0  0  0  0  0  0  0  0  0  0  0  0
    8.4460   -8.7440    8.5260 O   0  0  0  0  0  0  0  0  0  0  0  0
    9.3240   -8.1150   10.5560 H   0  0  0  0  0  0  0  0  0  0  0  0
    7.1060  -10.3900    9.5960 C   0  0  0  0  0  3  0  0  0  0  0  0
    6.0400  -10.3430   10.6770 C   0  0  0  0  0  2  0  0  0  0  0  0
    4.9000  -11.1580   10.0770 C   0  0  0  0  0  2  0  0  0  0  0  0
    4.9160  -10.8300    8.5900 C   0  0  0  0  0  2  0  0  0  0  0  0
    6.2650  -10.1700    8.3250 C   0  0  0  0  0  2  0  0  0  0  0  0
    9.8300  -13.8990   10.6450 N   0  0  0  0  0  0  0  0  0  0  0  0
   10.1250  -14.7600   10.1920 H   0  0  0  0  0  0  0  0  0  0  0  0
    8.4500  -13.8880   10.6370 C   0  0  0  0  0  0  0  0  0  0  0  0
    7.9560  -14.3960    9.4990 N   0  0  0  0  0  0  0  0  0  0  0  0
    6.6510  -14.6530    9.4780 C   0  0  0  0  0  3  0  0  0  0  0  0
    5.8070  -14.4940   10.5020 N   0  0  0  0  0  0  0  0  0  0  0  0
    6.2790  -13.9120   11.6250 C   0  0  0  0  0  0  0  0  0  0  0  0
    5.4750  -13.7320   12.7680 C   0  0  0  0  0  0  0  0  0  0  0  0
    5.9580  -13.0580   13.9060 C   0  0  0  0  0  3  0  0  0  0  0  0
    7.2420  -12.5420   13.9250 C   0  0  0  0  0  3  0  0  0  0  0  0
    8.0650  -12.7510   12.8270 C   0  0  0  0  0  3  0  0  0  0  0  0
    7.6210  -13.4900   11.7020 C   0  0  0  0  0  0  0  0  0  0  0  0
    4.0900  -14.2870   12.8890 C   0  0  0  0  0  0  0  0  0  0  0  0
    3.2340  -14.1270   11.8400 N   0  0  0  0  0  0  0  0  0  0  0  0
    3.7370  -14.9110   13.8830 O   0  0  0  0  0  0  0  0  0  0  0  0
    2.3150  -14.5430   11.8870 H   0  0  0  0  0  0  0  0  0  0  0  0
    3.4970  -13.5860   11.0220 H   0  0  0  0  0  0  0  0  0  0  0  0
  2  3  1  0  0  0  0
  2  1  1  1  0  0  0
  3  4  1  0  0  0  0
  4  5  2  0  0  0  0
  6  5  1  0  0  0  0
  7  6  2  0  0  0  0
  8  7  1  0  0  0  0
  8  3  2  0  0  0  0
  9  7  1  0  0  0  0
 10 13  1  0  0  0  0
 10  9  1  0  0  0  0
 11 10  2  0  0  0  0
 12  9  1  0  0  0  0
 13 14  1  0  0  0  0
 15 14  1  0  0  0  0
 16 15  1  0  0  0  0
 17 16  1  0  0  0  0
 17 13  1  0  0  0  0
 18  2  1  0  0  0  0
 19 18  1  0  0  0  0
 20 18  1  0  0  0  0
 20 29  1  0  0  0  0
 21 20  2  0  0  0  0
 22 21  1  0  0  0  0
 22 23  2  0  0  0  0
 23 24  1  0  0  0  0
 24 29  2  0  0  0  0
 24 25  1  0  0  0  0
 25 30  1  0  0  0  0
 25 26  2  0  0  0  0
 26 27  1  0  0  0  0
 28 27  2  0  0  0  0
 29 28  1  0  0  0  0
 30 32  2  0  0  0  0
 31 33  1  0  0  0  0
 31 30  1  0  0  0  0
 34 31  1  0  0  0  0
M  END
>  <minimizedAffinity>
1.27805686

$$$$
