
 OpenBabel11232419273D

 37 41  0  0  1  0  0  0  0  0999 V2000
   34.6750   43.1520   19.4420 C   0  0  0  0  0  0  0  0  0  0  0  0
   33.9200   42.1720   19.4950 O   0  0  0  0  0  0  0  0  0  0  0  0
   35.8120   43.2470   20.2300 N   0  0  0  0  0  0  0  0  0  0  0  0
   36.0950   42.1310   21.1570 C   0  0  0  0  0  2  0  0  0  0  0  0
   37.5250   42.0560   21.7160 C   0  0  0  0  0  2  0  0  0  0  0  0
   37.9000   43.3550   22.2830 N   0  0  0  0  0  0  0  0  0  0  0  0
   37.7470   44.5010   21.3740 C   0  0  1  0  0  3  0  0  0  0  0  0
   38.0590   44.4560   19.9050 C   0  0  0  0  0  2  0  0  0  0  0  0
   36.6260   44.4430   20.3570 C   0  0  1  0  0  3  0  0  0  0  0  0
   38.9340   43.3090   23.2330 C   0  0  0  0  0  0  0  0  0  0  0  0
   40.2000   43.4340   22.7840 N   0  0  0  0  0  0  0  0  0  0  0  0
   41.1900   43.2990   23.6770 C   0  0  0  0  0  3  0  0  0  0  0  0
   41.0460   42.9770   24.9630 N   0  0  0  0  0  0  0  0  0  0  0  0
   39.7850   42.7990   25.3640 C   0  0  0  0  0  0  0  0  0  0  0  0
   38.6700   43.0150   24.5670 C   0  0  0  0  0  0  0  0  0  0  0  0
   37.3040   42.8840   25.1890 C   0  0  2  0  0  3  0  0  0  0  0  0
   36.8940   44.1780   25.9110 C   0  0  0  0  0  1  0  0  0  0  0  0
   37.3020   41.7150   26.1760 C   0  0  0  0  0  2  0  0  0  0  0  0
   38.4500   41.8160   27.1570 C   0  0  0  0  0  0  0  0  0  0  0  0
   38.3620   41.3960   28.3060 O   0  0  0  0  0  0  0  0  0  0  0  0
   39.6200   42.3130   26.6590 N   0  0  0  0  0  0  0  0  0  0  0  0
   40.4430   42.2690   27.2450 H   0  0  0  0  0  0  0  0  0  0  0  0
   34.2630   44.3480   18.5790 C   0  0  1  0  0  3  0  0  0  0  0  0
   35.2420   44.6510   17.4540 C   0  0  0  0  0  0  0  0  0  0  0  0
   35.6950   45.9670   17.2610 C   0  0  0  0  0  3  0  0  0  0  0  0
   36.5650   46.2710   16.2110 C   0  0  0  0  0  3  0  0  0  0  0  0
   36.9870   45.2670   15.3450 C   0  0  0  0  0  0  0  0  0  0  0  0
   38.0500   45.6450   14.0490 Cl  0  0  0  0  0  0  0  0  0  0  0  0
   36.5440   43.9590   15.5190 C   0  0  0  0  0  3  0  0  0  0  0  0
   35.6730   43.6500   16.5670 C   0  0  0  0  0  3  0  0  0  0  0  0
   32.8590   44.1130   17.9730 C   0  0  0  0  0  2  0  0  0  0  0  0
   32.3950   45.2150   17.0530 N   0  0  0  0  0  4  0  0  0  0  0  0
   33.2080   45.8640   16.9830 H   0  0  0  0  0  0  0  0  0  0  0  0
   31.6710   45.7710   17.5320 H   0  0  0  0  0  0  0  0  0  0  0  0
   31.5660   43.3930   15.6020 C   0  0  0  0  0  1  0  0  0  0  0  0
   31.9370   44.8670   15.6690 C   0  0  0  0  0  3  0  0  0  0  0  0
   30.7490   45.7580   15.3290 C   0  0  0  0  0  1  0  0  0  0  0  0
  1  2  2  0  0  0  0
  1  3  1  0  0  0  0
  3  9  1  0  0  0  0
  3  4  1  0  0  0  0
  4  5  1  0  0  0  0
  5  6  1  0  0  0  0
  6 10  1  0  0  0  0
  7  8  1  6  0  0  0
  7  6  1  0  0  0  0
  9  8  1  6  0  0  0
  9  7  1  0  0  0  0
 10 15  1  0  0  0  0
 11 10  2  0  0  0  0
 11 12  1  0  0  0  0
 12 13  2  0  0  0  0
 13 14  1  0  0  0  0
 14 21  1  0  0  0  0
 15 16  1  0  0  0  0
 15 14  2  0  0  0  0
 16 17  1  1  0  0  0
 16 18  1  0  0  0  0
 18 19  1  0  0  0  0
 19 20  2  0  0  0  0
 21 19  1  0  0  0  0
 21 22  1  0  0  0  0
 23 31  1  6  0  0  0
 23  1  1  0  0  0  0
 24 23  1  0  0  0  0
 25 24  1  0  0  0  0
 26 25  2  0  0  0  0
 27 29  2  0  0  0  0
 27 26  1  0  0  0  0
 28 27  1  0  0  0  0
 29 30  1  0  0  0  0
 30 24  2  0  0  0  0
 32 34  1  0  0  0  0
 32 31  1  0  0  0  0
 33 32  1  0  0  0  0
 35 36  1  0  0  0  0
 36 32  1  0  0  0  0
 37 36  1  0  0  0  0
M  END
>  <minimizedAffinity>
-10.2672577

$$$$
