
 OpenBabel11232419273D

 37 41  0  0  1  0  0  0  0  0999 V2000
   35.7960   44.1230   19.6060 C   0  0  0  0  0  0  0  0  0  0  0  0
   35.6480   44.8020   20.6310 O   0  0  0  0  0  0  0  0  0  0  0  0
   34.7290   43.4970   18.9780 N   0  0  0  0  0  0  0  0  0  0  0  0
   33.3900   43.6590   19.5840 C   0  0  0  0  0  2  0  0  0  0  0  0
   32.1910   43.3120   18.6890 C   0  0  0  0  0  2  0  0  0  0  0  0
   32.3790   41.9780   18.1110 N   0  0  0  0  0  0  0  0  0  0  0  0
   33.6470   41.7800   17.3950 C   0  0  1  0  0  3  0  0  0  0  0  0
   34.2980   42.8250   16.5330 C   0  0  0  0  0  2  0  0  0  0  0  0
   34.8600   42.5370   17.8970 C   0  0  1  0  0  3  0  0  0  0  0  0
   31.1970   41.3430   17.6920 C   0  0  0  0  0  0  0  0  0  0  0  0
   30.4330   41.9820   16.7830 N   0  0  0  0  0  0  0  0  0  0  0  0
   29.2630   41.4210   16.4520 C   0  0  0  0  0  3  0  0  0  0  0  0
   28.7410   40.3190   16.9940 N   0  0  0  0  0  0  0  0  0  0  0  0
   29.4930   39.7420   17.9350 C   0  0  0  0  0  0  0  0  0  0  0  0
   30.7660   40.1630   18.2890 C   0  0  0  0  0  0  0  0  0  0  0  0
   31.5420   39.3440   19.2890 C   0  0  2  0  0  3  0  0  0  0  0  0
   32.2480   38.1590   18.6100 C   0  0  0  0  0  1  0  0  0  0  0  0
   30.5950   38.8330   20.3760 C   0  0  0  0  0  2  0  0  0  0  0  0
   29.3870   38.1440   19.7780 C   0  0  0  0  0  0  0  0  0  0  0  0
   28.8230   37.2130   20.3440 O   0  0  0  0  0  0  0  0  0  0  0  0
   28.9030   38.6830   18.6210 N   0  0  0  0  0  0  0  0  0  0  0  0
   28.0210   38.3360   18.2680 H   0  0  0  0  0  0  0  0  0  0  0  0
   37.2170   43.8600   19.0990 C   0  0  1  0  0  3  0  0  0  0  0  0
   37.7370   44.9380   18.1600 C   0  0  0  0  0  0  0  0  0  0  0  0
   38.9970   45.5140   18.3900 C   0  0  0  0  0  3  0  0  0  0  0  0
   39.4760   46.5310   17.5600 C   0  0  0  0  0  3  0  0  0  0  0  0
   38.6990   46.9830   16.4970 C   0  0  0  0  0  0  0  0  0  0  0  0
   39.2850   48.2400   15.4830 Cl  0  0  0  0  0  0  0  0  0  0  0  0
   37.4460   46.4270   16.2580 C   0  0  0  0  0  3  0  0  0  0  0  0
   36.9630   45.4100   17.0860 C   0  0  0  0  0  3  0  0  0  0  0  0
   38.1920   43.7190   20.2920 C   0  0  0  0  0  2  0  0  0  0  0  0
   37.6120   42.9850   21.4760 N   0  0  0  0  0  4  0  0  0  0  0  0
   37.7780   41.9750   21.2710 H   0  0  0  0  0  0  0  0  0  0  0  0
   36.5860   43.0790   21.4600 H   0  0  0  0  0  0  0  0  0  0  0  0
   38.3350   44.7870   23.0050 C   0  0  0  0  0  1  0  0  0  0  0  0
   38.1300   43.2880   22.8490 C   0  0  0  0  0  3  0  0  0  0  0  0
   37.1210   42.7540   23.8600 C   0  0  0  0  0  1  0  0  0  0  0  0
  1  2  2  0  0  0  0
  3  4  1  0  0  0  0
  3  1  1  0  0  0  0
  5  4  1  0  0  0  0
  6  5  1  0  0  0  0
  7  8  1  6  0  0  0
  7  9  1  0  0  0  0
  7  6  1  0  0  0  0
  9  8  1  6  0  0  0
  9  3  1  0  0  0  0
 10  6  1  0  0  0  0
 10 15  1  0  0  0  0
 11 10  2  0  0  0  0
 12 11  1  0  0  0  0
 12 13  2  0  0  0  0
 13 14  1  0  0  0  0
 14 15  2  0  0  0  0
 14 21  1  0  0  0  0
 15 16  1  0  0  0  0
 16 17  1  6  0  0  0
 16 18  1  0  0  0  0
 19 20  2  0  0  0  0
 19 18  1  0  0  0  0
 21 19  1  0  0  0  0
 22 21  1  0  0  0  0
 23  1  1  0  0  0  0
 23 31  1  1  0  0  0
 24 25  1  0  0  0  0
 24 23  1  0  0  0  0
 26 25  2  0  0  0  0
 27 26  1  0  0  0  0
 28 27  1  0  0  0  0
 29 27  2  0  0  0  0
 29 30  1  0  0  0  0
 30 24  2  0  0  0  0
 31 32  1  0  0  0  0
 32 36  1  0  0  0  0
 33 32  1  0  0  0  0
 34 32  1  0  0  0  0
 36 35  1  0  0  0  0
 36 37  1  0  0  0  0
M  END
>  <minimizedAffinity>
-9.3149538

$$$$
