
 OpenBabel11232419273D

 37 41  0  0  1  0  0  0  0  0999 V2000
   33.1150   44.0130   16.6900 C   0  0  0  0  0  0  0  0  0  0  0  0
   32.6850   44.8970   15.9370 O   0  0  0  0  0  0  0  0  0  0  0  0
   32.3370   42.9290   17.0700 N   0  0  0  0  0  0  0  0  0  0  0  0
   30.9560   42.8640   16.5480 C   0  0  0  0  0  2  0  0  0  0  0  0
   30.2560   41.4990   16.6410 C   0  0  0  0  0  2  0  0  0  0  0  0
   30.3540   40.9890   18.0110 N   0  0  0  0  0  0  0  0  0  0  0  0
   31.7180   40.9210   18.5570 C   0  0  1  0  0  3  0  0  0  0  0  0
   32.9250   40.5200   17.7560 C   0  0  0  0  0  2  0  0  0  0  0  0
   32.7090   41.9690   18.0940 C   0  0  1  0  0  3  0  0  0  0  0  0
   29.3810   40.0360   18.3590 C   0  0  0  0  0  0  0  0  0  0  0  0
   28.1210   40.2430   17.9230 N   0  0  0  0  0  0  0  0  0  0  0  0
   27.1760   39.3850   18.3300 C   0  0  0  0  0  3  0  0  0  0  0  0
   27.3480   38.3810   19.1910 N   0  0  0  0  0  0  0  0  0  0  0  0
   28.5940   38.2370   19.6510 C   0  0  0  0  0  0  0  0  0  0  0  0
   29.6790   38.9900   19.2260 C   0  0  0  0  0  0  0  0  0  0  0  0
   31.0470   38.6410   19.7510 C   0  0  2  0  0  3  0  0  0  0  0  0
   31.6760   37.4910   18.9460 C   0  0  0  0  0  1  0  0  0  0  0  0
   30.9430   38.2460   21.2260 C   0  0  0  0  0  2  0  0  0  0  0  0
   29.8800   37.1910   21.4430 C   0  0  0  0  0  0  0  0  0  0  0  0
   29.9750   36.3440   22.3260 O   0  0  0  0  0  0  0  0  0  0  0  0
   28.7640   37.2970   20.6640 N   0  0  0  0  0  0  0  0  0  0  0  0
   27.9790   36.6950   20.8740 H   0  0  0  0  0  0  0  0  0  0  0  0
   34.4970   44.1970   17.3240 C   0  0  1  0  0  3  0  0  0  0  0  0
   35.4740   44.9570   16.4400 C   0  0  0  0  0  0  0  0  0  0  0  0
   36.0530   44.3170   15.3310 C   0  0  0  0  0  3  0  0  0  0  0  0
   36.9810   44.9860   14.5290 C   0  0  0  0  0  3  0  0  0  0  0  0
   37.3410   46.2960   14.8290 C   0  0  0  0  0  0  0  0  0  0  0  0
   38.4890   47.1150   13.8470 Cl  0  0  0  0  0  0  0  0  0  0  0  0
   36.7810   46.9440   15.9260 C   0  0  0  0  0  3  0  0  0  0  0  0
   35.8530   46.2780   16.7310 C   0  0  0  0  0  3  0  0  0  0  0  0
   34.3690   44.9310   18.6800 C   0  0  0  0  0  2  0  0  0  0  0  0
   34.9310   44.1620   19.8490 N   0  0  0  0  0  4  0  0  0  0  0  0
   34.1490   43.5490   20.1670 H   0  0  0  0  0  0  0  0  0  0  0  0
   35.0800   44.8090   20.6380 H   0  0  0  0  0  0  0  0  0  0  0  0
   37.3900   44.1980   19.5950 C   0  0  0  0  0  1  0  0  0  0  0  0
   36.1520   43.3160   19.6480 C   0  0  0  0  0  3  0  0  0  0  0  0
   36.2270   42.3180   20.7990 C   0  0  0  0  0  1  0  0  0  0  0  0
  1  3  1  0  0  0  0
  1 23  1  0  0  0  0
  2  1  2  0  0  0  0
  3  9  1  0  0  0  0
  4  5  1  0  0  0  0
  4  3  1  0  0  0  0
  5  6  1  0  0  0  0
  6 10  1  0  0  0  0
  6  7  1  0  0  0  0
  7  8  1  6  0  0  0
  9  8  1  6  0  0  0
  9  7  1  0  0  0  0
 10 15  1  0  0  0  0
 11 12  1  0  0  0  0
 11 10  2  0  0  0  0
 12 13  2  0  0  0  0
 13 14  1  0  0  0  0
 14 21  1  0  0  0  0
 15 14  2  0  0  0  0
 15 16  1  0  0  0  0
 16 17  1  6  0  0  0
 16 18  1  0  0  0  0
 18 19  1  0  0  0  0
 19 20  2  0  0  0  0
 21 22  1  0  0  0  0
 21 19  1  0  0  0  0
 23 31  1  1  0  0  0
 24 30  1  0  0  0  0
 24 23  1  0  0  0  0
 25 24  2  0  0  0  0
 26 27  2  0  0  0  0
 26 25  1  0  0  0  0
 27 29  1  0  0  0  0
 28 27  1  0  0  0  0
 29 30  2  0  0  0  0
 31 32  1  0  0  0  0
 32 33  1  0  0  0  0
 32 34  1  0  0  0  0
 35 36  1  0  0  0  0
 36 32  1  0  0  0  0
 36 37  1  0  0  0  0
M  END
>  <minimizedAffinity>
-9.22448826

$$$$
