
 OpenBabel11232419273D

 37 41  0  0  1  0  0  0  0  0999 V2000
   34.6750   43.1520   19.4420 C   0  0  0  0  0  0  0  0  0  0  0  0
   33.9200   42.1720   19.4950 O   0  0  0  0  0  0  0  0  0  0  0  0
   35.8120   43.2470   20.2300 N   0  0  0  0  0  0  0  0  0  0  0  0
   36.0950   42.1310   21.1570 C   0  0  0  0  0  2  0  0  0  0  0  0
   37.5250   42.0560   21.7160 C   0  0  0  0  0  2  0  0  0  0  0  0
   37.9000   43.3550   22.2830 N   0  0  0  0  0  0  0  0  0  0  0  0
   37.7470   44.5010   21.3740 C   0  0  1  0  0  3  0  0  0  0  0  0
   38.0590   44.4560   19.9050 C   0  0  0  0  0  2  0  0  0  0  0  0
   36.6260   44.4430   20.3570 C   0  0  1  0  0  3  0  0  0  0  0  0
   38.9340   43.3090   23.2330 C   0  0  0  0  0  0  0  0  0  0  0  0
   40.2000   43.4340   22.7840 N   0  0  0  0  0  0  0  0  0  0  0  0
   41.1900   43.2990   23.6770 C   0  0  0  0  0  3  0  0  0  0  0  0
   41.0460   42.9770   24.9630 N   0  0  0  0  0  0  0  0  0  0  0  0
   39.7850   42.7990   25.3640 C   0  0  0  0  0  0  0  0  0  0  0  0
   38.6700   43.0150   24.5670 C   0  0  0  0  0  0  0  0  0  0  0  0
   37.3040   42.8840   25.1890 C   0  0  2  0  0  3  0  0  0  0  0  0
   36.8940   44.1780   25.9110 C   0  0  0  0  0  1  0  0  0  0  0  0
   37.3020   41.7150   26.1760 C   0  0  0  0  0  2  0  0  0  0  0  0
   38.4500   41.8160   27.1570 C   0  0  0  0  0  0  0  0  0  0  0  0
   38.3620   41.3960   28.3060 O   0  0  0  0  0  0  0  0  0  0  0  0
   39.6200   42.3130   26.6590 N   0  0  0  0  0  0  0  0  0  0  0  0
   40.4430   42.2690   27.2450 H   0  0  0  0  0  0  0  0  0  0  0  0
   34.2630   44.3480   18.5790 C   0  0  1  0  0  3  0  0  0  0  0  0
   35.2420   44.6510   17.4540 C   0  0  0  0  0  0  0  0  0  0  0  0
   35.6950   45.9670   17.2610 C   0  0  0  0  0  3  0  0  0  0  0  0
   36.5650   46.2710   16.2110 C   0  0  0  0  0  3  0  0  0  0  0  0
   36.9870   45.2670   15.3450 C   0  0  0  0  0  0  0  0  0  0  0  0
   38.0500   45.6450   14.0490 Cl  0  0  0  0  0  0  0  0  0  0  0  0
   36.5440   43.9590   15.5190 C   0  0  0  0  0  3  0  0  0  0  0  0
   35.6730   43.6500   16.5670 C   0  0  0  0  0  3  0  0  0  0  0  0
   32.8590   44.1130   17.9730 C   0  0  0  0  0  2  0  0  0  0  0  0
   32.3950   45.2150   17.0530 N   0  0  0  0  0  4  0  0  0  0  0  0
   33.2080   45.8640   16.9830 H   0  0  0  0  0  0  0  0  0  0  0  0
   31.6710   45.7710   17.5320 H   0  0  0  0  0  0  0  0  0  0  0  0
   31.5660   43.3930   15.6020 C   0  0  0  0  0  1  0  0  0  0  0  0
   31.9370   44.8670   15.6690 C   0  0  0  0  0  3  0  0  0  0  0  0
   30.7490   45.7580   15.3290 C   0  0  0  0  0  1  0  0  0  0  0  0
  1  2  2  0  0  0  0
  1  3  1  0  0  0  0
  3  9  1  0  0  0  0
  3  4  1  0  0  0  0
  4  5  1  0  0  0  0
  5  6  1  0  0  0  0
  6 10  1  0  0  0  0
  7  8  1  6  0  0  0
  7  6  1  0  0  0  0
  9  8  1  6  0  0  0
  9  7  1  0  0  0  0
 10 15  1  0  0  0  0
 11 10  2  0  0  0  0
 11 12  1  0  0  0  0
 12 13  2  0  0  0  0
 13 14  1  0  0  0  0
 14 21  1  0  0  0  0
 15 16  1  0  0  0  0
 15 14  2  0  0  0  0
 16 17  1  1  0  0  0
 16 18  1  0  0  0  0
 18 19  1  0  0  0  0
 19 20  2  0  0  0  0
 21 19  1  0  0  0  0
 21 22  1  0  0  0  0
 23 31  1  6  0  0  0
 23  1  1  0  0  0  0
 24 23  1  0  0  0  0
 25 24  1  0  0  0  0
 26 25  2  0  0  0  0
 27 29  2  0  0  0  0
 27 26  1  0  0  0  0
 28 27  1  0  0  0  0
 29 30  1  0  0  0  0
 30 24  2  0  0  0  0
 32 34  1  0  0  0  0
 32 31  1  0  0  0  0
 33 32  1  0  0  0  0
 35 36  1  0  0  0  0
 36 32  1  0  0  0  0
 37 36  1  0  0  0  0
M  END
>  <minimizedAffinity>
-10.2672577

$$$$

 OpenBabel11232419273D

 37 41  0  0  1  0  0  0  0  0999 V2000
   33.1710   43.4380   18.7440 C   0  0  0  0  0  0  0  0  0  0  0  0
   32.6860   43.6710   19.8590 O   0  0  0  0  0  0  0  0  0  0  0  0
   34.5060   43.6830   18.4570 N   0  0  0  0  0  0  0  0  0  0  0  0
   35.3430   44.2470   19.5370 C   0  0  0  0  0  2  0  0  0  0  0  0
   36.8640   44.1390   19.3460 C   0  0  0  0  0  2  0  0  0  0  0  0
   37.2330   44.6660   18.0290 N   0  0  0  0  0  0  0  0  0  0  0  0
   36.5140   44.0680   16.8940 C   0  0  1  0  0  3  0  0  0  0  0  0
   36.1550   42.6120   16.7990 C   0  0  0  0  0  2  0  0  0  0  0  0
   35.0870   43.6170   17.1290 C   0  0  1  0  0  3  0  0  0  0  0  0
   38.5700   45.0800   17.9100 C   0  0  0  0  0  0  0  0  0  0  0  0
   39.4410   44.6560   18.8490 N   0  0  0  0  0  0  0  0  0  0  0  0
   40.6950   45.1230   18.7880 C   0  0  0  0  0  3  0  0  0  0  0  0
   41.1500   46.0320   17.9250 N   0  0  0  0  0  0  0  0  0  0  0  0
   40.2500   46.4780   17.0450 C   0  0  0  0  0  0  0  0  0  0  0  0
   38.9540   45.9960   16.9360 C   0  0  0  0  0  0  0  0  0  0  0  0
   38.0840   46.5150   15.8210 C   0  0  2  0  0  3  0  0  0  0  0  0
   38.3520   45.7610   14.5080 C   0  0  0  0  0  1  0  0  0  0  0  0
   38.3440   48.0100   15.6240 C   0  0  0  0  0  2  0  0  0  0  0  0
   39.8220   48.3010   15.4780 C   0  0  0  0  0  0  0  0  0  0  0  0
   40.2380   49.2260   14.7860 O   0  0  0  0  0  0  0  0  0  0  0  0
   40.6600   47.5360   16.2370 N   0  0  0  0  0  0  0  0  0  0  0  0
   41.6380   47.7910   16.2690 H   0  0  0  0  0  0  0  0  0  0  0  0
   32.2350   42.9960   17.6150 C   0  0  1  0  0  3  0  0  0  0  0  0
   31.5010   41.6970   17.9080 C   0  0  0  0  0  0  0  0  0  0  0  0
   30.2190   41.4860   17.3740 C   0  0  0  0  0  3  0  0  0  0  0  0
   29.5130   40.3150   17.6620 C   0  0  0  0  0  3  0  0  0  0  0  0
   30.0800   39.3480   18.4870 C   0  0  0  0  0  0  0  0  0  0  0  0
   29.2070   37.9120   18.8470 Cl  0  0  0  0  0  0  0  0  0  0  0  0
   31.3470   39.5430   19.0280 C   0  0  0  0  0  3  0  0  0  0  0  0
   32.0560   40.7130   18.7430 C   0  0  0  0  0  3  0  0  0  0  0  0
   31.1980   44.1050   17.3150 C   0  0  0  0  0  2  0  0  0  0  0  0
   31.6460   45.0990   16.2730 N   0  0  0  0  0  4  0  0  0  0  0  0
   32.2810   44.5600   15.6440 H   0  0  0  0  0  0  0  0  0  0  0  0
   32.2630   45.7960   16.7150 H   0  0  0  0  0  0  0  0  0  0  0  0
   31.1170   45.9250   14.0030 C   0  0  0  0  0  1  0  0  0  0  0  0
   30.6150   45.7920   15.4330 C   0  0  0  0  0  3  0  0  0  0  0  0
   29.3300   44.9750   15.5000 C   0  0  0  0  0  1  0  0  0  0  0  0
  1  2  2  0  0  0  0
  3  1  1  0  0  0  0
  3  4  1  0  0  0  0
  5  4  1  0  0  0  0
  6  5  1  0  0  0  0
  7  8  1  1  0  0  0
  7  9  1  0  0  0  0
  7  6  1  0  0  0  0
  9  8  1  1  0  0  0
  9  3  1  0  0  0  0
 10  6  1  0  0  0  0
 10 11  1  0  0  0  0
 12 11  2  0  0  0  0
 13 12  1  0  0  0  0
 14 13  2  0  0  0  0
 15 14  1  0  0  0  0
 15 10  2  0  0  0  0
 16 17  1  6  0  0  0
 16 15  1  0  0  0  0
 18 16  1  0  0  0  0
 19 18  1  0  0  0  0
 19 21  1  0  0  0  0
 20 19  2  0  0  0  0
 21 22  1  0  0  0  0
 21 14  1  0  0  0  0
 23 31  1  1  0  0  0
 23 24  1  0  0  0  0
 23  1  1  0  0  0  0
 24 30  1  0  0  0  0
 25 26  1  0  0  0  0
 25 24  2  0  0  0  0
 26 27  2  0  0  0  0
 27 28  1  0  0  0  0
 27 29  1  0  0  0  0
 30 29  2  0  0  0  0
 32 34  1  0  0  0  0
 32 31  1  0  0  0  0
 33 32  1  0  0  0  0
 35 36  1  0  0  0  0
 36 37  1  0  0  0  0
 36 32  1  0  0  0  0
M  END
>  <minimizedAffinity>
-10.0761089

$$$$

 OpenBabel11232419273D

 37 41  0  0  1  0  0  0  0  0999 V2000
   35.9430   44.0600   19.1340 C   0  0  0  0  0  0  0  0  0  0  0  0
   36.0630   44.4130   20.3140 O   0  0  0  0  0  0  0  0  0  0  0  0
   34.7650   43.5130   18.6460 N   0  0  0  0  0  0  0  0  0  0  0  0
   33.6420   43.3540   19.5950 C   0  0  0  0  0  2  0  0  0  0  0  0
   32.2530   43.1330   18.9760 C   0  0  0  0  0  2  0  0  0  0  0  0
   32.3170   42.0360   18.0060 N   0  0  0  0  0  0  0  0  0  0  0  0
   33.3430   42.1820   16.9630 C   0  0  1  0  0  3  0  0  0  0  0  0
   33.6940   43.4880   16.3070 C   0  0  0  0  0  2  0  0  0  0  0  0
   34.6210   42.9040   17.3360 C   0  0  1  0  0  3  0  0  0  0  0  0
   31.0870   41.4120   17.7380 C   0  0  0  0  0  0  0  0  0  0  0  0
   30.2070   42.0740   16.9590 N   0  0  0  0  0  0  0  0  0  0  0  0
   29.0000   41.5210   16.7780 C   0  0  0  0  0  3  0  0  0  0  0  0
   28.5550   40.4050   17.3580 N   0  0  0  0  0  0  0  0  0  0  0  0
   29.4280   39.8030   18.1710 C   0  0  0  0  0  0  0  0  0  0  0  0
   30.7390   40.2150   18.3570 C   0  0  0  0  0  0  0  0  0  0  0  0
   31.6430   39.3720   19.2180 C   0  0  2  0  0  3  0  0  0  0  0  0
   32.2450   38.2050   18.4180 C   0  0  0  0  0  1  0  0  0  0  0  0
   30.8530   38.8310   20.4120 C   0  0  0  0  0  2  0  0  0  0  0  0
   29.5720   38.1580   19.9690 C   0  0  0  0  0  0  0  0  0  0  0  0
   29.0890   37.2110   20.5820 O   0  0  0  0  0  0  0  0  0  0  0  0
   28.9350   38.7270   18.9040 N   0  0  0  0  0  0  0  0  0  0  0  0
   28.0110   38.3890   18.6660 H   0  0  0  0  0  0  0  0  0  0  0  0
   37.1750   44.1040   18.2250 C   0  0  1  0  0  3  0  0  0  0  0  0
   36.9600   44.8990   16.9470 C   0  0  0  0  0  0  0  0  0  0  0  0
   37.1780   44.2880   15.7010 C   0  0  0  0  0  3  0  0  0  0  0  0
   37.0210   45.0120   14.5170 C   0  0  0  0  0  3  0  0  0  0  0  0
   36.6490   46.3530   14.5670 C   0  0  0  0  0  0  0  0  0  0  0  0
   36.4650   47.2440   13.1090 Cl  0  0  0  0  0  0  0  0  0  0  0  0
   36.4330   46.9750   15.7920 C   0  0  0  0  0  3  0  0  0  0  0  0
   36.5900   46.2540   16.9790 C   0  0  0  0  0  3  0  0  0  0  0  0
   38.3820   44.6990   18.9910 C   0  0  0  0  0  2  0  0  0  0  0  0
   39.7110   44.4640   18.3170 N   0  0  0  0  0  4  0  0  0  0  0  0
   39.4760   44.2760   17.3190 H   0  0  0  0  0  0  0  0  0  0  0  0
   40.1070   43.5750   18.6540 H   0  0  0  0  0  0  0  0  0  0  0  0
   40.2310   46.8030   17.7060 C   0  0  0  0  0  1  0  0  0  0  0  0
   40.7560   45.5390   18.3690 C   0  0  0  0  0  3  0  0  0  0  0  0
   41.1080   45.7810   19.8320 C   0  0  0  0  0  1  0  0  0  0  0  0
  1  2  2  0  0  0  0
  3  1  1  0  0  0  0
  3  4  1  0  0  0  0
  5  4  1  0  0  0  0
  6  5  1  0  0  0  0
  7  8  1  6  0  0  0
  7  9  1  0  0  0  0
  7  6  1  0  0  0  0
  9  8  1  6  0  0  0
  9  3  1  0  0  0  0
 10  6  1  0  0  0  0
 10 15  1  0  0  0  0
 11 10  2  0  0  0  0
 12 11  1  0  0  0  0
 12 13  2  0  0  0  0
 13 14  1  0  0  0  0
 14 15  2  0  0  0  0
 14 21  1  0  0  0  0
 15 16  1  0  0  0  0
 16 17  1  6  0  0  0
 16 18  1  0  0  0  0
 19 18  1  0  0  0  0
 19 20  2  0  0  0  0
 21 19  1  0  0  0  0
 22 21  1  0  0  0  0
 23 31  1  1  0  0  0
 23  1  1  0  0  0  0
 24 30  1  0  0  0  0
 24 23  1  0  0  0  0
 25 24  2  0  0  0  0
 26 27  2  0  0  0  0
 26 25  1  0  0  0  0
 27 29  1  0  0  0  0
 28 27  1  0  0  0  0
 29 30  2  0  0  0  0
 32 36  1  0  0  0  0
 32 34  1  0  0  0  0
 32 31  1  0  0  0  0
 33 32  1  0  0  0  0
 35 36  1  0  0  0  0
 36 37  1  0  0  0  0
M  END
>  <minimizedAffinity>
-9.83279133

$$$$

 OpenBabel11232419273D

 37 41  0  0  1  0  0  0  0  0999 V2000
   35.9490   44.2830   18.4390 C   0  0  0  0  0  0  0  0  0  0  0  0
   36.4810   44.0700   19.5360 O   0  0  0  0  0  0  0  0  0  0  0  0
   34.6860   43.8010   18.1290 N   0  0  0  0  0  0  0  0  0  0  0  0
   33.9870   43.0050   19.1600 C   0  0  0  0  0  2  0  0  0  0  0  0
   32.4730   42.8230   18.9700 C   0  0  0  0  0  2  0  0  0  0  0  0
   32.2030   42.3320   17.6160 N   0  0  0  0  0  0  0  0  0  0  0  0
   32.7780   43.1420   16.5310 C   0  0  1  0  0  3  0  0  0  0  0  0
   32.8410   44.6440   16.5470 C   0  0  0  0  0  2  0  0  0  0  0  0
   34.0900   43.8480   16.8060 C   0  0  1  0  0  3  0  0  0  0  0  0
   30.9720   41.6720   17.4600 C   0  0  0  0  0  0  0  0  0  0  0  0
   30.0070   42.3050   16.7640 N   0  0  0  0  0  0  0  0  0  0  0  0
   28.8060   41.7170   16.6930 C   0  0  0  0  0  3  0  0  0  0  0  0
   28.4480   40.5910   17.3130 N   0  0  0  0  0  0  0  0  0  0  0  0
   29.4070   40.0180   18.0430 C   0  0  0  0  0  0  0  0  0  0  0  0
   30.7170   40.4680   18.1100 C   0  0  0  0  0  0  0  0  0  0  0  0
   31.7200   39.6540   18.8870 C   0  0  2  0  0  3  0  0  0  0  0  0
   32.2810   38.5020   18.0370 C   0  0  0  0  0  1  0  0  0  0  0  0
   31.0570   39.0950   20.1480 C   0  0  0  0  0  2  0  0  0  0  0  0
   29.7610   38.3840   19.8230 C   0  0  0  0  0  0  0  0  0  0  0  0
   29.3630   37.4260   20.4790 O   0  0  0  0  0  0  0  0  0  0  0  0
   29.0140   38.9300   18.8190 N   0  0  0  0  0  0  0  0  0  0  0  0
   28.0830   38.5640   18.6670 H   0  0  0  0  0  0  0  0  0  0  0  0
   36.7670   44.9840   17.3500 C   0  0  1  0  0  3  0  0  0  0  0  0
   38.1530   45.4090   17.8100 C   0  0  0  0  0  0  0  0  0  0  0  0
   38.7660   44.7400   18.8830 C   0  0  0  0  0  3  0  0  0  0  0  0
   40.0230   45.1400   19.3430 C   0  0  0  0  0  3  0  0  0  0  0  0
   40.6760   46.2110   18.7400 C   0  0  0  0  0  0  0  0  0  0  0  0
   42.2180   46.7060   19.3140 Cl  0  0  0  0  0  0  0  0  0  0  0  0
   40.0810   46.8870   17.6790 C   0  0  0  0  0  3  0  0  0  0  0  0
   38.8240   46.4910   17.2160 C   0  0  0  0  0  3  0  0  0  0  0  0
   36.9070   44.0650   16.1120 C   0  0  0  0  0  2  0  0  0  0  0  0
   36.9350   44.8060   14.7980 N   0  0  0  0  0  4  0  0  0  0  0  0
   36.3530   44.2290   14.1530 H   0  0  0  0  0  0  0  0  0  0  0  0
   37.8840   44.7480   14.4000 H   0  0  0  0  0  0  0  0  0  0  0  0
   37.4590   47.0920   14.0170 C   0  0  0  0  0  1  0  0  0  0  0  0
   36.4470   46.2220   14.7470 C   0  0  0  0  0  3  0  0  0  0  0  0
   35.0950   46.2280   14.0430 C   0  0  0  0  0  1  0  0  0  0  0  0
  1  2  2  0  0  0  0
  3  1  1  0  0  0  0
  3  4  1  0  0  0  0
  5  4  1  0  0  0  0
  6  5  1  0  0  0  0
  7  8  1  1  0  0  0
  7  9  1  0  0  0  0
  7  6  1  0  0  0  0
  9  8  1  1  0  0  0
  9  3  1  0  0  0  0
 10  6  1  0  0  0  0
 10 15  1  0  0  0  0
 11 10  2  0  0  0  0
 12 11  1  0  0  0  0
 12 13  2  0  0  0  0
 13 14  1  0  0  0  0
 14 15  2  0  0  0  0
 14 21  1  0  0  0  0
 15 16  1  0  0  0  0
 16 17  1  6  0  0  0
 16 18  1  0  0  0  0
 19 18  1  0  0  0  0
 19 20  2  0  0  0  0
 21 19  1  0  0  0  0
 22 21  1  0  0  0  0
 23 31  1  6  0  0  0
 23 24  1  0  0  0  0
 23  1  1  0  0  0  0
 24 25  1  0  0  0  0
 25 26  2  0  0  0  0
 27 28  1  0  0  0  0
 27 26  1  0  0  0  0
 29 27  2  0  0  0  0
 30 29  1  0  0  0  0
 30 24  2  0  0  0  0
 32 31  1  0  0  0  0
 33 32  1  0  0  0  0
 34 32  1  0  0  0  0
 35 36  1  0  0  0  0
 36 32  1  0  0  0  0
 37 36  1  0  0  0  0
M  END
>  <minimizedAffinity>
-9.46498013

$$$$

 OpenBabel11232419273D

 37 41  0  0  1  0  0  0  0  0999 V2000
   35.7960   44.1230   19.6060 C   0  0  0  0  0  0  0  0  0  0  0  0
   35.6480   44.8020   20.6310 O   0  0  0  0  0  0  0  0  0  0  0  0
   34.7290   43.4970   18.9780 N   0  0  0  0  0  0  0  0  0  0  0  0
   33.3900   43.6590   19.5840 C   0  0  0  0  0  2  0  0  0  0  0  0
   32.1910   43.3120   18.6890 C   0  0  0  0  0  2  0  0  0  0  0  0
   32.3790   41.9780   18.1110 N   0  0  0  0  0  0  0  0  0  0  0  0
   33.6470   41.7800   17.3950 C   0  0  1  0  0  3  0  0  0  0  0  0
   34.2980   42.8250   16.5330 C   0  0  0  0  0  2  0  0  0  0  0  0
   34.8600   42.5370   17.8970 C   0  0  1  0  0  3  0  0  0  0  0  0
   31.1970   41.3430   17.6920 C   0  0  0  0  0  0  0  0  0  0  0  0
   30.4330   41.9820   16.7830 N   0  0  0  0  0  0  0  0  0  0  0  0
   29.2630   41.4210   16.4520 C   0  0  0  0  0  3  0  0  0  0  0  0
   28.7410   40.3190   16.9940 N   0  0  0  0  0  0  0  0  0  0  0  0
   29.4930   39.7420   17.9350 C   0  0  0  0  0  0  0  0  0  0  0  0
   30.7660   40.1630   18.2890 C   0  0  0  0  0  0  0  0  0  0  0  0
   31.5420   39.3440   19.2890 C   0  0  2  0  0  3  0  0  0  0  0  0
   32.2480   38.1590   18.6100 C   0  0  0  0  0  1  0  0  0  0  0  0
   30.5950   38.8330   20.3760 C   0  0  0  0  0  2  0  0  0  0  0  0
   29.3870   38.1440   19.7780 C   0  0  0  0  0  0  0  0  0  0  0  0
   28.8230   37.2130   20.3440 O   0  0  0  0  0  0  0  0  0  0  0  0
   28.9030   38.6830   18.6210 N   0  0  0  0  0  0  0  0  0  0  0  0
   28.0210   38.3360   18.2680 H   0  0  0  0  0  0  0  0  0  0  0  0
   37.2170   43.8600   19.0990 C   0  0  1  0  0  3  0  0  0  0  0  0
   37.7370   44.9380   18.1600 C   0  0  0  0  0  0  0  0  0  0  0  0
   38.9970   45.5140   18.3900 C   0  0  0  0  0  3  0  0  0  0  0  0
   39.4760   46.5310   17.5600 C   0  0  0  0  0  3  0  0  0  0  0  0
   38.6990   46.9830   16.4970 C   0  0  0  0  0  0  0  0  0  0  0  0
   39.2850   48.2400   15.4830 Cl  0  0  0  0  0  0  0  0  0  0  0  0
   37.4460   46.4270   16.2580 C   0  0  0  0  0  3  0  0  0  0  0  0
   36.9630   45.4100   17.0860 C   0  0  0  0  0  3  0  0  0  0  0  0
   38.1920   43.7190   20.2920 C   0  0  0  0  0  2  0  0  0  0  0  0
   37.6120   42.9850   21.4760 N   0  0  0  0  0  4  0  0  0  0  0  0
   37.7780   41.9750   21.2710 H   0  0  0  0  0  0  0  0  0  0  0  0
   36.5860   43.0790   21.4600 H   0  0  0  0  0  0  0  0  0  0  0  0
   38.3350   44.7870   23.0050 C   0  0  0  0  0  1  0  0  0  0  0  0
   38.1300   43.2880   22.8490 C   0  0  0  0  0  3  0  0  0  0  0  0
   37.1210   42.7540   23.8600 C   0  0  0  0  0  1  0  0  0  0  0  0
  1  2  2  0  0  0  0
  3  4  1  0  0  0  0
  3  1  1  0  0  0  0
  5  4  1  0  0  0  0
  6  5  1  0  0  0  0
  7  8  1  6  0  0  0
  7  9  1  0  0  0  0
  7  6  1  0  0  0  0
  9  8  1  6  0  0  0
  9  3  1  0  0  0  0
 10  6  1  0  0  0  0
 10 15  1  0  0  0  0
 11 10  2  0  0  0  0
 12 11  1  0  0  0  0
 12 13  2  0  0  0  0
 13 14  1  0  0  0  0
 14 15  2  0  0  0  0
 14 21  1  0  0  0  0
 15 16  1  0  0  0  0
 16 17  1  6  0  0  0
 16 18  1  0  0  0  0
 19 20  2  0  0  0  0
 19 18  1  0  0  0  0
 21 19  1  0  0  0  0
 22 21  1  0  0  0  0
 23  1  1  0  0  0  0
 23 31  1  1  0  0  0
 24 25  1  0  0  0  0
 24 23  1  0  0  0  0
 26 25  2  0  0  0  0
 27 26  1  0  0  0  0
 28 27  1  0  0  0  0
 29 27  2  0  0  0  0
 29 30  1  0  0  0  0
 30 24  2  0  0  0  0
 31 32  1  0  0  0  0
 32 36  1  0  0  0  0
 33 32  1  0  0  0  0
 34 32  1  0  0  0  0
 36 35  1  0  0  0  0
 36 37  1  0  0  0  0
M  END
>  <minimizedAffinity>
-9.3149538

$$$$

 OpenBabel11232419273D

 37 41  0  0  1  0  0  0  0  0999 V2000
   33.1150   44.0130   16.6900 C   0  0  0  0  0  0  0  0  0  0  0  0
   32.6850   44.8970   15.9370 O   0  0  0  0  0  0  0  0  0  0  0  0
   32.3370   42.9290   17.0700 N   0  0  0  0  0  0  0  0  0  0  0  0
   30.9560   42.8640   16.5480 C   0  0  0  0  0  2  0  0  0  0  0  0
   30.2560   41.4990   16.6410 C   0  0  0  0  0  2  0  0  0  0  0  0
   30.3540   40.9890   18.0110 N   0  0  0  0  0  0  0  0  0  0  0  0
   31.7180   40.9210   18.5570 C   0  0  1  0  0  3  0  0  0  0  0  0
   32.9250   40.5200   17.7560 C   0  0  0  0  0  2  0  0  0  0  0  0
   32.7090   41.9690   18.0940 C   0  0  1  0  0  3  0  0  0  0  0  0
   29.3810   40.0360   18.3590 C   0  0  0  0  0  0  0  0  0  0  0  0
   28.1210   40.2430   17.9230 N   0  0  0  0  0  0  0  0  0  0  0  0
   27.1760   39.3850   18.3300 C   0  0  0  0  0  3  0  0  0  0  0  0
   27.3480   38.3810   19.1910 N   0  0  0  0  0  0  0  0  0  0  0  0
   28.5940   38.2370   19.6510 C   0  0  0  0  0  0  0  0  0  0  0  0
   29.6790   38.9900   19.2260 C   0  0  0  0  0  0  0  0  0  0  0  0
   31.0470   38.6410   19.7510 C   0  0  2  0  0  3  0  0  0  0  0  0
   31.6760   37.4910   18.9460 C   0  0  0  0  0  1  0  0  0  0  0  0
   30.9430   38.2460   21.2260 C   0  0  0  0  0  2  0  0  0  0  0  0
   29.8800   37.1910   21.4430 C   0  0  0  0  0  0  0  0  0  0  0  0
   29.9750   36.3440   22.3260 O   0  0  0  0  0  0  0  0  0  0  0  0
   28.7640   37.2970   20.6640 N   0  0  0  0  0  0  0  0  0  0  0  0
   27.9790   36.6950   20.8740 H   0  0  0  0  0  0  0  0  0  0  0  0
   34.4970   44.1970   17.3240 C   0  0  1  0  0  3  0  0  0  0  0  0
   35.4740   44.9570   16.4400 C   0  0  0  0  0  0  0  0  0  0  0  0
   36.0530   44.3170   15.3310 C   0  0  0  0  0  3  0  0  0  0  0  0
   36.9810   44.9860   14.5290 C   0  0  0  0  0  3  0  0  0  0  0  0
   37.3410   46.2960   14.8290 C   0  0  0  0  0  0  0  0  0  0  0  0
   38.4890   47.1150   13.8470 Cl  0  0  0  0  0  0  0  0  0  0  0  0
   36.7810   46.9440   15.9260 C   0  0  0  0  0  3  0  0  0  0  0  0
   35.8530   46.2780   16.7310 C   0  0  0  0  0  3  0  0  0  0  0  0
   34.3690   44.9310   18.6800 C   0  0  0  0  0  2  0  0  0  0  0  0
   34.9310   44.1620   19.8490 N   0  0  0  0  0  4  0  0  0  0  0  0
   34.1490   43.5490   20.1670 H   0  0  0  0  0  0  0  0  0  0  0  0
   35.0800   44.8090   20.6380 H   0  0  0  0  0  0  0  0  0  0  0  0
   37.3900   44.1980   19.5950 C   0  0  0  0  0  1  0  0  0  0  0  0
   36.1520   43.3160   19.6480 C   0  0  0  0  0  3  0  0  0  0  0  0
   36.2270   42.3180   20.7990 C   0  0  0  0  0  1  0  0  0  0  0  0
  1  3  1  0  0  0  0
  1 23  1  0  0  0  0
  2  1  2  0  0  0  0
  3  9  1  0  0  0  0
  4  5  1  0  0  0  0
  4  3  1  0  0  0  0
  5  6  1  0  0  0  0
  6 10  1  0  0  0  0
  6  7  1  0  0  0  0
  7  8  1  6  0  0  0
  9  8  1  6  0  0  0
  9  7  1  0  0  0  0
 10 15  1  0  0  0  0
 11 12  1  0  0  0  0
 11 10  2  0  0  0  0
 12 13  2  0  0  0  0
 13 14  1  0  0  0  0
 14 21  1  0  0  0  0
 15 14  2  0  0  0  0
 15 16  1  0  0  0  0
 16 17  1  6  0  0  0
 16 18  1  0  0  0  0
 18 19  1  0  0  0  0
 19 20  2  0  0  0  0
 21 22  1  0  0  0  0
 21 19  1  0  0  0  0
 23 31  1  1  0  0  0
 24 30  1  0  0  0  0
 24 23  1  0  0  0  0
 25 24  2  0  0  0  0
 26 27  2  0  0  0  0
 26 25  1  0  0  0  0
 27 29  1  0  0  0  0
 28 27  1  0  0  0  0
 29 30  2  0  0  0  0
 31 32  1  0  0  0  0
 32 33  1  0  0  0  0
 32 34  1  0  0  0  0
 35 36  1  0  0  0  0
 36 32  1  0  0  0  0
 36 37  1  0  0  0  0
M  END
>  <minimizedAffinity>
-9.22448826

$$$$

 OpenBabel11232419273D

 37 41  0  0  1  0  0  0  0  0999 V2000
   36.4800   44.5770   18.5140 C   0  0  0  0  0  0  0  0  0  0  0  0
   36.6860   45.2930   19.5040 O   0  0  0  0  0  0  0  0  0  0  0  0
   35.3620   43.7610   18.4180 N   0  0  0  0  0  0  0  0  0  0  0  0
   34.4160   43.7640   19.5530 C   0  0  0  0  0  2  0  0  0  0  0  0
   33.0190   43.1860   19.2770 C   0  0  0  0  0  2  0  0  0  0  0  0
   33.1480   41.8590   18.6680 N   0  0  0  0  0  0  0  0  0  0  0  0
   33.9900   41.8030   17.4640 C   0  0  1  0  0  3  0  0  0  0  0  0
   34.0220   42.8730   16.4100 C   0  0  0  0  0  2  0  0  0  0  0  0
   35.1610   42.7610   17.3850 C   0  0  1  0  0  3  0  0  0  0  0  0
   32.0210   41.0310   18.8100 C   0  0  0  0  0  0  0  0  0  0  0  0
   32.0810   40.0470   19.7300 N   0  0  0  0  0  0  0  0  0  0  0  0
   31.0440   39.2020   19.8020 C   0  0  0  0  0  3  0  0  0  0  0  0
   29.9820   39.1950   18.9950 N   0  0  0  0  0  0  0  0  0  0  0  0
   29.9790   40.1440   18.0560 C   0  0  0  0  0  0  0  0  0  0  0  0
   30.9370   41.1410   17.9450 C   0  0  0  0  0  0  0  0  0  0  0  0
   30.7430   42.2140   16.9040 C   0  0  2  0  0  3  0  0  0  0  0  0
   29.8120   43.3250   17.4150 C   0  0  0  0  0  1  0  0  0  0  0  0
   30.1620   41.5910   15.6320 C   0  0  0  0  0  2  0  0  0  0  0  0
   28.9360   40.7570   15.9350 C   0  0  0  0  0  0  0  0  0  0  0  0
   28.0140   40.6430   15.1330 O   0  0  0  0  0  0  0  0  0  0  0  0
   28.9610   40.0620   17.1090 N   0  0  0  0  0  0  0  0  0  0  0  0
   28.2230   39.3910   17.2790 H   0  0  0  0  0  0  0  0  0  0  0  0
   37.5590   44.4930   17.4310 C   0  0  1  0  0  3  0  0  0  0  0  0
   37.2520   45.3330   16.2010 C   0  0  0  0  0  0  0  0  0  0  0  0
   37.3130   46.7340   16.2810 C   0  0  0  0  0  3  0  0  0  0  0  0
   36.9980   47.5240   15.1720 C   0  0  0  0  0  3  0  0  0  0  0  0
   36.6170   46.9220   13.9760 C   0  0  0  0  0  0  0  0  0  0  0  0
   36.2220   47.8940   12.6160 Cl  0  0  0  0  0  0  0  0  0  0  0  0
   36.5470   45.5350   13.8810 C   0  0  0  0  0  3  0  0  0  0  0  0
   36.8600   44.7420   14.9880 C   0  0  0  0  0  3  0  0  0  0  0  0
   38.9290   44.9260   18.0070 C   0  0  0  0  0  2  0  0  0  0  0  0
   39.2300   44.3530   19.3700 N   0  0  0  0  0  4  0  0  0  0  0  0
   39.2700   43.3210   19.2230 H   0  0  0  0  0  0  0  0  0  0  0  0
   38.4110   44.4890   19.9800 H   0  0  0  0  0  0  0  0  0  0  0  0
   41.1620   45.8940   19.3030 C   0  0  0  0  0  1  0  0  0  0  0  0
   40.4750   44.7850   20.0850 C   0  0  0  0  0  3  0  0  0  0  0  0
   40.0770   45.2490   21.4810 C   0  0  0  0  0  1  0  0  0  0  0  0
  1  2  2  0  0  0  0
  3  1  1  0  0  0  0
  3  4  1  0  0  0  0
  5  4  1  0  0  0  0
  6 10  1  0  0  0  0
  6  5  1  0  0  0  0
  7  8  1  6  0  0  0
  7  6  1  0  0  0  0
  9  8  1  6  0  0  0
  9  7  1  0  0  0  0
  9  3  1  0  0  0  0
 10 11  1  0  0  0  0
 11 12  2  0  0  0  0
 13 12  1  0  0  0  0
 14 13  2  0  0  0  0
 15 14  1  0  0  0  0
 15 10  2  0  0  0  0
 16 17  1  1  0  0  0
 16 15  1  0  0  0  0
 18 19  1  0  0  0  0
 18 16  1  0  0  0  0
 19 21  1  0  0  0  0
 20 19  2  0  0  0  0
 21 22  1  0  0  0  0
 21 14  1  0  0  0  0
 23 31  1  1  0  0  0
 23  1  1  0  0  0  0
 24 25  1  0  0  0  0
 24 23  1  0  0  0  0
 26 25  2  0  0  0  0
 27 26  1  0  0  0  0
 28 27  1  0  0  0  0
 29 27  2  0  0  0  0
 29 30  1  0  0  0  0
 30 24  2  0  0  0  0
 31 32  1  0  0  0  0
 32 34  1  0  0  0  0
 32 36  1  0  0  0  0
 33 32  1  0  0  0  0
 35 36  1  0  0  0  0
 36 37  1  0  0  0  0
M  END
>  <minimizedAffinity>
-9.2050333

$$$$

 OpenBabel11232419273D

 37 41  0  0  1  0  0  0  0  0999 V2000
   39.9990   44.6770   19.5340 C   0  0  0  0  0  0  0  0  0  0  0  0
   40.7990   44.0780   18.8030 O   0  0  0  0  0  0  0  0  0  0  0  0
   39.9730   44.4850   20.9070 N   0  0  0  0  0  0  0  0  0  0  0  0
   40.9390   43.5240   21.4800 C   0  0  0  0  0  2  0  0  0  0  0  0
   41.1720   43.6160   22.9960 C   0  0  0  0  0  2  0  0  0  0  0  0
   39.8840   43.5880   23.6950 N   0  0  0  0  0  0  0  0  0  0  0  0
   38.9100   44.5950   23.2490 C   0  0  1  0  0  3  0  0  0  0  0  0
   39.2710   46.0020   22.8630 C   0  0  0  0  0  2  0  0  0  0  0  0
   38.9420   45.0020   21.7900 C   0  0  1  0  0  3  0  0  0  0  0  0
   39.9480   43.1780   25.0370 C   0  0  0  0  0  0  0  0  0  0  0  0
   41.1690   42.9660   25.5680 N   0  0  0  0  0  0  0  0  0  0  0  0
   41.2270   42.4880   26.8180 C   0  0  0  0  0  3  0  0  0  0  0  0
   40.1840   42.1290   27.5690 N   0  0  0  0  0  0  0  0  0  0  0  0
   38.9900   42.2940   26.9940 C   0  0  0  0  0  0  0  0  0  0  0  0
   38.7920   42.8780   25.7520 C   0  0  0  0  0  0  0  0  0  0  0  0
   37.3790   43.1020   25.2790 C   0  0  2  0  0  3  0  0  0  0  0  0
   36.7990   44.4050   25.8550 C   0  0  0  0  0  1  0  0  0  0  0  0
   36.5070   41.9160   25.6950 C   0  0  0  0  0  2  0  0  0  0  0  0
   36.6530   41.6120   27.1710 C   0  0  0  0  0  0  0  0  0  0  0  0
   35.7280   41.1540   27.8350 O   0  0  0  0  0  0  0  0  0  0  0  0
   37.9010   41.7860   27.6960 N   0  0  0  0  0  0  0  0  0  0  0  0
   38.0670   41.4640   28.6410 H   0  0  0  0  0  0  0  0  0  0  0  0
   38.9200   45.5480   18.8820 C   0  0  1  0  0  3  0  0  0  0  0  0
   39.4580   46.4780   17.8050 C   0  0  0  0  0  0  0  0  0  0  0  0
   40.6940   47.1180   17.9930 C   0  0  0  0  0  3  0  0  0  0  0  0
   41.1880   48.0040   17.0310 C   0  0  0  0  0  3  0  0  0  0  0  0
   40.4510   48.2600   15.8790 C   0  0  0  0  0  0  0  0  0  0  0  0
   41.0550   49.3570   14.7020 Cl  0  0  0  0  0  0  0  0  0  0  0  0
   39.2220   47.6380   15.6800 C   0  0  0  0  0  3  0  0  0  0  0  0
   38.7250   46.7510   16.6390 C   0  0  0  0  0  3  0  0  0  0  0  0
   37.8110   44.6580   18.2710 C   0  0  0  0  0  2  0  0  0  0  0  0
   36.5360   44.6280   19.0760 N   0  0  0  0  0  4  0  0  0  0  0  0
   35.8740   45.2400   18.5510 H   0  0  0  0  0  0  0  0  0  0  0  0
   36.6870   45.1260   19.9650 H   0  0  0  0  0  0  0  0  0  0  0  0
   36.3800   42.7200   20.6400 C   0  0  0  0  0  1  0  0  0  0  0  0
   35.8670   43.3110   19.3360 C   0  0  0  0  0  3  0  0  0  0  0  0
   34.3620   43.5510   19.3850 C   0  0  0  0  0  1  0  0  0  0  0  0
  1  3  1  0  0  0  0
  2  1  2  0  0  0  0
  3  4  1  0  0  0  0
  3  9  1  0  0  0  0
  4  5  1  0  0  0  0
  5  6  1  0  0  0  0
  6 10  1  0  0  0  0
  7  8  1  1  0  0  0
  7  6  1  0  0  0  0
  9  8  1  1  0  0  0
  9  7  1  0  0  0  0
 10 11  2  0  0  0  0
 10 15  1  0  0  0  0
 11 12  1  0  0  0  0
 12 13  2  0  0  0  0
 14 13  1  0  0  0  0
 14 21  1  0  0  0  0
 15 14  2  0  0  0  0
 16 18  1  0  0  0  0
 16 15  1  0  0  0  0
 16 17  1  1  0  0  0
 18 19  1  0  0  0  0
 19 21  1  0  0  0  0
 19 20  2  0  0  0  0
 21 22  1  0  0  0  0
 23 31  1  6  0  0  0
 23  1  1  0  0  0  0
 24 25  1  0  0  0  0
 24 23  1  0  0  0  0
 26 25  2  0  0  0  0
 27 26  1  0  0  0  0
 28 27  1  0  0  0  0
 29 27  2  0  0  0  0
 29 30  1  0  0  0  0
 30 24  2  0  0  0  0
 31 32  1  0  0  0  0
 32 36  1  0  0  0  0
 32 34  1  0  0  0  0
 33 32  1  0  0  0  0
 36 37  1  0  0  0  0
 36 35  1  0  0  0  0
M  END
>  <minimizedAffinity>
-9.0635891

$$$$

 OpenBabel11232419273D

 37 41  0  0  1  0  0  0  0  0999 V2000
   33.5830   43.1990   17.1460 C   0  0  0  0  0  0  0  0  0  0  0  0
   33.5220   41.9880   16.8960 O   0  0  0  0  0  0  0  0  0  0  0  0
   34.7930   43.8670   17.2560 N   0  0  0  0  0  0  0  0  0  0  0  0
   36.0280   43.0750   17.0720 C   0  0  0  0  0  2  0  0  0  0  0  0
   37.3140   43.8720   16.8010 C   0  0  0  0  0  2  0  0  0  0  0  0
   37.4710   44.9130   17.8210 N   0  0  0  0  0  0  0  0  0  0  0  0
   36.3170   45.8110   17.9800 C   0  0  1  0  0  3  0  0  0  0  0  0
   35.4770   46.3110   16.8390 C   0  0  0  0  0  2  0  0  0  0  0  0
   34.9400   45.2290   17.7340 C   0  0  1  0  0  3  0  0  0  0  0  0
   38.7860   45.3770   17.9950 C   0  0  0  0  0  0  0  0  0  0  0  0
   39.4500   44.9730   19.0970 N   0  0  0  0  0  0  0  0  0  0  0  0
   40.6690   45.4870   19.3090 C   0  0  0  0  0  3  0  0  0  0  0  0
   41.2640   46.4220   18.5680 N   0  0  0  0  0  0  0  0  0  0  0  0
   40.5580   46.8460   17.5170 C   0  0  0  0  0  0  0  0  0  0  0  0
   39.3350   46.3180   17.1300 C   0  0  0  0  0  0  0  0  0  0  0  0
   38.7060   46.8190   15.8550 C   0  0  2  0  0  3  0  0  0  0  0  0
   39.2790   46.0910   14.6280 C   0  0  0  0  0  1  0  0  0  0  0  0
   38.9450   48.3250   15.7250 C   0  0  0  0  0  2  0  0  0  0  0  0
   40.4080   48.6710   15.9010 C   0  0  0  0  0  0  0  0  0  0  0  0
   40.9270   49.6180   15.3190 O   0  0  0  0  0  0  0  0  0  0  0  0
   41.0910   47.9270   16.8200 N   0  0  0  0  0  0  0  0  0  0  0  0
   42.0300   48.2180   17.0630 H   0  0  0  0  0  0  0  0  0  0  0  0
   32.2870   43.9460   17.4750 C   0  0  1  0  0  3  0  0  0  0  0  0
   31.6680   44.6480   16.2760 C   0  0  0  0  0  0  0  0  0  0  0  0
   30.2700   44.7330   16.1630 C   0  0  0  0  0  3  0  0  0  0  0  0
   29.6830   45.3410   15.0510 C   0  0  0  0  0  3  0  0  0  0  0  0
   30.4850   45.8650   14.0410 C   0  0  0  0  0  0  0  0  0  0  0  0
   29.7610   46.6050   12.6700 Cl  0  0  0  0  0  0  0  0  0  0  0  0
   31.8720   45.7850   14.1350 C   0  0  0  0  0  3  0  0  0  0  0  0
   32.4630   45.1770   15.2450 C   0  0  0  0  0  3  0  0  0  0  0  0
   31.2470   42.9720   18.0800 C   0  0  0  0  0  2  0  0  0  0  0  0
   31.0300   41.7220   17.2640 N   0  0  0  0  0  4  0  0  0  0  0  0
   31.7340   41.0420   17.6240 H   0  0  0  0  0  0  0  0  0  0  0  0
   31.3260   41.8990   16.2930 H   0  0  0  0  0  0  0  0  0  0  0  0
   29.1410   40.9740   15.8550 C   0  0  0  0  0  1  0  0  0  0  0  0
   29.6810   41.0680   17.2740 C   0  0  0  0  0  3  0  0  0  0  0  0
   29.8330   39.6900   17.9070 C   0  0  0  0  0  1  0  0  0  0  0  0
  1  3  1  0  0  0  0
  1 23  1  0  0  0  0
  2  1  2  0  0  0  0
  3  9  1  0  0  0  0
  4  3  1  0  0  0  0
  5  4  1  0  0  0  0
  5  6  1  0  0  0  0
  6  7  1  0  0  0  0
  6 10  1  0  0  0  0
  7  8  1  6  0  0  0
  9  8  1  6  0  0  0
  9  7  1  0  0  0  0
 10 11  1  0  0  0  0
 11 12  2  0  0  0  0
 13 12  1  0  0  0  0
 14 13  2  0  0  0  0
 15 14  1  0  0  0  0
 15 10  2  0  0  0  0
 16 17  1  6  0  0  0
 16 15  1  0  0  0  0
 18 16  1  0  0  0  0
 18 19  1  0  0  0  0
 19 21  1  0  0  0  0
 20 19  2  0  0  0  0
 21 22  1  0  0  0  0
 21 14  1  0  0  0  0
 23 31  1  6  0  0  0
 24 23  1  0  0  0  0
 25 24  1  0  0  0  0
 26 25  2  0  0  0  0
 27 29  2  0  0  0  0
 27 26  1  0  0  0  0
 28 27  1  0  0  0  0
 29 30  1  0  0  0  0
 30 24  2  0  0  0  0
 32 36  1  0  0  0  0
 32 33  1  0  0  0  0
 32 31  1  0  0  0  0
 34 32  1  0  0  0  0
 35 36  1  0  0  0  0
 36 37  1  0  0  0  0
M  END
>  <minimizedAffinity>
-8.84602833

$$$$
