
 OpenBabel11232419273D

 37 41  0  0  1  0  0  0  0  0999 V2000
   35.9490   44.2830   18.4390 C   0  0  0  0  0  0  0  0  0  0  0  0
   36.4810   44.0700   19.5360 O   0  0  0  0  0  0  0  0  0  0  0  0
   34.6860   43.8010   18.1290 N   0  0  0  0  0  0  0  0  0  0  0  0
   33.9870   43.0050   19.1600 C   0  0  0  0  0  2  0  0  0  0  0  0
   32.4730   42.8230   18.9700 C   0  0  0  0  0  2  0  0  0  0  0  0
   32.2030   42.3320   17.6160 N   0  0  0  0  0  0  0  0  0  0  0  0
   32.7780   43.1420   16.5310 C   0  0  1  0  0  3  0  0  0  0  0  0
   32.8410   44.6440   16.5470 C   0  0  0  0  0  2  0  0  0  0  0  0
   34.0900   43.8480   16.8060 C   0  0  1  0  0  3  0  0  0  0  0  0
   30.9720   41.6720   17.4600 C   0  0  0  0  0  0  0  0  0  0  0  0
   30.0070   42.3050   16.7640 N   0  0  0  0  0  0  0  0  0  0  0  0
   28.8060   41.7170   16.6930 C   0  0  0  0  0  3  0  0  0  0  0  0
   28.4480   40.5910   17.3130 N   0  0  0  0  0  0  0  0  0  0  0  0
   29.4070   40.0180   18.0430 C   0  0  0  0  0  0  0  0  0  0  0  0
   30.7170   40.4680   18.1100 C   0  0  0  0  0  0  0  0  0  0  0  0
   31.7200   39.6540   18.8870 C   0  0  2  0  0  3  0  0  0  0  0  0
   32.2810   38.5020   18.0370 C   0  0  0  0  0  1  0  0  0  0  0  0
   31.0570   39.0950   20.1480 C   0  0  0  0  0  2  0  0  0  0  0  0
   29.7610   38.3840   19.8230 C   0  0  0  0  0  0  0  0  0  0  0  0
   29.3630   37.4260   20.4790 O   0  0  0  0  0  0  0  0  0  0  0  0
   29.0140   38.9300   18.8190 N   0  0  0  0  0  0  0  0  0  0  0  0
   28.0830   38.5640   18.6670 H   0  0  0  0  0  0  0  0  0  0  0  0
   36.7670   44.9840   17.3500 C   0  0  1  0  0  3  0  0  0  0  0  0
   38.1530   45.4090   17.8100 C   0  0  0  0  0  0  0  0  0  0  0  0
   38.7660   44.7400   18.8830 C   0  0  0  0  0  3  0  0  0  0  0  0
   40.0230   45.1400   19.3430 C   0  0  0  0  0  3  0  0  0  0  0  0
   40.6760   46.2110   18.7400 C   0  0  0  0  0  0  0  0  0  0  0  0
   42.2180   46.7060   19.3140 Cl  0  0  0  0  0  0  0  0  0  0  0  0
   40.0810   46.8870   17.6790 C   0  0  0  0  0  3  0  0  0  0  0  0
   38.8240   46.4910   17.2160 C   0  0  0  0  0  3  0  0  0  0  0  0
   36.9070   44.0650   16.1120 C   0  0  0  0  0  2  0  0  0  0  0  0
   36.9350   44.8060   14.7980 N   0  0  0  0  0  4  0  0  0  0  0  0
   36.3530   44.2290   14.1530 H   0  0  0  0  0  0  0  0  0  0  0  0
   37.8840   44.7480   14.4000 H   0  0  0  0  0  0  0  0  0  0  0  0
   37.4590   47.0920   14.0170 C   0  0  0  0  0  1  0  0  0  0  0  0
   36.4470   46.2220   14.7470 C   0  0  0  0  0  3  0  0  0  0  0  0
   35.0950   46.2280   14.0430 C   0  0  0  0  0  1  0  0  0  0  0  0
  1  2  2  0  0  0  0
  3  1  1  0  0  0  0
  3  4  1  0  0  0  0
  5  4  1  0  0  0  0
  6  5  1  0  0  0  0
  7  8  1  1  0  0  0
  7  9  1  0  0  0  0
  7  6  1  0  0  0  0
  9  8  1  1  0  0  0
  9  3  1  0  0  0  0
 10  6  1  0  0  0  0
 10 15  1  0  0  0  0
 11 10  2  0  0  0  0
 12 11  1  0  0  0  0
 12 13  2  0  0  0  0
 13 14  1  0  0  0  0
 14 15  2  0  0  0  0
 14 21  1  0  0  0  0
 15 16  1  0  0  0  0
 16 17  1  6  0  0  0
 16 18  1  0  0  0  0
 19 18  1  0  0  0  0
 19 20  2  0  0  0  0
 21 19  1  0  0  0  0
 22 21  1  0  0  0  0
 23 31  1  6  0  0  0
 23 24  1  0  0  0  0
 23  1  1  0  0  0  0
 24 25  1  0  0  0  0
 25 26  2  0  0  0  0
 27 28  1  0  0  0  0
 27 26  1  0  0  0  0
 29 27  2  0  0  0  0
 30 29  1  0  0  0  0
 30 24  2  0  0  0  0
 32 31  1  0  0  0  0
 33 32  1  0  0  0  0
 34 32  1  0  0  0  0
 35 36  1  0  0  0  0
 36 32  1  0  0  0  0
 37 36  1  0  0  0  0
M  END
>  <minimizedAffinity>
-9.46498013

$$$$
