
 OpenBabel11232419273D

 37 41  0  0  1  0  0  0  0  0999 V2000
   35.9430   44.0600   19.1340 C   0  0  0  0  0  0  0  0  0  0  0  0
   36.0630   44.4130   20.3140 O   0  0  0  0  0  0  0  0  0  0  0  0
   34.7650   43.5130   18.6460 N   0  0  0  0  0  0  0  0  0  0  0  0
   33.6420   43.3540   19.5950 C   0  0  0  0  0  2  0  0  0  0  0  0
   32.2530   43.1330   18.9760 C   0  0  0  0  0  2  0  0  0  0  0  0
   32.3170   42.0360   18.0060 N   0  0  0  0  0  0  0  0  0  0  0  0
   33.3430   42.1820   16.9630 C   0  0  1  0  0  3  0  0  0  0  0  0
   33.6940   43.4880   16.3070 C   0  0  0  0  0  2  0  0  0  0  0  0
   34.6210   42.9040   17.3360 C   0  0  1  0  0  3  0  0  0  0  0  0
   31.0870   41.4120   17.7380 C   0  0  0  0  0  0  0  0  0  0  0  0
   30.2070   42.0740   16.9590 N   0  0  0  0  0  0  0  0  0  0  0  0
   29.0000   41.5210   16.7780 C   0  0  0  0  0  3  0  0  0  0  0  0
   28.5550   40.4050   17.3580 N   0  0  0  0  0  0  0  0  0  0  0  0
   29.4280   39.8030   18.1710 C   0  0  0  0  0  0  0  0  0  0  0  0
   30.7390   40.2150   18.3570 C   0  0  0  0  0  0  0  0  0  0  0  0
   31.6430   39.3720   19.2180 C   0  0  2  0  0  3  0  0  0  0  0  0
   32.2450   38.2050   18.4180 C   0  0  0  0  0  1  0  0  0  0  0  0
   30.8530   38.8310   20.4120 C   0  0  0  0  0  2  0  0  0  0  0  0
   29.5720   38.1580   19.9690 C   0  0  0  0  0  0  0  0  0  0  0  0
   29.0890   37.2110   20.5820 O   0  0  0  0  0  0  0  0  0  0  0  0
   28.9350   38.7270   18.9040 N   0  0  0  0  0  0  0  0  0  0  0  0
   28.0110   38.3890   18.6660 H   0  0  0  0  0  0  0  0  0  0  0  0
   37.1750   44.1040   18.2250 C   0  0  1  0  0  3  0  0  0  0  0  0
   36.9600   44.8990   16.9470 C   0  0  0  0  0  0  0  0  0  0  0  0
   37.1780   44.2880   15.7010 C   0  0  0  0  0  3  0  0  0  0  0  0
   37.0210   45.0120   14.5170 C   0  0  0  0  0  3  0  0  0  0  0  0
   36.6490   46.3530   14.5670 C   0  0  0  0  0  0  0  0  0  0  0  0
   36.4650   47.2440   13.1090 Cl  0  0  0  0  0  0  0  0  0  0  0  0
   36.4330   46.9750   15.7920 C   0  0  0  0  0  3  0  0  0  0  0  0
   36.5900   46.2540   16.9790 C   0  0  0  0  0  3  0  0  0  0  0  0
   38.3820   44.6990   18.9910 C   0  0  0  0  0  2  0  0  0  0  0  0
   39.7110   44.4640   18.3170 N   0  0  0  0  0  4  0  0  0  0  0  0
   39.4760   44.2760   17.3190 H   0  0  0  0  0  0  0  0  0  0  0  0
   40.1070   43.5750   18.6540 H   0  0  0  0  0  0  0  0  0  0  0  0
   40.2310   46.8030   17.7060 C   0  0  0  0  0  1  0  0  0  0  0  0
   40.7560   45.5390   18.3690 C   0  0  0  0  0  3  0  0  0  0  0  0
   41.1080   45.7810   19.8320 C   0  0  0  0  0  1  0  0  0  0  0  0
  1  2  2  0  0  0  0
  3  1  1  0  0  0  0
  3  4  1  0  0  0  0
  5  4  1  0  0  0  0
  6  5  1  0  0  0  0
  7  8  1  6  0  0  0
  7  9  1  0  0  0  0
  7  6  1  0  0  0  0
  9  8  1  6  0  0  0
  9  3  1  0  0  0  0
 10  6  1  0  0  0  0
 10 15  1  0  0  0  0
 11 10  2  0  0  0  0
 12 11  1  0  0  0  0
 12 13  2  0  0  0  0
 13 14  1  0  0  0  0
 14 15  2  0  0  0  0
 14 21  1  0  0  0  0
 15 16  1  0  0  0  0
 16 17  1  6  0  0  0
 16 18  1  0  0  0  0
 19 18  1  0  0  0  0
 19 20  2  0  0  0  0
 21 19  1  0  0  0  0
 22 21  1  0  0  0  0
 23 31  1  1  0  0  0
 23  1  1  0  0  0  0
 24 30  1  0  0  0  0
 24 23  1  0  0  0  0
 25 24  2  0  0  0  0
 26 27  2  0  0  0  0
 26 25  1  0  0  0  0
 27 29  1  0  0  0  0
 28 27  1  0  0  0  0
 29 30  2  0  0  0  0
 32 36  1  0  0  0  0
 32 34  1  0  0  0  0
 32 31  1  0  0  0  0
 33 32  1  0  0  0  0
 35 36  1  0  0  0  0
 36 37  1  0  0  0  0
M  END
>  <minimizedAffinity>
-9.83279133

$$$$
