
 OpenBabel11232419273D

 37 41  0  0  1  0  0  0  0  0999 V2000
   39.9990   44.6770   19.5340 C   0  0  0  0  0  0  0  0  0  0  0  0
   40.7990   44.0780   18.8030 O   0  0  0  0  0  0  0  0  0  0  0  0
   39.9730   44.4850   20.9070 N   0  0  0  0  0  0  0  0  0  0  0  0
   40.9390   43.5240   21.4800 C   0  0  0  0  0  2  0  0  0  0  0  0
   41.1720   43.6160   22.9960 C   0  0  0  0  0  2  0  0  0  0  0  0
   39.8840   43.5880   23.6950 N   0  0  0  0  0  0  0  0  0  0  0  0
   38.9100   44.5950   23.2490 C   0  0  1  0  0  3  0  0  0  0  0  0
   39.2710   46.0020   22.8630 C   0  0  0  0  0  2  0  0  0  0  0  0
   38.9420   45.0020   21.7900 C   0  0  1  0  0  3  0  0  0  0  0  0
   39.9480   43.1780   25.0370 C   0  0  0  0  0  0  0  0  0  0  0  0
   41.1690   42.9660   25.5680 N   0  0  0  0  0  0  0  0  0  0  0  0
   41.2270   42.4880   26.8180 C   0  0  0  0  0  3  0  0  0  0  0  0
   40.1840   42.1290   27.5690 N   0  0  0  0  0  0  0  0  0  0  0  0
   38.9900   42.2940   26.9940 C   0  0  0  0  0  0  0  0  0  0  0  0
   38.7920   42.8780   25.7520 C   0  0  0  0  0  0  0  0  0  0  0  0
   37.3790   43.1020   25.2790 C   0  0  2  0  0  3  0  0  0  0  0  0
   36.7990   44.4050   25.8550 C   0  0  0  0  0  1  0  0  0  0  0  0
   36.5070   41.9160   25.6950 C   0  0  0  0  0  2  0  0  0  0  0  0
   36.6530   41.6120   27.1710 C   0  0  0  0  0  0  0  0  0  0  0  0
   35.7280   41.1540   27.8350 O   0  0  0  0  0  0  0  0  0  0  0  0
   37.9010   41.7860   27.6960 N   0  0  0  0  0  0  0  0  0  0  0  0
   38.0670   41.4640   28.6410 H   0  0  0  0  0  0  0  0  0  0  0  0
   38.9200   45.5480   18.8820 C   0  0  1  0  0  3  0  0  0  0  0  0
   39.4580   46.4780   17.8050 C   0  0  0  0  0  0  0  0  0  0  0  0
   40.6940   47.1180   17.9930 C   0  0  0  0  0  3  0  0  0  0  0  0
   41.1880   48.0040   17.0310 C   0  0  0  0  0  3  0  0  0  0  0  0
   40.4510   48.2600   15.8790 C   0  0  0  0  0  0  0  0  0  0  0  0
   41.0550   49.3570   14.7020 Cl  0  0  0  0  0  0  0  0  0  0  0  0
   39.2220   47.6380   15.6800 C   0  0  0  0  0  3  0  0  0  0  0  0
   38.7250   46.7510   16.6390 C   0  0  0  0  0  3  0  0  0  0  0  0
   37.8110   44.6580   18.2710 C   0  0  0  0  0  2  0  0  0  0  0  0
   36.5360   44.6280   19.0760 N   0  0  0  0  0  4  0  0  0  0  0  0
   35.8740   45.2400   18.5510 H   0  0  0  0  0  0  0  0  0  0  0  0
   36.6870   45.1260   19.9650 H   0  0  0  0  0  0  0  0  0  0  0  0
   36.3800   42.7200   20.6400 C   0  0  0  0  0  1  0  0  0  0  0  0
   35.8670   43.3110   19.3360 C   0  0  0  0  0  3  0  0  0  0  0  0
   34.3620   43.5510   19.3850 C   0  0  0  0  0  1  0  0  0  0  0  0
  1  3  1  0  0  0  0
  2  1  2  0  0  0  0
  3  4  1  0  0  0  0
  3  9  1  0  0  0  0
  4  5  1  0  0  0  0
  5  6  1  0  0  0  0
  6 10  1  0  0  0  0
  7  8  1  1  0  0  0
  7  6  1  0  0  0  0
  9  8  1  1  0  0  0
  9  7  1  0  0  0  0
 10 11  2  0  0  0  0
 10 15  1  0  0  0  0
 11 12  1  0  0  0  0
 12 13  2  0  0  0  0
 14 13  1  0  0  0  0
 14 21  1  0  0  0  0
 15 14  2  0  0  0  0
 16 18  1  0  0  0  0
 16 15  1  0  0  0  0
 16 17  1  1  0  0  0
 18 19  1  0  0  0  0
 19 21  1  0  0  0  0
 19 20  2  0  0  0  0
 21 22  1  0  0  0  0
 23 31  1  6  0  0  0
 23  1  1  0  0  0  0
 24 25  1  0  0  0  0
 24 23  1  0  0  0  0
 26 25  2  0  0  0  0
 27 26  1  0  0  0  0
 28 27  1  0  0  0  0
 29 27  2  0  0  0  0
 29 30  1  0  0  0  0
 30 24  2  0  0  0  0
 31 32  1  0  0  0  0
 32 36  1  0  0  0  0
 32 34  1  0  0  0  0
 33 32  1  0  0  0  0
 36 37  1  0  0  0  0
 36 35  1  0  0  0  0
M  END
>  <minimizedAffinity>
-9.0635891

$$$$
