
 OpenBabel10152418593D

 35 38  0  0  0  0  0  0  0  0999 V2000
   10.7840   -8.9750   10.0300 C   0  0  0  0  0  2  0  0  0  0  0  0
    5.0120  -10.0750    8.3920 C   0  0  0  0  0  0  0  0  0  0  0  0
    4.9840   -9.3930    7.1670 C   0  0  0  0  0  3  0  0  0  0  0  0
    6.1190   -8.7270    6.7360 C   0  0  0  0  0  3  0  0  0  0  0  0
    7.2530   -8.7350    7.5420 C   0  0  0  0  0  3  0  0  0  0  0  0
    7.2740   -9.4140    8.7920 C   0  0  0  0  0  0  0  0  0  0  0  0
    8.3890   -9.4450    9.6540 C   0  0  0  0  0  0  0  0  0  0  0  0
    9.5400   -8.7350    9.3240 N   0  0  0  0  0  0  0  0  0  0  0  0
    8.3890  -10.1550   10.7930 N   0  0  0  0  0  0  0  0  0  0  0  0
    7.2620  -10.8020   11.0970 C   0  0  0  0  0  3  0  0  0  0  0  0
    6.1400  -10.8160   10.3720 N   0  0  0  0  0  0  0  0  0  0  0  0
    6.1370  -10.1180    9.2220 C   0  0  0  0  0  0  0  0  0  0  0  0
    9.3870   -7.7880    9.0060 H   0  0  0  0  0  0  0  0  0  0  0  0
    3.6030  -10.9060   10.1500 N   0  0  0  0  0  0  0  0  0  0  0  0
    3.7670  -10.7430    8.8030 C   0  0  0  0  0  0  0  0  0  0  0  0
    2.9830  -11.1940    7.9820 O   0  0  0  0  0  0  0  0  0  0  0  0
    2.7640  -11.3730   10.4670 H   0  0  0  0  0  0  0  0  0  0  0  0
    4.2470  -10.5330   10.8330 H   0  0  0  0  0  0  0  0  0  0  0  0
   10.5540   -9.5710   11.4030 C   0  0  0  0  0  0  0  0  0  0  0  0
   10.0340   -8.8060   12.4550 C   0  0  0  0  0  3  0  0  0  0  0  0
    9.7980   -9.3830   13.7010 C   0  0  0  0  0  3  0  0  0  0  0  0
   10.0470  -10.7420   13.9050 C   0  0  0  0  0  3  0  0  0  0  0  0
   10.5150  -11.5380   12.8610 C   0  0  0  0  0  0  0  0  0  0  0  0
   10.7890  -10.9390   11.6230 C   0  0  0  0  0  3  0  0  0  0  0  0
   10.7890  -12.9130   12.9780 N   0  0  0  0  0  0  0  0  0  0  0  0
    9.9830  -13.9960   13.2410 C   0  0  0  0  0  0  0  0  0  0  0  0
   10.4850  -15.0620   13.5980 O   0  0  0  0  0  0  0  0  0  0  0  0
   11.7640  -13.1840   12.9140 H   0  0  0  0  0  0  0  0  0  0  0  0
    8.5230  -13.9560   13.0170 C   0  0  0  0  0  0  0  0  0  0  0  0
    8.0000  -14.5770   11.8770 C   0  0  0  0  0  3  0  0  0  0  0  0
    6.6260  -14.5290   11.6280 C   0  0  0  0  0  3  0  0  0  0  0  0
    5.7860  -13.8450   12.5070 C   0  0  0  0  0  0  0  0  0  0  0  0
    4.0930  -13.7930   12.2020 Cl  0  0  0  0  0  0  0  0  0  0  0  0
    6.3060  -13.1980   13.6280 C   0  0  0  0  0  3  0  0  0  0  0  0
    7.6800  -13.2430   13.8800 C   0  0  0  0  0  3  0  0  0  0  0  0
  1 19  1  0  0  0  0
  2 15  1  0  0  0  0
  2 12  1  0  0  0  0
  3  2  2  0  0  0  0
  4  3  1  0  0  0  0
  4  5  2  0  0  0  0
  5  6  1  0  0  0  0
  6 12  2  0  0  0  0
  6  7  1  0  0  0  0
  7  9  2  0  0  0  0
  8  7  1  0  0  0  0
  8  1  1  0  0  0  0
  9 10  1  0  0  0  0
 11 10  2  0  0  0  0
 12 11  1  0  0  0  0
 13  8  1  0  0  0  0
 14 17  1  0  0  0  0
 14 18  1  0  0  0  0
 15 14  1  0  0  0  0
 16 15  2  0  0  0  0
 19 24  2  0  0  0  0
 19 20  1  0  0  0  0
 20 21  2  0  0  0  0
 21 22  1  0  0  0  0
 23 25  1  0  0  0  0
 23 22  2  0  0  0  0
 24 23  1  0  0  0  0
 25 26  1  0  0  0  0
 26 27  2  0  0  0  0
 28 25  1  0  0  0  0
 29 26  1  0  0  0  0
 29 35  1  0  0  0  0
 30 29  2  0  0  0  0
 31 30  1  0  0  0  0
 31 32  2  0  0  0  0
 32 34  1  0  0  0  0
 33 32  1  0  0  0  0
 34 35  2  0  0  0  0
M  END
>  <minimizedAffinity>
13.0049267

$$$$
