
 OpenBabel11232420023D

 40 45  0  0  1  0  0  0  0  0999 V2000
   -3.4550    1.8580  -21.9790 C   0  0  0  0  0  0  0  0  0  0  0  0
   -3.5270    1.8290  -23.3640 C   0  0  0  0  0  3  0  0  0  0  0  0
   -4.2760    0.9390  -24.0490 N   0  0  0  0  0  0  0  0  0  0  0  0
   -4.9900    0.0460  -23.3190 C   0  0  0  0  0  3  0  0  0  0  0  0
   -5.0080    0.0110  -21.9270 C   0  0  0  0  0  0  0  0  0  0  0  0
   -4.2390    0.9680  -21.2560 C   0  0  0  0  0  3  0  0  0  0  0  0
   -5.7160   -1.0260  -21.1770 C   0  0  0  0  0  0  0  0  0  0  0  0
   -7.1190   -1.1780  -21.2890 C   0  0  0  0  0  3  0  0  0  0  0  0
   -7.8160   -2.1050  -20.5060 C   0  0  0  0  0  3  0  0  0  0  0  0
   -7.0860   -2.8540  -19.6090 C   0  0  0  0  0  0  0  0  0  0  0  0
   -5.7060   -2.7270  -19.4770 C   0  0  0  0  0  0  0  0  0  0  0  0
   -5.0060   -1.8320  -20.2690 C   0  0  0  0  0  3  0  0  0  0  0  0
   -5.2080   -3.6730  -18.4110 C   0  0  2  0  0  3  0  0  0  0  0  0
   -6.5280   -4.3490  -17.9630 C   0  0  0  0  0  0  0  0  0  0  0  0
   -6.6680   -5.2150  -17.1130 O   0  0  0  0  0  0  0  0  0  0  0  0
   -7.5600   -3.8050  -18.7230 N   0  0  0  0  0  0  0  0  0  0  0  0
   -8.5220   -4.0900  -18.6130 H   0  0  0  0  0  0  0  0  0  0  0  0
   -4.5380   -3.0430  -17.2330 C   0  0  0  0  0  0  0  0  0  0  0  0
   -3.5370   -3.4840  -16.3860 C   0  0  0  0  0  3  0  0  0  0  0  0
   -3.3040   -2.4470  -15.4530 C   0  0  0  0  0  3  0  0  0  0  0  0
   -4.1690   -1.4330  -15.7850 C   0  0  0  0  0  3  0  0  0  0  0  0
   -4.9090   -1.7760  -16.8710 O   0  0  0  0  0  0  0  0  0  0  0  0
   -2.6570    2.7170  -21.2790 O   0  0  0  0  0  0  0  0  0  0  0  0
   -2.2650    2.1640  -20.0080 C   0  0  0  0  0  2  0  0  0  0  0  0
   -0.7540    2.4180  -19.8310 C   0  0  1  0  0  3  0  0  0  0  0  0
   -0.5030    2.6510  -18.3600 N   0  0  0  0  0  4  0  0  0  0  0  0
   -0.9650    3.5070  -18.0280 H   0  0  0  0  0  0  0  0  0  0  0  0
    0.4970    2.7210  -18.1320 H   0  0  0  0  0  0  0  0  0  0  0  0
   -0.9050    1.8680  -17.8180 H   0  0  0  0  0  0  0  0  0  0  0  0
    0.1230    1.2340  -20.2830 C   0  0  0  0  0  2  0  0  0  0  0  0
   -0.2070    0.7680  -21.6630 C   0  0  0  0  0  0  0  0  0  0  0  0
    0.1270    1.4000  -22.8440 C   0  0  0  0  0  3  0  0  0  0  0  0
   -0.3450    0.6480  -23.8880 N   0  0  0  0  0  0  0  0  0  0  0  0
   -0.9970   -0.4640  -23.4090 C   0  0  0  0  0  0  0  0  0  0  0  0
   -1.6370   -1.4960  -24.1030 C   0  0  0  0  0  3  0  0  0  0  0  0
   -2.2460   -2.5030  -23.3510 C   0  0  0  0  0  3  0  0  0  0  0  0
   -2.2160   -2.4760  -21.9600 C   0  0  0  0  0  3  0  0  0  0  0  0
   -1.5670   -1.4380  -21.2800 C   0  0  0  0  0  3  0  0  0  0  0  0
   -0.9400   -0.4100  -22.0160 C   0  0  0  0  0  0  0  0  0  0  0  0
   -0.2520    0.8810  -24.8690 H   0  0  0  0  0  0  0  0  0  0  0  0
  1 23  1  0  0  0  0
  1  6  1  0  0  0  0
  2  1  2  0  0  0  0
  3  2  1  0  0  0  0
  3  4  2  0  0  0  0
  4  5  1  0  0  0  0
  5  6  2  0  0  0  0
  5  7  1  0  0  0  0
  7 12  1  0  0  0  0
  8  7  2  0  0  0  0
  8  9  1  0  0  0  0
  9 10  2  0  0  0  0
 10 11  1  0  0  0  0
 10 16  1  0  0  0  0
 11 13  1  0  0  0  0
 12 11  2  0  0  0  0
 13 14  1  0  0  0  0
 13 18  1  1  0  0  0
 14 15  2  0  0  0  0
 16 17  1  0  0  0  0
 16 14  1  0  0  0  0
 18 22  1  0  0  0  0
 18 19  2  0  0  0  0
 19 20  1  0  0  0  0
 21 20  2  0  0  0  0
 22 21  1  0  0  0  0
 23 24  1  0  0  0  0
 25 24  1  1  0  0  0
 25 30  1  0  0  0  0
 25 26  1  0  0  0  0
 26 28  1  0  0  0  0
 26 27  1  0  0  0  0
 26 29  1  0  0  0  0
 31 30  1  0  0  0  0
 32 31  2  0  0  0  0
 33 34  1  0  0  0  0
 33 32  1  0  0  0  0
 34 39  1  0  0  0  0
 35 34  2  0  0  0  0
 35 36  1  0  0  0  0
 36 37  2  0  0  0  0
 37 38  1  0  0  0  0
 39 31  1  0  0  0  0
 39 38  2  0  0  0  0
 40 33  1  0  0  0  0
M  END
>  <minimizedAffinity>
-4.9036622

$$$$
