
 OpenBabel11232420023D

 40 45  0  0  1  0  0  0  0  0999 V2000
   -3.7420    1.1950  -20.8930 C   0  0  0  0  0  0  0  0  0  0  0  0
   -3.5140    1.2440  -22.2600 C   0  0  0  0  0  3  0  0  0  0  0  0
   -4.2350    0.5400  -23.1590 N   0  0  0  0  0  0  0  0  0  0  0  0
   -5.2320   -0.2390  -22.6710 C   0  0  0  0  0  3  0  0  0  0  0  0
   -5.5600   -0.3360  -21.3200 C   0  0  0  0  0  0  0  0  0  0  0  0
   -4.8050    0.4310  -20.4260 C   0  0  0  0  0  3  0  0  0  0  0  0
   -6.5800   -1.2580  -20.8230 C   0  0  0  0  0  0  0  0  0  0  0  0
   -7.9380   -0.8660  -20.7360 C   0  0  0  0  0  3  0  0  0  0  0  0
   -8.9040   -1.7090  -20.1750 C   0  0  0  0  0  3  0  0  0  0  0  0
   -8.4820   -2.9300  -19.6980 C   0  0  0  0  0  0  0  0  0  0  0  0
   -7.1540   -3.3430  -19.7720 C   0  0  0  0  0  0  0  0  0  0  0  0
   -6.1970   -2.5260  -20.3510 C   0  0  0  0  0  3  0  0  0  0  0  0
   -7.0130   -4.7150  -19.1590 C   0  0  2  0  0  3  0  0  0  0  0  0
   -8.4720   -5.0060  -18.7260 C   0  0  0  0  0  0  0  0  0  0  0  0
   -8.9000   -6.0120  -18.1800 O   0  0  0  0  0  0  0  0  0  0  0  0
   -9.2480   -3.9070  -19.0880 N   0  0  0  0  0  0  0  0  0  0  0  0
  -10.2400   -3.8620  -18.9090 H   0  0  0  0  0  0  0  0  0  0  0  0
   -6.1070   -4.8190  -17.9750 C   0  0  0  0  0  0  0  0  0  0  0  0
   -4.9210   -4.1840  -17.6540 C   0  0  0  0  0  3  0  0  0  0  0  0
   -4.5210   -4.6780  -16.3900 C   0  0  0  0  0  3  0  0  0  0  0  0
   -5.4860   -5.5790  -16.0100 C   0  0  0  0  0  3  0  0  0  0  0  0
   -6.4590   -5.6600  -16.9540 O   0  0  0  0  0  0  0  0  0  0  0  0
   -2.9830    1.8580  -19.9720 O   0  0  0  0  0  0  0  0  0  0  0  0
   -2.8710    1.1200  -18.7420 C   0  0  0  0  0  2  0  0  0  0  0  0
   -1.3790    1.0750  -18.3540 C   0  0  1  0  0  3  0  0  0  0  0  0
   -1.2840    1.3920  -16.8800 N   0  0  0  0  0  4  0  0  0  0  0  0
   -1.5910    2.3520  -16.6790 H   0  0  0  0  0  0  0  0  0  0  0  0
   -0.3330    1.2780  -16.5080 H   0  0  0  0  0  0  0  0  0  0  0  0
   -1.9150    0.7640  -16.3560 H   0  0  0  0  0  0  0  0  0  0  0  0
   -0.7260   -0.3010  -18.5890 C   0  0  0  0  0  2  0  0  0  0  0  0
   -1.4810   -1.1360  -19.5690 C   0  0  0  0  0  0  0  0  0  0  0  0
   -2.5210   -1.9980  -19.2830 C   0  0  0  0  0  3  0  0  0  0  0  0
   -2.9520   -2.5630  -20.4540 N   0  0  0  0  0  0  0  0  0  0  0  0
   -2.2010   -2.0950  -21.5060 C   0  0  0  0  0  0  0  0  0  0  0  0
   -2.2800   -2.4000  -22.8690 C   0  0  0  0  0  3  0  0  0  0  0  0
   -1.3620   -1.7860  -23.7250 C   0  0  0  0  0  3  0  0  0  0  0  0
   -0.4050   -0.9030  -23.2340 C   0  0  0  0  0  3  0  0  0  0  0  0
   -0.3420   -0.6040  -21.8680 C   0  0  0  0  0  3  0  0  0  0  0  0
   -1.2600   -1.2080  -20.9820 C   0  0  0  0  0  0  0  0  0  0  0  0
   -3.6980   -3.2430  -20.5380 H   0  0  0  0  0  0  0  0  0  0  0  0
  1  6  1  0  0  0  0
  1 23  1  0  0  0  0
  2  1  2  0  0  0  0
  3  4  2  0  0  0  0
  3  2  1  0  0  0  0
  4  5  1  0  0  0  0
  5  7  1  0  0  0  0
  5  6  2  0  0  0  0
  7  8  2  0  0  0  0
  7 12  1  0  0  0  0
  8  9  1  0  0  0  0
  9 10  2  0  0  0  0
 10 16  1  0  0  0  0
 11 10  1  0  0  0  0
 11 13  1  0  0  0  0
 12 11  2  0  0  0  0
 13 14  1  0  0  0  0
 13 18  1  1  0  0  0
 14 15  2  0  0  0  0
 16 17  1  0  0  0  0
 16 14  1  0  0  0  0
 18 19  2  0  0  0  0
 18 22  1  0  0  0  0
 19 20  1  0  0  0  0
 20 21  2  0  0  0  0
 22 21  1  0  0  0  0
 23 24  1  0  0  0  0
 25 24  1  1  0  0  0
 25 26  1  0  0  0  0
 26 27  1  0  0  0  0
 26 28  1  0  0  0  0
 26 29  1  0  0  0  0
 30 25  1  0  0  0  0
 31 32  2  0  0  0  0
 31 30  1  0  0  0  0
 33 32  1  0  0  0  0
 34 39  1  0  0  0  0
 34 33  1  0  0  0  0
 35 34  2  0  0  0  0
 36 37  2  0  0  0  0
 36 35  1  0  0  0  0
 37 38  1  0  0  0  0
 38 39  2  0  0  0  0
 39 31  1  0  0  0  0
 40 33  1  0  0  0  0
M  END
>  <minimizedAffinity>
-4.843606

$$$$
