
 OpenBabel11232420023D

 40 45  0  0  1  0  0  0  0  0999 V2000
   -7.5490   -3.9640  -18.6380 C   0  0  0  0  0  0  0  0  0  0  0  0
   -7.8050   -5.0960  -17.8790 C   0  0  0  0  0  3  0  0  0  0  0  0
   -6.9120   -5.6300  -17.0190 N   0  0  0  0  0  0  0  0  0  0  0  0
   -5.7160   -4.9990  -16.9050 C   0  0  0  0  0  3  0  0  0  0  0  0
   -5.3730   -3.8420  -17.6000 C   0  0  0  0  0  0  0  0  0  0  0  0
   -6.3380   -3.3070  -18.4620 C   0  0  0  0  0  3  0  0  0  0  0  0
   -4.0410   -3.2450  -17.5220 C   0  0  0  0  0  0  0  0  0  0  0  0
   -2.9010   -4.0380  -17.2450 C   0  0  0  0  0  3  0  0  0  0  0  0
   -1.6370   -3.4620  -17.0760 C   0  0  0  0  0  3  0  0  0  0  0  0
   -1.5450   -2.0910  -17.1750 C   0  0  0  0  0  0  0  0  0  0  0  0
   -2.6480   -1.2860  -17.4480 C   0  0  0  0  0  0  0  0  0  0  0  0
   -3.8970   -1.8510  -17.6450 C   0  0  0  0  0  3  0  0  0  0  0  0
   -2.2240    0.1620  -17.4830 C   0  0  2  0  0  3  0  0  0  0  0  0
   -0.7080    0.0430  -17.1830 C   0  0  0  0  0  0  0  0  0  0  0  0
    0.1090    0.9480  -17.1090 O   0  0  0  0  0  0  0  0  0  0  0  0
   -0.4140   -1.3090  -17.0240 N   0  0  0  0  0  0  0  0  0  0  0  0
    0.5170   -1.6400  -16.8200 H   0  0  0  0  0  0  0  0  0  0  0  0
   -2.8670    1.0620  -16.4770 C   0  0  0  0  0  0  0  0  0  0  0  0
   -3.4680    2.3020  -16.5880 C   0  0  0  0  0  3  0  0  0  0  0  0
   -3.9100    2.6610  -15.2930 C   0  0  0  0  0  3  0  0  0  0  0  0
   -3.5590    1.6190  -14.4690 C   0  0  0  0  0  3  0  0  0  0  0  0
   -2.9430    0.6390  -15.1770 O   0  0  0  0  0  0  0  0  0  0  0  0
   -8.4240   -3.4500  -19.5530 O   0  0  0  0  0  0  0  0  0  0  0  0
   -7.7990   -3.2510  -20.8340 C   0  0  0  0  0  2  0  0  0  0  0  0
   -8.0030   -1.7750  -21.2330 C   0  0  1  0  0  3  0  0  0  0  0  0
   -9.0990   -1.2160  -20.3570 N   0  0  0  0  0  4  0  0  0  0  0  0
  -10.0010   -1.6760  -20.5390 H   0  0  0  0  0  0  0  0  0  0  0  0
   -9.2290   -0.2040  -20.4790 H   0  0  0  0  0  0  0  0  0  0  0  0
   -8.8690   -1.3980  -19.3670 H   0  0  0  0  0  0  0  0  0  0  0  0
   -6.7450   -0.9070  -21.0360 C   0  0  0  0  0  2  0  0  0  0  0  0
   -5.7350   -1.1050  -22.1170 C   0  0  0  0  0  0  0  0  0  0  0  0
   -5.9970   -1.3580  -23.4490 C   0  0  0  0  0  3  0  0  0  0  0  0
   -4.8040   -1.4620  -24.1150 N   0  0  0  0  0  0  0  0  0  0  0  0
   -3.7590   -1.2940  -23.2360 C   0  0  0  0  0  0  0  0  0  0  0  0
   -2.3800   -1.3260  -23.4680 C   0  0  0  0  0  3  0  0  0  0  0  0
   -1.5350   -1.1450  -22.3710 C   0  0  0  0  0  3  0  0  0  0  0  0
   -2.0500   -0.9400  -21.0950 C   0  0  0  0  0  3  0  0  0  0  0  0
   -3.4340   -0.9060  -20.8810 C   0  0  0  0  0  3  0  0  0  0  0  0
   -4.3100   -1.0820  -21.9720 C   0  0  0  0  0  0  0  0  0  0  0  0
   -4.6980   -1.6550  -25.1030 H   0  0  0  0  0  0  0  0  0  0  0  0
  1  6  2  0  0  0  0
  1  2  1  0  0  0  0
  2  3  2  0  0  0  0
  3  4  1  0  0  0  0
  5  7  1  0  0  0  0
  5  4  2  0  0  0  0
  6  5  1  0  0  0  0
  7  8  1  0  0  0  0
  8  9  2  0  0  0  0
 10  9  1  0  0  0  0
 10 16  1  0  0  0  0
 11 10  2  0  0  0  0
 12  7  2  0  0  0  0
 12 11  1  0  0  0  0
 13 11  1  0  0  0  0
 13 14  1  0  0  0  0
 13 18  1  1  0  0  0
 14 15  2  0  0  0  0
 14 16  1  0  0  0  0
 16 17  1  0  0  0  0
 18 22  1  0  0  0  0
 19 18  2  0  0  0  0
 19 20  1  0  0  0  0
 20 21  2  0  0  0  0
 22 21  1  0  0  0  0
 23  1  1  0  0  0  0
 24 23  1  0  0  0  0
 25 30  1  1  0  0  0
 25 24  1  0  0  0  0
 25 26  1  0  0  0  0
 26 29  1  0  0  0  0
 27 26  1  0  0  0  0
 28 26  1  0  0  0  0
 31 39  1  0  0  0  0
 31 30  1  0  0  0  0
 32 31  2  0  0  0  0
 33 32  1  0  0  0  0
 33 34  1  0  0  0  0
 34 39  1  0  0  0  0
 35 34  2  0  0  0  0
 35 36  1  0  0  0  0
 36 37  2  0  0  0  0
 37 38  1  0  0  0  0
 39 38  2  0  0  0  0
 40 33  1  0  0  0  0
M  END
>  <minimizedAffinity>
-6.89906454

$$$$
