
 OpenBabel11232420023D

 40 45  0  0  1  0  0  0  0  0999 V2000
   -3.0760    1.1580  -22.7590 C   0  0  0  0  0  0  0  0  0  0  0  0
   -3.5740    0.8670  -24.0200 C   0  0  0  0  0  3  0  0  0  0  0  0
   -4.4720   -0.1130  -24.2560 N   0  0  0  0  0  0  0  0  0  0  0  0
   -4.8980   -0.8260  -23.1840 C   0  0  0  0  0  3  0  0  0  0  0  0
   -4.4820   -0.5950  -21.8740 C   0  0  0  0  0  0  0  0  0  0  0  0
   -3.5700    0.4480  -21.6720 C   0  0  0  0  0  3  0  0  0  0  0  0
   -4.8910   -1.4460  -20.7580 C   0  0  0  0  0  0  0  0  0  0  0  0
   -6.2600   -1.6540  -20.4630 C   0  0  0  0  0  3  0  0  0  0  0  0
   -6.6600   -2.3900  -19.3420 C   0  0  0  0  0  3  0  0  0  0  0  0
   -5.6690   -2.8920  -18.5270 C   0  0  0  0  0  0  0  0  0  0  0  0
   -4.3150   -2.7050  -18.7920 C   0  0  0  0  0  0  0  0  0  0  0  0
   -3.9120   -2.0010  -19.9150 C   0  0  0  0  0  3  0  0  0  0  0  0
   -3.4900   -3.3650  -17.7140 C   0  0  2  0  0  3  0  0  0  0  0  0
   -4.5950   -3.9500  -16.8000 C   0  0  0  0  0  0  0  0  0  0  0  0
   -4.4460   -4.5980  -15.7750 O   0  0  0  0  0  0  0  0  0  0  0  0
   -5.8260   -3.6230  -17.3630 N   0  0  0  0  0  0  0  0  0  0  0  0
   -6.7030   -3.8980  -16.9450 H   0  0  0  0  0  0  0  0  0  0  0  0
   -2.6030   -2.4620  -16.9180 C   0  0  0  0  0  0  0  0  0  0  0  0
   -2.7500   -1.1560  -16.4880 C   0  0  0  0  0  3  0  0  0  0  0  0
   -1.5820   -0.8310  -15.7590 C   0  0  0  0  0  3  0  0  0  0  0  0
   -0.7940   -1.9560  -15.7790 C   0  0  0  0  0  3  0  0  0  0  0  0
   -1.4090   -2.9550  -16.4640 O   0  0  0  0  0  0  0  0  0  0  0  0
   -2.1260    2.1090  -22.5180 O   0  0  0  0  0  0  0  0  0  0  0  0
   -2.1970    2.6050  -21.1690 C   0  0  0  0  0  2  0  0  0  0  0  0
   -1.1250    1.8700  -20.3390 C   0  0  1  0  0  3  0  0  0  0  0  0
    0.1200    1.7770  -21.1890 N   0  0  0  0  0  4  0  0  0  0  0  0
   -0.0310    1.1920  -22.0210 H   0  0  0  0  0  0  0  0  0  0  0  0
    0.9260    1.3970  -20.6760 H   0  0  0  0  0  0  0  0  0  0  0  0
    0.3690    2.7190  -21.5320 H   0  0  0  0  0  0  0  0  0  0  0  0
   -0.7580    2.5960  -19.0310 C   0  0  0  0  0  2  0  0  0  0  0  0
   -1.8830    2.6200  -18.0510 C   0  0  0  0  0  0  0  0  0  0  0  0
   -3.2310    2.6310  -18.3490 C   0  0  0  0  0  3  0  0  0  0  0  0
   -3.9360    2.6380  -17.1740 N   0  0  0  0  0  0  0  0  0  0  0  0
   -3.0700    2.6450  -16.1060 C   0  0  0  0  0  0  0  0  0  0  0  0
   -3.3400    2.6600  -14.7340 C   0  0  0  0  0  3  0  0  0  0  0  0
   -2.2500    2.6880  -13.8600 C   0  0  0  0  0  3  0  0  0  0  0  0
   -0.9450    2.7010  -14.3410 C   0  0  0  0  0  3  0  0  0  0  0  0
   -0.6920    2.6800  -15.7180 C   0  0  0  0  0  3  0  0  0  0  0  0
   -1.7740    2.6480  -16.6230 C   0  0  0  0  0  0  0  0  0  0  0  0
   -4.9450    2.6580  -17.0950 H   0  0  0  0  0  0  0  0  0  0  0  0
  1 23  1  0  0  0  0
  1  6  1  0  0  0  0
  2  1  2  0  0  0  0
  3  2  1  0  0  0  0
  3  4  2  0  0  0  0
  4  5  1  0  0  0  0
  5  6  2  0  0  0  0
  5  7  1  0  0  0  0
  7  8  2  0  0  0  0
  7 12  1  0  0  0  0
  8  9  1  0  0  0  0
  9 10  2  0  0  0  0
 10 16  1  0  0  0  0
 11 10  1  0  0  0  0
 11 13  1  0  0  0  0
 12 11  2  0  0  0  0
 13 18  1  1  0  0  0
 13 14  1  0  0  0  0
 14 15  2  0  0  0  0
 16 17  1  0  0  0  0
 16 14  1  0  0  0  0
 18 19  2  0  0  0  0
 18 22  1  0  0  0  0
 19 20  1  0  0  0  0
 21 20  2  0  0  0  0
 22 21  1  0  0  0  0
 23 24  1  0  0  0  0
 25 24  1  6  0  0  0
 25 30  1  0  0  0  0
 26 28  1  0  0  0  0
 26 25  1  0  0  0  0
 27 26  1  0  0  0  0
 29 26  1  0  0  0  0
 30 31  1  0  0  0  0
 31 39  1  0  0  0  0
 32 31  2  0  0  0  0
 32 33  1  0  0  0  0
 33 40  1  0  0  0  0
 33 34  1  0  0  0  0
 34 35  1  0  0  0  0
 35 36  2  0  0  0  0
 37 36  1  0  0  0  0
 38 37  2  0  0  0  0
 39 34  2  0  0  0  0
 39 38  1  0  0  0  0
M  END
>  <minimizedAffinity>
-6.38964939

$$$$
