
 OpenBabel11232420023D

 40 45  0  0  1  0  0  0  0  0999 V2000
   -2.3680    2.3980  -15.9550 C   0  0  0  0  0  0  0  0  0  0  0  0
   -1.0280    2.6890  -15.7460 C   0  0  0  0  0  3  0  0  0  0  0  0
   -0.1100    2.7140  -16.7360 N   0  0  0  0  0  0  0  0  0  0  0  0
   -0.5530    2.4460  -17.9900 C   0  0  0  0  0  3  0  0  0  0  0  0
   -1.8810    2.1710  -18.3090 C   0  0  0  0  0  0  0  0  0  0  0  0
   -2.8030    2.1810  -17.2560 C   0  0  0  0  0  3  0  0  0  0  0  0
   -2.3030    1.7950  -19.6570 C   0  0  0  0  0  0  0  0  0  0  0  0
   -2.2240    2.7150  -20.7300 C   0  0  0  0  0  3  0  0  0  0  0  0
   -2.7120    2.3950  -22.0020 C   0  0  0  0  0  3  0  0  0  0  0  0
   -3.2860    1.1530  -22.1670 C   0  0  0  0  0  0  0  0  0  0  0  0
   -3.3760    0.2270  -21.1310 C   0  0  0  0  0  0  0  0  0  0  0  0
   -2.8700    0.5260  -19.8770 C   0  0  0  0  0  3  0  0  0  0  0  0
   -4.0600   -1.0250  -21.6260 C   0  0  2  0  0  3  0  0  0  0  0  0
   -4.3430   -0.6530  -23.1030 C   0  0  0  0  0  0  0  0  0  0  0  0
   -4.8820   -1.3440  -23.9540 O   0  0  0  0  0  0  0  0  0  0  0  0
   -3.8500    0.6320  -23.3180 N   0  0  0  0  0  0  0  0  0  0  0  0
   -3.9170    1.0960  -24.2120 H   0  0  0  0  0  0  0  0  0  0  0  0
   -5.3390   -1.3900  -20.9450 C   0  0  0  0  0  0  0  0  0  0  0  0
   -5.6170   -1.8340  -19.6650 C   0  0  0  0  0  3  0  0  0  0  0  0
   -7.0190   -2.0050  -19.5860 C   0  0  0  0  0  3  0  0  0  0  0  0
   -7.5160   -1.6510  -20.8170 C   0  0  0  0  0  3  0  0  0  0  0  0
   -6.5100   -1.2610  -21.6420 O   0  0  0  0  0  0  0  0  0  0  0  0
   -3.2920    2.3150  -14.9530 O   0  0  0  0  0  0  0  0  0  0  0  0
   -2.9420    1.3060  -13.9870 C   0  0  0  0  0  2  0  0  0  0  0  0
   -2.4080    0.0810  -14.7580 C   0  0  1  0  0  3  0  0  0  0  0  0
   -1.4800   -0.6680  -13.8310 N   0  0  0  0  0  4  0  0  0  0  0  0
   -0.6490   -0.1100  -13.5940 H   0  0  0  0  0  0  0  0  0  0  0  0
   -1.1600   -1.5620  -14.2250 H   0  0  0  0  0  0  0  0  0  0  0  0
   -1.9700   -0.8610  -12.9420 H   0  0  0  0  0  0  0  0  0  0  0  0
   -3.5160   -0.8890  -15.2110 C   0  0  0  0  0  2  0  0  0  0  0  0
   -3.1030   -1.7320  -16.3700 C   0  0  0  0  0  0  0  0  0  0  0  0
   -2.1240   -1.4330  -17.2960 C   0  0  0  0  0  3  0  0  0  0  0  0
   -2.0390   -2.4670  -18.1910 N   0  0  0  0  0  0  0  0  0  0  0  0
   -2.9610   -3.4380  -17.8750 C   0  0  0  0  0  0  0  0  0  0  0  0
   -3.2340   -4.6540  -18.5100 C   0  0  0  0  0  3  0  0  0  0  0  0
   -4.2550   -5.4460  -17.9790 C   0  0  0  0  0  3  0  0  0  0  0  0
   -4.9720   -5.0370  -16.8590 C   0  0  0  0  0  3  0  0  0  0  0  0
   -4.6820   -3.8180  -16.2320 C   0  0  0  0  0  3  0  0  0  0  0  0
   -3.6530   -3.0010  -16.7460 C   0  0  0  0  0  0  0  0  0  0  0  0
   -1.4110   -2.5080  -18.9840 H   0  0  0  0  0  0  0  0  0  0  0  0
  1  2  1  0  0  0  0
  1 23  1  0  0  0  0
  3  2  2  0  0  0  0
  4  3  1  0  0  0  0
  5  4  2  0  0  0  0
  5  6  1  0  0  0  0
  6  1  2  0  0  0  0
  7  5  1  0  0  0  0
  8  7  2  0  0  0  0
  9  8  1  0  0  0  0
 10  9  2  0  0  0  0
 10 11  1  0  0  0  0
 11 12  2  0  0  0  0
 12  7  1  0  0  0  0
 13 11  1  0  0  0  0
 13 18  1  1  0  0  0
 14 13  1  0  0  0  0
 15 14  2  0  0  0  0
 16 14  1  0  0  0  0
 16 10  1  0  0  0  0
 17 16  1  0  0  0  0
 18 19  2  0  0  0  0
 19 20  1  0  0  0  0
 21 20  2  0  0  0  0
 22 18  1  0  0  0  0
 22 21  1  0  0  0  0
 23 24  1  0  0  0  0
 25 30  1  1  0  0  0
 25 24  1  0  0  0  0
 25 26  1  0  0  0  0
 26 27  1  0  0  0  0
 26 29  1  0  0  0  0
 28 26  1  0  0  0  0
 31 30  1  0  0  0  0
 32 31  2  0  0  0  0
 33 34  1  0  0  0  0
 33 32  1  0  0  0  0
 34 39  1  0  0  0  0
 35 36  1  0  0  0  0
 35 34  2  0  0  0  0
 36 37  2  0  0  0  0
 37 38  1  0  0  0  0
 39 31  1  0  0  0  0
 39 38  2  0  0  0  0
 40 33  1  0  0  0  0
M  END
>  <minimizedAffinity>
-5.99744415

$$$$
