
 OpenBabel11232420023D

 40 45  0  0  1  0  0  0  0  0999 V2000
   -3.0300    0.6130  -22.5750 C   0  0  0  0  0  0  0  0  0  0  0  0
   -3.8580    0.4060  -23.6680 C   0  0  0  0  0  3  0  0  0  0  0  0
   -4.8140   -0.5470  -23.7040 N   0  0  0  0  0  0  0  0  0  0  0  0
   -4.9550   -1.3180  -22.5980 C   0  0  0  0  0  3  0  0  0  0  0  0
   -4.1940   -1.1710  -21.4400 C   0  0  0  0  0  0  0  0  0  0  0  0
   -3.2320   -0.1550  -21.4350 C   0  0  0  0  0  3  0  0  0  0  0  0
   -4.3110   -2.0830  -20.3020 C   0  0  0  0  0  0  0  0  0  0  0  0
   -3.1650   -2.6820  -19.7260 C   0  0  0  0  0  3  0  0  0  0  0  0
   -3.2750   -3.6260  -18.7000 C   0  0  0  0  0  3  0  0  0  0  0  0
   -4.5430   -3.9630  -18.2800 C   0  0  0  0  0  0  0  0  0  0  0  0
   -5.6890   -3.3900  -18.8270 C   0  0  0  0  0  0  0  0  0  0  0  0
   -5.5870   -2.4330  -19.8230 C   0  0  0  0  0  3  0  0  0  0  0  0
   -6.9140   -3.9710  -18.1640 C   0  0  2  0  0  3  0  0  0  0  0  0
   -6.2750   -4.9640  -17.1600 C   0  0  0  0  0  0  0  0  0  0  0  0
   -6.8510   -5.6900  -16.3640 O   0  0  0  0  0  0  0  0  0  0  0  0
   -4.8930   -4.8800  -17.3050 N   0  0  0  0  0  0  0  0  0  0  0  0
   -4.2560   -5.4360  -16.7540 H   0  0  0  0  0  0  0  0  0  0  0  0
   -7.8640   -4.7000  -19.0590 C   0  0  0  0  0  0  0  0  0  0  0  0
   -8.3320   -4.4340  -20.3320 C   0  0  0  0  0  3  0  0  0  0  0  0
   -9.2070   -5.4910  -20.6770 C   0  0  0  0  0  3  0  0  0  0  0  0
   -9.2180   -6.3430  -19.5990 C   0  0  0  0  0  3  0  0  0  0  0  0
   -8.3960   -5.8830  -18.6210 O   0  0  0  0  0  0  0  0  0  0  0  0
   -2.0230    1.5350  -22.5490 O   0  0  0  0  0  0  0  0  0  0  0  0
   -2.1410    2.4230  -21.4220 C   0  0  0  0  0  2  0  0  0  0  0  0
   -1.3160    1.8260  -20.2640 C   0  0  1  0  0  3  0  0  0  0  0  0
    0.1210    2.2450  -20.4680 N   0  0  0  0  0  4  0  0  0  0  0  0
    0.5170    1.8370  -21.3250 H   0  0  0  0  0  0  0  0  0  0  0  0
    0.7290    1.9820  -19.6820 H   0  0  0  0  0  0  0  0  0  0  0  0
    0.1630    3.2710  -20.5830 H   0  0  0  0  0  0  0  0  0  0  0  0
   -1.7640    2.3190  -18.8750 C   0  0  0  0  0  2  0  0  0  0  0  0
   -2.4840    1.2680  -18.0970 C   0  0  0  0  0  0  0  0  0  0  0  0
   -3.8200    0.9360  -18.2050 C   0  0  0  0  0  3  0  0  0  0  0  0
   -4.0870   -0.0850  -17.3320 N   0  0  0  0  0  0  0  0  0  0  0  0
   -2.9480   -0.4200  -16.6390 C   0  0  0  0  0  0  0  0  0  0  0  0
   -2.7540   -1.3910  -15.6500 C   0  0  0  0  0  3  0  0  0  0  0  0
   -1.4780   -1.5020  -15.0930 C   0  0  0  0  0  3  0  0  0  0  0  0
   -0.4400   -0.6740  -15.5090 C   0  0  0  0  0  3  0  0  0  0  0  0
   -0.6490    0.2890  -16.5040 C   0  0  0  0  0  3  0  0  0  0  0  0
   -1.9280    0.4190  -17.0860 C   0  0  0  0  0  0  0  0  0  0  0  0
   -4.9920   -0.5180  -17.1940 H   0  0  0  0  0  0  0  0  0  0  0  0
  1 23  1  0  0  0  0
  1  6  1  0  0  0  0
  2  1  2  0  0  0  0
  3  2  1  0  0  0  0
  3  4  2  0  0  0  0
  4  5  1  0  0  0  0
  5  6  2  0  0  0  0
  5  7  1  0  0  0  0
  7 12  2  0  0  0  0
  7  8  1  0  0  0  0
  8  9  2  0  0  0  0
  9 10  1  0  0  0  0
 10 16  1  0  0  0  0
 11 10  2  0  0  0  0
 11 13  1  0  0  0  0
 12 11  1  0  0  0  0
 13 18  1  6  0  0  0
 13 14  1  0  0  0  0
 14 15  2  0  0  0  0
 16 14  1  0  0  0  0
 16 17  1  0  0  0  0
 18 22  1  0  0  0  0
 19 18  2  0  0  0  0
 20 19  1  0  0  0  0
 20 21  2  0  0  0  0
 21 22  1  0  0  0  0
 23 24  1  0  0  0  0
 25 24  1  6  0  0  0
 25 30  1  0  0  0  0
 26 25  1  0  0  0  0
 26 28  1  0  0  0  0
 27 26  1  0  0  0  0
 29 26  1  0  0  0  0
 30 31  1  0  0  0  0
 31 39  1  0  0  0  0
 32 31  2  0  0  0  0
 32 33  1  0  0  0  0
 33 40  1  0  0  0  0
 33 34  1  0  0  0  0
 34 35  1  0  0  0  0
 35 36  2  0  0  0  0
 37 36  1  0  0  0  0
 38 37  2  0  0  0  0
 39 34  2  0  0  0  0
 39 38  1  0  0  0  0
M  END
>  <minimizedAffinity>
-6.70867777

$$$$
