
 OpenBabel11232420023D

 40 45  0  0  1  0  0  0  0  0999 V2000
   -3.5120   -1.1840  -16.0430 C   0  0  0  0  0  0  0  0  0  0  0  0
   -3.2650   -0.4640  -14.8830 C   0  0  0  0  0  3  0  0  0  0  0  0
   -2.4920    0.6420  -14.8460 N   0  0  0  0  0  0  0  0  0  0  0  0
   -1.9500    1.0520  -16.0200 C   0  0  0  0  0  3  0  0  0  0  0  0
   -2.1590    0.4170  -17.2420 C   0  0  0  0  0  0  0  0  0  0  0  0
   -2.9880   -0.7100  -17.2400 C   0  0  0  0  0  3  0  0  0  0  0  0
   -1.4810    0.8330  -18.4700 C   0  0  0  0  0  0  0  0  0  0  0  0
   -0.8550    2.0990  -18.5640 C   0  0  0  0  0  3  0  0  0  0  0  0
   -0.2860    2.5430  -19.7630 C   0  0  0  0  0  3  0  0  0  0  0  0
   -0.3720    1.7060  -20.8530 C   0  0  0  0  0  0  0  0  0  0  0  0
   -0.9800    0.4550  -20.7910 C   0  0  0  0  0  0  0  0  0  0  0  0
   -1.5200   -0.0030  -19.6000 C   0  0  0  0  0  3  0  0  0  0  0  0
   -0.9190   -0.2090  -22.1450 C   0  0  2  0  0  3  0  0  0  0  0  0
   -0.1830    0.8690  -22.9800 C   0  0  0  0  0  0  0  0  0  0  0  0
    0.1270    0.8130  -24.1600 O   0  0  0  0  0  0  0  0  0  0  0  0
    0.0950    1.9410  -22.1350 N   0  0  0  0  0  0  0  0  0  0  0  0
    0.5730    2.7710  -22.4520 H   0  0  0  0  0  0  0  0  0  0  0  0
   -2.2330   -0.5290  -22.7820 C   0  0  0  0  0  0  0  0  0  0  0  0
   -2.9270   -1.7150  -22.9380 C   0  0  0  0  0  3  0  0  0  0  0  0
   -4.1290   -1.4000  -23.6140 C   0  0  0  0  0  3  0  0  0  0  0  0
   -4.1030   -0.0430  -23.8250 C   0  0  0  0  0  3  0  0  0  0  0  0
   -2.9690    0.4970  -23.3110 O   0  0  0  0  0  0  0  0  0  0  0  0
   -4.2450   -2.3350  -16.0810 O   0  0  0  0  0  0  0  0  0  0  0  0
   -3.4800   -3.4370  -16.6030 C   0  0  0  0  0  2  0  0  0  0  0  0
   -4.2460   -4.0110  -17.8120 C   0  0  1  0  0  3  0  0  0  0  0  0
   -3.5380   -5.2750  -18.2390 N   0  0  0  0  0  4  0  0  0  0  0  0
   -2.5890   -5.0800  -18.5830 H   0  0  0  0  0  0  0  0  0  0  0  0
   -4.0430   -5.7870  -18.9730 H   0  0  0  0  0  0  0  0  0  0  0  0
   -3.4340   -5.8990  -17.4210 H   0  0  0  0  0  0  0  0  0  0  0  0
   -5.7110   -4.3680  -17.4960 C   0  0  0  0  0  2  0  0  0  0  0  0
   -6.6680   -3.8040  -18.4930 C   0  0  0  0  0  0  0  0  0  0  0  0
   -7.9160   -4.3040  -18.8080 C   0  0  0  0  0  3  0  0  0  0  0  0
   -8.4820   -3.4950  -19.7580 N   0  0  0  0  0  0  0  0  0  0  0  0
   -7.6180   -2.4760  -20.0830 C   0  0  0  0  0  0  0  0  0  0  0  0
   -7.7700   -1.4310  -21.0000 C   0  0  0  0  0  3  0  0  0  0  0  0
   -6.7060   -0.5380  -21.1470 C   0  0  0  0  0  3  0  0  0  0  0  0
   -5.5380   -0.6870  -20.4050 C   0  0  0  0  0  3  0  0  0  0  0  0
   -5.4030   -1.7360  -19.4870 C   0  0  0  0  0  3  0  0  0  0  0  0
   -6.4650   -2.6500  -19.3170 C   0  0  0  0  0  0  0  0  0  0  0  0
   -9.3920   -3.6330  -20.1800 H   0  0  0  0  0  0  0  0  0  0  0  0
  1  2  1  0  0  0  0
  2  3  2  0  0  0  0
  4  3  1  0  0  0  0
  5  6  1  0  0  0  0
  5  4  2  0  0  0  0
  6  1  2  0  0  0  0
  7  5  1  0  0  0  0
  8  7  1  0  0  0  0
  9  8  2  0  0  0  0
 10 11  2  0  0  0  0
 10  9  1  0  0  0  0
 11 12  1  0  0  0  0
 12  7  2  0  0  0  0
 13 18  1  6  0  0  0
 13 11  1  0  0  0  0
 14 13  1  0  0  0  0
 14 16  1  0  0  0  0
 15 14  2  0  0  0  0
 16 10  1  0  0  0  0
 17 16  1  0  0  0  0
 19 18  2  0  0  0  0
 20 19  1  0  0  0  0
 21 20  2  0  0  0  0
 21 22  1  0  0  0  0
 22 18  1  0  0  0  0
 23  1  1  0  0  0  0
 24 23  1  0  0  0  0
 25 30  1  1  0  0  0
 25 24  1  0  0  0  0
 26 25  1  0  0  0  0
 26 29  1  0  0  0  0
 27 26  1  0  0  0  0
 28 26  1  0  0  0  0
 31 30  1  0  0  0  0
 32 31  2  0  0  0  0
 33 32  1  0  0  0  0
 34 33  1  0  0  0  0
 34 39  1  0  0  0  0
 35 34  2  0  0  0  0
 36 35  1  0  0  0  0
 36 37  2  0  0  0  0
 37 38  1  0  0  0  0
 38 39  2  0  0  0  0
 39 31  1  0  0  0  0
 40 33  1  0  0  0  0
M  END
>  <minimizedAffinity>
-6.41994762

$$$$
