
 OpenBabel10152418393D

 37 40  0  0  0  0  0  0  0  0999 V2000
    4.0180  -10.2020  -27.8000 C   0  0  0  0  0  0  0  0  0  0  0  0
    4.9400  -10.7500  -26.9050 C   0  0  0  0  0  3  0  0  0  0  0  0
    4.5160  -11.6570  -25.9400 C   0  0  0  0  0  3  0  0  0  0  0  0
    3.1770  -12.0390  -25.8890 C   0  0  0  0  0  3  0  0  0  0  0  0
    2.2530  -11.5890  -26.8450 C   0  0  0  0  0  0  0  0  0  0  0  0
    2.6990  -10.6760  -27.8110 C   0  0  0  0  0  3  0  0  0  0  0  0
    3.9240   -7.9420  -28.9310 C   0  0  0  0  0  0  0  0  0  0  0  0
    4.3610   -7.2880  -29.8770 O   0  0  0  0  0  0  0  0  0  0  0  0
    4.4770   -9.1690  -28.6340 N   0  0  0  0  0  0  0  0  0  0  0  0
    5.3780   -9.3010  -29.0800 H   0  0  0  0  0  0  0  0  0  0  0  0
    1.9590   -8.6150  -24.0150 C   0  0  0  0  0  1  0  0  0  0  0  0
    1.4080   -7.4820  -24.7100 N   0  0  0  0  0  0  0  0  0  0  0  0
    1.6860   -7.1400  -26.0040 C   0  0  0  0  0  0  0  0  0  0  0  0
    2.7470   -7.6590  -26.7250 C   0  0  0  0  0  3  0  0  0  0  0  0
    2.8690   -7.3420  -28.0810 C   0  0  0  0  0  0  0  0  0  0  0  0
    2.0050   -6.4170  -28.6540 C   0  0  0  0  0  3  0  0  0  0  0  0
    1.0120   -5.9030  -27.8500 C   0  0  0  0  0  3  0  0  0  0  0  0
    0.8280   -6.2610  -26.5590 N   0  0  0  0  0  0  0  0  0  0  0  0
    0.5900   -7.0150  -24.3380 H   0  0  0  0  0  0  0  0  0  0  0  0
    0.7970  -12.0300  -26.8120 C   0  0  0  0  0  2  0  0  0  0  0  0
    0.2650  -12.0210  -25.4620 N   0  0  0  0  0  0  0  0  0  0  0  0
    0.6490  -12.6530  -24.7800 H   0  0  0  0  0  0  0  0  0  0  0  0
   -0.5810  -10.9920  -25.0770 C   0  0  0  0  0  0  0  0  0  0  0  0
   -0.8380  -10.0490  -26.0010 N   0  0  0  0  0  0  0  0  0  0  0  0
   -1.4030   -8.9240  -25.5720 C   0  0  0  0  0  3  0  0  0  0  0  0
   -1.6480   -8.6160  -24.2970 N   0  0  0  0  0  0  0  0  0  0  0  0
   -1.4250   -9.5680  -23.3690 C   0  0  0  0  0  0  0  0  0  0  0  0
   -1.6310   -9.3220  -22.0050 C   0  0  0  0  0  0  0  0  0  0  0  0
   -1.4960  -10.3230  -21.0290 C   0  0  0  0  0  3  0  0  0  0  0  0
   -1.0800  -11.5910  -21.3960 C   0  0  0  0  0  3  0  0  0  0  0  0
   -0.7740  -11.8380  -22.7310 C   0  0  0  0  0  3  0  0  0  0  0  0
   -0.9410  -10.8370  -23.7260 C   0  0  0  0  0  0  0  0  0  0  0  0
   -1.9110   -7.9590  -21.4970 C   0  0  0  0  0  0  0  0  0  0  0  0
   -1.3270   -6.9260  -22.1790 N   0  0  0  0  0  0  0  0  0  0  0  0
   -2.5370   -7.7760  -20.4640 O   0  0  0  0  0  0  0  0  0  0  0  0
   -1.4600   -5.9860  -21.8350 H   0  0  0  0  0  0  0  0  0  0  0  0
   -0.8300   -7.0670  -23.0480 H   0  0  0  0  0  0  0  0  0  0  0  0
  1  2  1  0  0  0  0
  2  3  2  0  0  0  0
  3  4  1  0  0  0  0
  5 20  1  0  0  0  0
  5  4  2  0  0  0  0
  6  1  2  0  0  0  0
  6  5  1  0  0  0  0
  7  9  1  0  0  0  0
  7 15  1  0  0  0  0
  8  7  2  0  0  0  0
  9  1  1  0  0  0  0
 10  9  1  0  0  0  0
 12 19  1  0  0  0  0
 12 11  1  0  0  0  0
 13 12  1  0  0  0  0
 14 13  2  0  0  0  0
 15 14  1  0  0  0  0
 16 15  2  0  0  0  0
 16 17  1  0  0  0  0
 17 18  2  0  0  0  0
 18 13  1  0  0  0  0
 20 21  1  0  0  0  0
 21 23  1  0  0  0  0
 21 22  1  0  0  0  0
 23 32  1  0  0  0  0
 24 25  1  0  0  0  0
 24 23  2  0  0  0  0
 25 26  2  0  0  0  0
 26 27  1  0  0  0  0
 27 28  1  0  0  0  0
 28 33  1  0  0  0  0
 28 29  2  0  0  0  0
 30 29  1  0  0  0  0
 31 30  2  0  0  0  0
 32 27  2  0  0  0  0
 32 31  1  0  0  0  0
 33 35  2  0  0  0  0
 34 36  1  0  0  0  0
 34 33  1  0  0  0  0
 37 34  1  0  0  0  0
M  END
>  <minimizedAffinity>
-8.46489716

$$$$
