
 OpenBabel10152418393D

 37 40  0  0  0  0  0  0  0  0999 V2000
   -0.6860   -9.6040  -24.0980 C   0  0  0  0  0  0  0  0  0  0  0  0
   -1.5630  -10.0320  -25.0960 C   0  0  0  0  0  3  0  0  0  0  0  0
   -1.1590  -11.0040  -26.0040 C   0  0  0  0  0  3  0  0  0  0  0  0
    0.1100  -11.5690  -25.8970 C   0  0  0  0  0  3  0  0  0  0  0  0
    0.9680  -11.2380  -24.8370 C   0  0  0  0  0  0  0  0  0  0  0  0
    0.5440  -10.2560  -23.9300 C   0  0  0  0  0  3  0  0  0  0  0  0
   -0.9820   -7.1500  -23.5600 C   0  0  0  0  0  0  0  0  0  0  0  0
   -1.1740   -6.3530  -22.6420 O   0  0  0  0  0  0  0  0  0  0  0  0
   -1.0900   -8.5040  -23.3230 N   0  0  0  0  0  0  0  0  0  0  0  0
   -1.5750   -8.7030  -22.4560 H   0  0  0  0  0  0  0  0  0  0  0  0
   -1.0790   -2.4210  -26.0300 C   0  0  0  0  0  1  0  0  0  0  0  0
   -0.5760   -3.4920  -26.8470 N   0  0  0  0  0  0  0  0  0  0  0  0
   -0.5230   -4.8080  -26.4780 C   0  0  0  0  0  0  0  0  0  0  0  0
   -0.6710   -5.2460  -25.1740 C   0  0  0  0  0  3  0  0  0  0  0  0
   -0.7280   -6.6190  -24.9190 C   0  0  0  0  0  0  0  0  0  0  0  0
   -0.5100   -7.5220  -25.9520 C   0  0  0  0  0  3  0  0  0  0  0  0
   -0.3120   -7.0010  -27.2110 C   0  0  0  0  0  3  0  0  0  0  0  0
   -0.3370   -5.6780  -27.4890 N   0  0  0  0  0  0  0  0  0  0  0  0
   -0.4580   -3.3500  -27.8430 H   0  0  0  0  0  0  0  0  0  0  0  0
    2.3420  -11.8780  -24.6980 C   0  0  0  0  0  2  0  0  0  0  0  0
    3.3760  -11.0640  -25.3090 N   0  0  0  0  0  0  0  0  0  0  0  0
    4.1500  -10.7520  -24.7470 H   0  0  0  0  0  0  0  0  0  0  0  0
    3.4050  -10.9360  -26.6900 C   0  0  0  0  0  0  0  0  0  0  0  0
    3.7270  -12.0380  -27.3890 N   0  0  0  0  0  0  0  0  0  0  0  0
    4.0370  -11.8690  -28.6710 C   0  0  0  0  0  3  0  0  0  0  0  0
    4.1470  -10.6950  -29.2940 N   0  0  0  0  0  0  0  0  0  0  0  0
    3.7920   -9.5880  -28.6110 C   0  0  0  0  0  0  0  0  0  0  0  0
    3.9000   -8.3120  -29.1790 C   0  0  0  0  0  0  0  0  0  0  0  0
    3.4510   -7.1540  -28.5250 C   0  0  0  0  0  3  0  0  0  0  0  0
    2.9420   -7.2430  -27.2410 C   0  0  0  0  0  3  0  0  0  0  0  0
    2.9120   -8.4840  -26.6130 C   0  0  0  0  0  3  0  0  0  0  0  0
    3.3350   -9.6630  -27.2850 C   0  0  0  0  0  0  0  0  0  0  0  0
    4.5870   -8.0960  -30.4740 C   0  0  0  0  0  0  0  0  0  0  0  0
    4.9740   -6.8130  -30.7500 N   0  0  0  0  0  0  0  0  0  0  0  0
    4.7030   -8.9940  -31.2950 O   0  0  0  0  0  0  0  0  0  0  0  0
    5.4050   -6.6220  -31.6430 H   0  0  0  0  0  0  0  0  0  0  0  0
    4.9050   -6.0720  -30.0660 H   0  0  0  0  0  0  0  0  0  0  0  0
  1  6  1  0  0  0  0
  1  9  1  0  0  0  0
  2  1  2  0  0  0  0
  3  4  2  0  0  0  0
  3  2  1  0  0  0  0
  4  5  1  0  0  0  0
  5 20  1  0  0  0  0
  5  6  2  0  0  0  0
  7  9  1  0  0  0  0
  7  8  2  0  0  0  0
  9 10  1  0  0  0  0
 12 13  1  0  0  0  0
 12 11  1  0  0  0  0
 13 14  1  0  0  0  0
 14 15  2  0  0  0  0
 15  7  1  0  0  0  0
 16 15  1  0  0  0  0
 17 16  2  0  0  0  0
 18 17  1  0  0  0  0
 18 13  2  0  0  0  0
 19 12  1  0  0  0  0
 21 22  1  0  0  0  0
 21 20  1  0  0  0  0
 23 21  1  0  0  0  0
 24 23  2  0  0  0  0
 25 24  1  0  0  0  0
 26 25  2  0  0  0  0
 26 27  1  0  0  0  0
 27 32  1  0  0  0  0
 28 27  2  0  0  0  0
 28 29  1  0  0  0  0
 29 30  2  0  0  0  0
 30 31  1  0  0  0  0
 32 23  1  0  0  0  0
 32 31  2  0  0  0  0
 33 28  1  0  0  0  0
 34 33  1  0  0  0  0
 34 37  1  0  0  0  0
 35 33  2  0  0  0  0
 36 34  1  0  0  0  0
M  END
>  <minimizedAffinity>
-9.01109695

$$$$
