
 OpenBabel10152418393D

 37 40  0  0  0  0  0  0  0  0999 V2000
    3.9990   -9.4280  -27.2610 C   0  0  0  0  0  0  0  0  0  0  0  0
    4.1550  -10.2560  -28.3750 C   0  0  0  0  0  3  0  0  0  0  0  0
    3.6800  -11.5620  -28.3390 C   0  0  0  0  0  3  0  0  0  0  0  0
    3.0230  -12.0310  -27.2040 C   0  0  0  0  0  3  0  0  0  0  0  0
    2.7550  -11.1870  -26.1160 C   0  0  0  0  0  0  0  0  0  0  0  0
    3.2410   -9.8720  -26.1690 C   0  0  0  0  0  3  0  0  0  0  0  0
    4.1780   -6.9330  -27.6370 C   0  0  0  0  0  0  0  0  0  0  0  0
    4.9720   -6.0160  -27.8410 O   0  0  0  0  0  0  0  0  0  0  0  0
    4.6490   -8.1830  -27.2960 N   0  0  0  0  0  0  0  0  0  0  0  0
    5.6170   -8.1590  -26.9950 H   0  0  0  0  0  0  0  0  0  0  0  0
    0.2210   -6.1200  -24.1500 C   0  0  0  0  0  1  0  0  0  0  0  0
   -0.1590   -5.9030  -25.5200 N   0  0  0  0  0  0  0  0  0  0  0  0
    0.6440   -6.1190  -26.6050 C   0  0  0  0  0  0  0  0  0  0  0  0
    2.0140   -6.2950  -26.5230 C   0  0  0  0  0  3  0  0  0  0  0  0
    2.7270   -6.6370  -27.6760 C   0  0  0  0  0  0  0  0  0  0  0  0
    2.0780   -6.6720  -28.9030 C   0  0  0  0  0  3  0  0  0  0  0  0
    0.7230   -6.4280  -28.9050 C   0  0  0  0  0  3  0  0  0  0  0  0
    0.0030   -6.1780  -27.7890 N   0  0  0  0  0  0  0  0  0  0  0  0
   -1.1390   -5.8060  -25.7590 H   0  0  0  0  0  0  0  0  0  0  0  0
    2.0080  -11.6860  -24.8870 C   0  0  0  0  0  2  0  0  0  0  0  0
    0.6360  -12.0390  -25.2010 N   0  0  0  0  0  0  0  0  0  0  0  0
    0.3980  -13.0070  -25.3340 H   0  0  0  0  0  0  0  0  0  0  0  0
   -0.3530  -11.0760  -25.0760 C   0  0  0  0  0  0  0  0  0  0  0  0
   -0.5180  -10.2450  -26.1200 N   0  0  0  0  0  0  0  0  0  0  0  0
   -1.2490   -9.1530  -25.9110 C   0  0  0  0  0  3  0  0  0  0  0  0
   -1.7500   -8.7680  -24.7370 N   0  0  0  0  0  0  0  0  0  0  0  0
   -1.6200   -9.6120  -23.6930 C   0  0  0  0  0  0  0  0  0  0  0  0
   -2.0940   -9.2770  -22.4180 C   0  0  0  0  0  0  0  0  0  0  0  0
   -2.0540  -10.1740  -21.3390 C   0  0  0  0  0  3  0  0  0  0  0  0
   -1.4670  -11.4170  -21.4980 C   0  0  0  0  0  3  0  0  0  0  0  0
   -0.9000  -11.7410  -22.7270 C   0  0  0  0  0  3  0  0  0  0  0  0
   -0.9680  -10.8490  -23.8310 C   0  0  0  0  0  0  0  0  0  0  0  0
   -2.5810   -7.9130  -22.1070 C   0  0  0  0  0  0  0  0  0  0  0  0
   -3.8080   -7.5770  -22.6100 N   0  0  0  0  0  0  0  0  0  0  0  0
   -1.8780   -7.0990  -21.5260 O   0  0  0  0  0  0  0  0  0  0  0  0
   -4.1510   -6.6400  -22.4550 H   0  0  0  0  0  0  0  0  0  0  0  0
   -4.4050   -8.2520  -23.0690 H   0  0  0  0  0  0  0  0  0  0  0  0
  1  6  1  0  0  0  0
  2  3  1  0  0  0  0
  2  1  2  0  0  0  0
  3  4  2  0  0  0  0
  4  5  1  0  0  0  0
  5 20  1  0  0  0  0
  6  5  2  0  0  0  0
  7  9  1  0  0  0  0
  8  7  2  0  0  0  0
  9  1  1  0  0  0  0
  9 10  1  0  0  0  0
 12 11  1  0  0  0  0
 13 14  1  0  0  0  0
 13 12  1  0  0  0  0
 15  7  1  0  0  0  0
 15 14  2  0  0  0  0
 16 15  1  0  0  0  0
 17 16  2  0  0  0  0
 17 18  1  0  0  0  0
 18 13  2  0  0  0  0
 19 12  1  0  0  0  0
 21 23  1  0  0  0  0
 21 20  1  0  0  0  0
 22 21  1  0  0  0  0
 23 32  1  0  0  0  0
 24 25  1  0  0  0  0
 24 23  2  0  0  0  0
 25 26  2  0  0  0  0
 26 27  1  0  0  0  0
 27 28  1  0  0  0  0
 28 33  1  0  0  0  0
 28 29  2  0  0  0  0
 30 29  1  0  0  0  0
 31 30  2  0  0  0  0
 32 27  2  0  0  0  0
 32 31  1  0  0  0  0
 33 35  2  0  0  0  0
 34 36  1  0  0  0  0
 34 33  1  0  0  0  0
 37 34  1  0  0  0  0
M  END
>  <minimizedAffinity>
-8.72508717

$$$$
