
 OpenBabel10152418393D

 37 40  0  0  0  0  0  0  0  0999 V2000
    3.0460   -6.7170  -28.9100 C   0  0  0  0  0  0  0  0  0  0  0  0
    3.0860   -7.1070  -30.2510 C   0  0  0  0  0  3  0  0  0  0  0  0
    3.6130   -8.3460  -30.5970 C   0  0  0  0  0  3  0  0  0  0  0  0
    4.0700   -9.2070  -29.6020 C   0  0  0  0  0  3  0  0  0  0  0  0
    3.9380   -8.8870  -28.2420 C   0  0  0  0  0  0  0  0  0  0  0  0
    3.4050   -7.6330  -27.9120 C   0  0  0  0  0  3  0  0  0  0  0  0
    1.5080   -4.8840  -28.0890 C   0  0  0  0  0  0  0  0  0  0  0  0
    1.2690   -3.6810  -28.1710 O   0  0  0  0  0  0  0  0  0  0  0  0
    2.6630   -5.3920  -28.6440 N   0  0  0  0  0  0  0  0  0  0  0  0
    3.3400   -4.6650  -28.8490 H   0  0  0  0  0  0  0  0  0  0  0  0
   -0.2670   -5.2350  -23.0690 C   0  0  0  0  0  1  0  0  0  0  0  0
   -0.9170   -6.1410  -23.9780 N   0  0  0  0  0  0  0  0  0  0  0  0
   -0.5910   -6.3020  -25.2970 C   0  0  0  0  0  0  0  0  0  0  0  0
    0.2030   -5.4180  -26.0050 C   0  0  0  0  0  3  0  0  0  0  0  0
    0.5810   -5.7400  -27.3120 C   0  0  0  0  0  0  0  0  0  0  0  0
    0.0580   -6.8720  -27.9230 C   0  0  0  0  0  3  0  0  0  0  0  0
   -0.7730   -7.6680  -27.1650 C   0  0  0  0  0  3  0  0  0  0  0  0
   -1.0830   -7.4160  -25.8740 N   0  0  0  0  0  0  0  0  0  0  0  0
   -1.4980   -6.8860  -23.6140 H   0  0  0  0  0  0  0  0  0  0  0  0
    4.4070   -9.8390  -27.1520 C   0  0  0  0  0  2  0  0  0  0  0  0
    3.2980  -10.5670  -26.5640 N   0  0  0  0  0  0  0  0  0  0  0  0
    3.3050  -11.5730  -26.5870 H   0  0  0  0  0  0  0  0  0  0  0  0
    2.3810   -9.8830  -25.7810 C   0  0  0  0  0  0  0  0  0  0  0  0
    2.8460   -8.8190  -25.1030 N   0  0  0  0  0  0  0  0  0  0  0  0
    2.0700   -8.3310  -24.1400 C   0  0  0  0  0  3  0  0  0  0  0  0
    0.9170   -8.8630  -23.7290 N   0  0  0  0  0  0  0  0  0  0  0  0
    0.4260   -9.9080  -24.4250 C   0  0  0  0  0  0  0  0  0  0  0  0
   -0.7640  -10.5440  -24.0490 C   0  0  0  0  0  0  0  0  0  0  0  0
   -1.3440  -11.5720  -24.8090 C   0  0  0  0  0  3  0  0  0  0  0  0
   -0.6980  -12.0390  -25.9400 C   0  0  0  0  0  3  0  0  0  0  0  0
    0.5350  -11.4940  -26.2850 C   0  0  0  0  0  3  0  0  0  0  0  0
    1.1080  -10.4300  -25.5370 C   0  0  0  0  0  0  0  0  0  0  0  0
   -1.4360  -10.2320  -22.7660 C   0  0  0  0  0  0  0  0  0  0  0  0
   -1.9960   -8.9880  -22.6610 N   0  0  0  0  0  0  0  0  0  0  0  0
   -1.3960  -11.0020  -21.8180 O   0  0  0  0  0  0  0  0  0  0  0  0
   -2.4230   -8.7250  -21.7840 H   0  0  0  0  0  0  0  0  0  0  0  0
   -2.0560   -8.3560  -23.4480 H   0  0  0  0  0  0  0  0  0  0  0  0
  1  9  1  0  0  0  0
  1  6  1  0  0  0  0
  2  1  2  0  0  0  0
  3  2  1  0  0  0  0
  3  4  2  0  0  0  0
  4  5  1  0  0  0  0
  5  6  2  0  0  0  0
  5 20  1  0  0  0  0
  7 15  1  0  0  0  0
  8  7  2  0  0  0  0
  9  7  1  0  0  0  0
 10  9  1  0  0  0  0
 12 19  1  0  0  0  0
 12 11  1  0  0  0  0
 13 12  1  0  0  0  0
 14 13  2  0  0  0  0
 15 14  1  0  0  0  0
 16 15  2  0  0  0  0
 16 17  1  0  0  0  0
 17 18  2  0  0  0  0
 18 13  1  0  0  0  0
 20 21  1  0  0  0  0
 21 23  1  0  0  0  0
 22 21  1  0  0  0  0
 23 32  2  0  0  0  0
 23 24  1  0  0  0  0
 24 25  2  0  0  0  0
 25 26  1  0  0  0  0
 27 28  1  0  0  0  0
 27 26  2  0  0  0  0
 28 33  1  0  0  0  0
 29 28  2  0  0  0  0
 30 29  1  0  0  0  0
 31 30  2  0  0  0  0
 31 32  1  0  0  0  0
 32 27  1  0  0  0  0
 33 34  1  0  0  0  0
 33 35  2  0  0  0  0
 34 36  1  0  0  0  0
 37 34  1  0  0  0  0
M  END
>  <minimizedAffinity>
-7.79125071

$$$$
