
 OpenBabel10152418393D

 37 40  0  0  0  0  0  0  0  0999 V2000
    4.0940   -9.3820  -27.3730 C   0  0  0  0  0  0  0  0  0  0  0  0
    4.2370  -10.1770  -28.5120 C   0  0  0  0  0  3  0  0  0  0  0  0
    3.8420  -11.5100  -28.4820 C   0  0  0  0  0  3  0  0  0  0  0  0
    3.2760  -12.0390  -27.3240 C   0  0  0  0  0  3  0  0  0  0  0  0
    3.0190  -11.2330  -26.2040 C   0  0  0  0  0  0  0  0  0  0  0  0
    3.4240   -9.8920  -26.2520 C   0  0  0  0  0  3  0  0  0  0  0  0
    4.1250   -6.8850  -27.7730 C   0  0  0  0  0  0  0  0  0  0  0  0
    4.8640   -5.9230  -27.9790 O   0  0  0  0  0  0  0  0  0  0  0  0
    4.6670   -8.1000  -27.4150 N   0  0  0  0  0  0  0  0  0  0  0  0
    5.6280   -8.0130  -27.1030 H   0  0  0  0  0  0  0  0  0  0  0  0
    0.7090   -2.7900  -27.5810 C   0  0  0  0  0  1  0  0  0  0  0  0
    0.0840   -4.0540  -27.8670 N   0  0  0  0  0  0  0  0  0  0  0  0
    0.7240   -5.2620  -27.8940 C   0  0  0  0  0  0  0  0  0  0  0  0
    2.1000   -5.4010  -27.9370 C   0  0  0  0  0  3  0  0  0  0  0  0
    2.6590   -6.6780  -27.8320 C   0  0  0  0  0  0  0  0  0  0  0  0
    1.8320   -7.7930  -27.8120 C   0  0  0  0  0  3  0  0  0  0  0  0
    0.4740   -7.5690  -27.8310 C   0  0  0  0  0  3  0  0  0  0  0  0
   -0.0850   -6.3380  -27.8490 N   0  0  0  0  0  0  0  0  0  0  0  0
   -0.9250   -4.1350  -27.8270 H   0  0  0  0  0  0  0  0  0  0  0  0
    2.3710  -11.8000  -24.9490 C   0  0  0  0  0  2  0  0  0  0  0  0
    0.9260  -11.6690  -24.9860 N   0  0  0  0  0  0  0  0  0  0  0  0
    0.4130  -12.1110  -25.7300 H   0  0  0  0  0  0  0  0  0  0  0  0
    0.2670  -11.1490  -23.8820 C   0  0  0  0  0  0  0  0  0  0  0  0
   -0.2780  -12.0390  -23.0350 N   0  0  0  0  0  0  0  0  0  0  0  0
   -1.1450  -11.5680  -22.1430 C   0  0  0  0  0  3  0  0  0  0  0  0
   -1.5880  -10.3110  -22.0800 N   0  0  0  0  0  0  0  0  0  0  0  0
   -1.0210   -9.4050  -22.9030 C   0  0  0  0  0  0  0  0  0  0  0  0
   -1.4420   -8.0690  -22.9210 C   0  0  0  0  0  0  0  0  0  0  0  0
   -0.8070   -7.0890  -23.7000 C   0  0  0  0  0  3  0  0  0  0  0  0
    0.2340   -7.4440  -24.5400 C   0  0  0  0  0  3  0  0  0  0  0  0
    0.6110   -8.7820  -24.6160 C   0  0  0  0  0  3  0  0  0  0  0  0
   -0.0080   -9.7710  -23.8040 C   0  0  0  0  0  0  0  0  0  0  0  0
   -2.6520   -7.6290  -22.1890 C   0  0  0  0  0  0  0  0  0  0  0  0
   -2.5000   -7.3980  -20.8490 N   0  0  0  0  0  0  0  0  0  0  0  0
   -3.7470   -7.5800  -22.7310 O   0  0  0  0  0  0  0  0  0  0  0  0
   -3.3140   -7.1400  -20.3100 H   0  0  0  0  0  0  0  0  0  0  0  0
   -1.5950   -7.4110  -20.4000 H   0  0  0  0  0  0  0  0  0  0  0  0
  1  6  1  0  0  0  0
  2  3  1  0  0  0  0
  2  1  2  0  0  0  0
  3  4  2  0  0  0  0
  4  5  1  0  0  0  0
  5 20  1  0  0  0  0
  6  5  2  0  0  0  0
  7  9  1  0  0  0  0
  8  7  2  0  0  0  0
  9  1  1  0  0  0  0
  9 10  1  0  0  0  0
 12 19  1  0  0  0  0
 12 11  1  0  0  0  0
 13 12  1  0  0  0  0
 13 18  1  0  0  0  0
 14 13  2  0  0  0  0
 14 15  1  0  0  0  0
 15 16  2  0  0  0  0
 15  7  1  0  0  0  0
 17 16  1  0  0  0  0
 18 17  2  0  0  0  0
 21 20  1  0  0  0  0
 21 23  1  0  0  0  0
 22 21  1  0  0  0  0
 23 32  2  0  0  0  0
 23 24  1  0  0  0  0
 24 25  2  0  0  0  0
 25 26  1  0  0  0  0
 27 26  2  0  0  0  0
 28 27  1  0  0  0  0
 28 33  1  0  0  0  0
 29 28  2  0  0  0  0
 30 29  1  0  0  0  0
 31 30  2  0  0  0  0
 31 32  1  0  0  0  0
 32 27  1  0  0  0  0
 33 34  1  0  0  0  0
 34 37  1  0  0  0  0
 34 36  1  0  0  0  0
 35 33  2  0  0  0  0
M  END
>  <minimizedAffinity>
-7.31234837

$$$$
