
 OpenBabel10152418393D

 37 40  0  0  0  0  0  0  0  0999 V2000
   -1.4860   -8.5060  -22.4130 C   0  0  0  0  0  0  0  0  0  0  0  0
   -1.5270   -7.4180  -21.5380 C   0  0  0  0  0  3  0  0  0  0  0  0
   -1.3730   -6.1270  -22.0300 C   0  0  0  0  0  3  0  0  0  0  0  0
   -1.2080   -5.9200  -23.3970 C   0  0  0  0  0  3  0  0  0  0  0  0
   -1.2740   -6.9850  -24.3090 C   0  0  0  0  0  0  0  0  0  0  0  0
   -1.4310   -8.2810  -23.7950 C   0  0  0  0  0  3  0  0  0  0  0  0
   -1.3790  -11.0330  -22.4180 C   0  0  0  0  0  0  0  0  0  0  0  0
   -1.6390  -12.0370  -21.7570 O   0  0  0  0  0  0  0  0  0  0  0  0
   -1.4760   -9.7870  -21.8370 N   0  0  0  0  0  0  0  0  0  0  0  0
   -1.5100   -9.8380  -20.8240 H   0  0  0  0  0  0  0  0  0  0  0  0
    3.2710  -12.0360  -24.8360 C   0  0  0  0  0  1  0  0  0  0  0  0
    2.1440  -12.0180  -25.7300 N   0  0  0  0  0  0  0  0  0  0  0  0
    0.8610  -11.7090  -25.3740 C   0  0  0  0  0  0  0  0  0  0  0  0
    0.4180  -11.6550  -24.0650 C   0  0  0  0  0  3  0  0  0  0  0  0
   -0.8790  -11.2050  -23.8010 C   0  0  0  0  0  0  0  0  0  0  0  0
   -1.7430  -10.9390  -24.8550 C   0  0  0  0  0  3  0  0  0  0  0  0
   -1.2410  -11.0730  -26.1300 C   0  0  0  0  0  3  0  0  0  0  0  0
    0.0350  -11.4270  -26.4020 N   0  0  0  0  0  0  0  0  0  0  0  0
    2.2980  -12.0020  -26.7310 H   0  0  0  0  0  0  0  0  0  0  0  0
   -1.1270   -6.7600  -25.8070 C   0  0  0  0  0  2  0  0  0  0  0  0
   -0.4200   -5.5260  -26.0950 N   0  0  0  0  0  0  0  0  0  0  0  0
   -0.6230   -4.7060  -25.5490 H   0  0  0  0  0  0  0  0  0  0  0  0
    0.6770   -5.5590  -26.9430 C   0  0  0  0  0  0  0  0  0  0  0  0
    0.6420   -4.7320  -28.0020 N   0  0  0  0  0  0  0  0  0  0  0  0
    1.5320   -4.9500  -28.9660 C   0  0  0  0  0  3  0  0  0  0  0  0
    2.3890   -5.9710  -29.0140 N   0  0  0  0  0  0  0  0  0  0  0  0
    2.4550   -6.7850  -27.9410 C   0  0  0  0  0  0  0  0  0  0  0  0
    3.3070   -7.8960  -27.9160 C   0  0  0  0  0  0  0  0  0  0  0  0
    3.4620   -8.7030  -26.7780 C   0  0  0  0  0  3  0  0  0  0  0  0
    2.7030   -8.4520  -25.6480 C   0  0  0  0  0  3  0  0  0  0  0  0
    1.7770   -7.4150  -25.6760 C   0  0  0  0  0  3  0  0  0  0  0  0
    1.6420   -6.5750  -26.8150 C   0  0  0  0  0  0  0  0  0  0  0  0
    4.0290   -8.3450  -29.1300 C   0  0  0  0  0  0  0  0  0  0  0  0
    4.8600   -7.4300  -29.7160 N   0  0  0  0  0  0  0  0  0  0  0  0
    3.8090   -9.4350  -29.6390 O   0  0  0  0  0  0  0  0  0  0  0  0
    5.3330   -7.6870  -30.5700 H   0  0  0  0  0  0  0  0  0  0  0  0
    5.0650   -6.5380  -29.2870 H   0  0  0  0  0  0  0  0  0  0  0  0
  1  9  1  0  0  0  0
  1  2  1  0  0  0  0
  3  2  2  0  0  0  0
  4  3  1  0  0  0  0
  5  6  1  0  0  0  0
  5  4  2  0  0  0  0
  6  1  2  0  0  0  0
  7  9  1  0  0  0  0
  7  8  2  0  0  0  0
  9 10  1  0  0  0  0
 12 13  1  0  0  0  0
 12 11  1  0  0  0  0
 13 14  1  0  0  0  0
 14 15  2  0  0  0  0
 15  7  1  0  0  0  0
 16 15  1  0  0  0  0
 17 16  2  0  0  0  0
 18 17  1  0  0  0  0
 18 13  2  0  0  0  0
 19 12  1  0  0  0  0
 20  5  1  0  0  0  0
 21 20  1  0  0  0  0
 21 22  1  0  0  0  0
 23 32  1  0  0  0  0
 23 21  1  0  0  0  0
 24 23  2  0  0  0  0
 25 24  1  0  0  0  0
 26 25  2  0  0  0  0
 26 27  1  0  0  0  0
 27 28  2  0  0  0  0
 27 32  1  0  0  0  0
 28 29  1  0  0  0  0
 29 30  2  0  0  0  0
 31 30  1  0  0  0  0
 32 31  2  0  0  0  0
 33 28  1  0  0  0  0
 34 37  1  0  0  0  0
 34 33  1  0  0  0  0
 35 33  2  0  0  0  0
 36 34  1  0  0  0  0
M  END
>  <minimizedAffinity>
-8.53528309

$$$$
