
 OpenBabel11232419163D

 42 48  0  0  1  0  0  0  0  0999 V2000
   35.4380   43.7930   18.7510 C   0  0  0  0  0  0  0  0  0  0  0  0
   34.4630   42.9430   19.2550 N   0  0  0  0  0  0  0  0  0  0  0  0
   33.5470   42.8520   18.3190 C   0  0  0  0  0  0  0  0  0  0  0  0
   33.8450   43.6680   17.2680 N   0  0  0  0  0  0  0  0  0  0  0  0
   35.0960   44.2110   17.4680 C   0  0  0  0  0  0  0  0  0  0  0  0
   33.0190   43.7040   16.0750 C   0  0  0  0  0  2  0  0  0  0  0  0
   31.6500   43.3120   16.3200 O   0  0  0  0  0  0  0  0  0  0  0  0
   31.4740   42.2720   17.1980 C   0  0  0  0  0  0  0  0  0  0  0  0
   30.3280   41.4970   17.0570 C   0  0  0  0  0  3  0  0  0  0  0  0
   30.1190   40.4120   17.9140 C   0  0  0  0  0  3  0  0  0  0  0  0
   31.0380   40.1110   18.9320 C   0  0  0  0  0  0  0  0  0  0  0  0
   32.1560   40.9390   19.1020 C   0  0  0  0  0  3  0  0  0  0  0  0
   32.3760   42.0110   18.2330 C   0  0  0  0  0  0  0  0  0  0  0  0
   30.8580   38.9440   19.7890 C   0  0  0  0  0  0  0  0  0  0  0  0
   31.4900   38.5530   20.9550 C   0  0  0  0  0  3  0  0  0  0  0  0
   30.9220   37.3100   21.2890 C   0  0  0  0  0  3  0  0  0  0  0  0
   30.0060   36.9200   20.4030 N   0  0  0  0  0  0  0  0  0  0  0  0
   29.9840   37.9210   19.5090 N   0  0  0  0  0  0  0  0  0  0  0  0
   29.3640   37.8370   18.7110 H   0  0  0  0  0  0  0  0  0  0  0  0
   39.0150   44.3930   21.1650 C   0  0  0  0  0  0  0  0  0  0  0  0
   37.7880   43.9370   21.6930 C   0  0  0  0  0  3  0  0  0  0  0  0
   36.6450   43.7630   20.8980 C   0  0  0  0  0  3  0  0  0  0  0  0
   36.6490   44.0600   19.5300 C   0  0  0  0  0  0  0  0  0  0  0  0
   37.8250   44.5830   19.0020 C   0  0  0  0  0  3  0  0  0  0  0  0
   38.9740   44.7380   19.7980 C   0  0  0  0  0  3  0  0  0  0  0  0
   41.1640   45.5630   25.2450 C   0  0  0  0  0  1  0  0  0  0  0  0
   40.2330   45.2740   24.0750 C   0  0  1  0  0  0  0  0  0  0  0  0
   40.7310   45.8560   22.7270 C   0  0  0  0  0  2  0  0  0  0  0  0
   40.3560   44.5070   22.0420 C   0  0  1  0  0  0  0  0  0  0  0  0
   40.3660   43.8580   23.4560 C   0  0  0  0  0  2  0  0  0  0  0  0
   41.4990   44.0380   21.2150 N   0  0  0  0  0  4  0  0  0  0  0  0
   41.4580   43.0260   21.0490 H   0  0  0  0  0  0  0  0  0  0  0  0
   41.4850   44.4960   20.2920 H   0  0  0  0  0  0  0  0  0  0  0  0
   42.4130   44.2360   21.6390 H   0  0  0  0  0  0  0  0  0  0  0  0
   38.8910   45.6620   24.4150 O   0  0  0  0  0  0  0  0  0  0  0  0
   38.6850   45.2530   25.2770 H   0  0  0  0  0  0  0  0  0  0  0  0
   35.7990   44.9380   16.4220 C   0  0  0  0  0  0  0  0  0  0  0  0
   36.3730   44.2650   15.3400 C   0  0  0  0  0  3  0  0  0  0  0  0
   37.0680   44.9810   14.3630 C   0  0  0  0  0  3  0  0  0  0  0  0
   37.1910   46.3670   14.4630 C   0  0  0  0  0  3  0  0  0  0  0  0
   36.6220   47.0430   15.5410 C   0  0  0  0  0  3  0  0  0  0  0  0
   35.9300   46.3300   16.5210 C   0  0  0  0  0  3  0  0  0  0  0  0
  1  2  1  0  0  0  0
  1 23  1  0  0  0  0
  3  2  2  0  0  0  0
  4  5  1  0  0  0  0
  4  3  1  0  0  0  0
  5  1  2  0  0  0  0
  6  7  1  0  0  0  0
  6  4  1  0  0  0  0
  7  8  1  0  0  0  0
  8 13  1  0  0  0  0
  9  8  2  0  0  0  0
  9 10  1  0  0  0  0
 10 11  2  0  0  0  0
 11 12  1  0  0  0  0
 11 14  1  0  0  0  0
 13  3  1  0  0  0  0
 13 12  2  0  0  0  0
 14 15  2  0  0  0  0
 15 16  1  0  0  0  0
 17 16  2  0  0  0  0
 18 14  1  0  0  0  0
 18 17  1  0  0  0  0
 19 18  1  0  0  0  0
 20 21  1  0  0  0  0
 20 29  1  0  0  0  0
 22 21  2  0  0  0  0
 23 22  1  0  0  0  0
 24 23  2  0  0  0  0
 24 25  1  0  0  0  0
 25 20  2  0  0  0  0
 27 35  1  0  0  0  0
 27 26  1  1  0  0  0
 28 27  1  0  0  0  0
 29 31  1  6  0  0  0
 29 28  1  0  0  0  0
 29 30  1  0  0  0  0
 30 27  1  0  0  0  0
 31 34  1  0  0  0  0
 32 31  1  0  0  0  0
 33 31  1  0  0  0  0
 35 36  1  0  0  0  0
 37 42  1  0  0  0  0
 37  5  1  0  0  0  0
 38 37  2  0  0  0  0
 39 40  2  0  0  0  0
 39 38  1  0  0  0  0
 40 41  1  0  0  0  0
 41 42  2  0  0  0  0
M  END
>  <minimizedAffinity>
-12.6209831

$$$$
