
 OpenBabel11232419163D

 42 48  0  0  1  0  0  0  0  0999 V2000
   35.4040   43.9530   18.1120 C   0  0  0  0  0  0  0  0  0  0  0  0
   35.7580   43.6540   19.4210 N   0  0  0  0  0  0  0  0  0  0  0  0
   36.9860   44.0910   19.5710 C   0  0  0  0  0  0  0  0  0  0  0  0
   37.4720   44.5850   18.3960 N   0  0  0  0  0  0  0  0  0  0  0  0
   36.4540   44.6020   17.4660 C   0  0  0  0  0  0  0  0  0  0  0  0
   38.7900   45.1860   18.3110 C   0  0  0  0  0  2  0  0  0  0  0  0
   39.7010   44.7050   19.3240 O   0  0  0  0  0  0  0  0  0  0  0  0
   39.1590   44.5060   20.5690 C   0  0  0  0  0  0  0  0  0  0  0  0
   40.0100   44.6030   21.6640 C   0  0  0  0  0  3  0  0  0  0  0  0
   39.4970   44.4320   22.9540 C   0  0  0  0  0  3  0  0  0  0  0  0
   38.1390   44.1360   23.1560 C   0  0  0  0  0  0  0  0  0  0  0  0
   37.3070   43.9800   22.0390 C   0  0  0  0  0  3  0  0  0  0  0  0
   37.8150   44.1700   20.7510 C   0  0  0  0  0  0  0  0  0  0  0  0
   37.5850   44.0180   24.5000 C   0  0  0  0  0  0  0  0  0  0  0  0
   36.9730   42.9650   25.1540 C   0  0  0  0  0  3  0  0  0  0  0  0
   36.6040   43.4700   26.4130 C   0  0  0  0  0  3  0  0  0  0  0  0
   36.9370   44.7530   26.5590 N   0  0  0  0  0  0  0  0  0  0  0  0
   37.5270   45.0610   25.3940 N   0  0  0  0  0  0  0  0  0  0  0  0
   37.8520   46.0120   25.2580 H   0  0  0  0  0  0  0  0  0  0  0  0
   31.3080   43.1620   16.8580 C   0  0  0  0  0  0  0  0  0  0  0  0
   31.7750   42.9430   18.1720 C   0  0  0  0  0  3  0  0  0  0  0  0
   33.1020   43.1950   18.5500 C   0  0  0  0  0  3  0  0  0  0  0  0
   34.0540   43.6520   17.6320 C   0  0  0  0  0  0  0  0  0  0  0  0
   33.6360   43.8020   16.3130 C   0  0  0  0  0  3  0  0  0  0  0  0
   32.3010   43.5670   15.9420 C   0  0  0  0  0  3  0  0  0  0  0  0
   27.3010   40.6020   16.9950 C   0  0  0  0  0  1  0  0  0  0  0  0
   28.6900   41.2100   17.1200 C   0  0  1  0  0  0  0  0  0  0  0  0
   29.3030   41.6420   15.7630 C   0  0  0  0  0  2  0  0  0  0  0  0
   29.7710   42.9700   16.4330 C   0  0  1  0  0  0  0  0  0  0  0  0
   28.7270   42.6990   17.5540 C   0  0  0  0  0  2  0  0  0  0  0  0
   29.3720   44.1210   15.5800 N   0  0  0  0  0  4  0  0  0  0  0  0
   29.3210   44.9920   16.1190 H   0  0  0  0  0  0  0  0  0  0  0  0
   30.0660   44.2690   14.8320 H   0  0  0  0  0  0  0  0  0  0  0  0
   28.4590   43.9920   15.1280 H   0  0  0  0  0  0  0  0  0  0  0  0
   29.5360   40.3350   17.8860 O   0  0  0  0  0  0  0  0  0  0  0  0
   29.0540   40.1190   18.7070 H   0  0  0  0  0  0  0  0  0  0  0  0
   36.5860   45.2850   16.1890 C   0  0  0  0  0  0  0  0  0  0  0  0
   36.4630   46.6740   16.1010 C   0  0  0  0  0  3  0  0  0  0  0  0
   36.5640   47.3060   14.8590 C   0  0  0  0  0  3  0  0  0  0  0  0
   36.7870   46.5540   13.7060 C   0  0  0  0  0  3  0  0  0  0  0  0
   36.9090   45.1680   13.7880 C   0  0  0  0  0  3  0  0  0  0  0  0
   36.8040   44.5330   15.0260 C   0  0  0  0  0  3  0  0  0  0  0  0
  1  2  1  0  0  0  0
  2  3  2  0  0  0  0
  3 13  1  0  0  0  0
  4  3  1  0  0  0  0
  5  1  2  0  0  0  0
  5  4  1  0  0  0  0
  6  4  1  0  0  0  0
  6  7  1  0  0  0  0
  7  8  1  0  0  0  0
  8 13  2  0  0  0  0
  8  9  1  0  0  0  0
  9 10  2  0  0  0  0
 10 11  1  0  0  0  0
 11 14  1  0  0  0  0
 12 11  2  0  0  0  0
 13 12  1  0  0  0  0
 14 15  2  0  0  0  0
 14 18  1  0  0  0  0
 15 16  1  0  0  0  0
 16 17  2  0  0  0  0
 18 17  1  0  0  0  0
 19 18  1  0  0  0  0
 20 21  1  0  0  0  0
 21 22  2  0  0  0  0
 23  1  1  0  0  0  0
 23 22  1  0  0  0  0
 24 23  2  0  0  0  0
 25 24  1  0  0  0  0
 25 20  2  0  0  0  0
 27 26  1  6  0  0  0
 27 30  1  0  0  0  0
 27 35  1  0  0  0  0
 28 29  1  0  0  0  0
 28 27  1  0  0  0  0
 29 31  1  6  0  0  0
 29 20  1  0  0  0  0
 29 30  1  0  0  0  0
 31 32  1  0  0  0  0
 33 31  1  0  0  0  0
 34 31  1  0  0  0  0
 35 36  1  0  0  0  0
 37  5  1  0  0  0  0
 38 37  1  0  0  0  0
 39 38  2  0  0  0  0
 40 41  2  0  0  0  0
 40 39  1  0  0  0  0
 41 42  1  0  0  0  0
 42 37  2  0  0  0  0
M  END
>  <minimizedAffinity>
-12.6571875

$$$$
