
 OpenBabel11232419163D

 42 48  0  0  1  0  0  0  0  0999 V2000
   35.8780   44.2960   18.1850 C   0  0  0  0  0  0  0  0  0  0  0  0
   34.8280   43.4840   18.5920 N   0  0  0  0  0  0  0  0  0  0  0  0
   33.9150   43.5790   17.6540 C   0  0  0  0  0  0  0  0  0  0  0  0
   34.2910   44.4780   16.7000 N   0  0  0  0  0  0  0  0  0  0  0  0
   35.5830   44.8840   16.9570 C   0  0  0  0  0  0  0  0  0  0  0  0
   33.4810   44.7200   15.5210 C   0  0  0  0  0  2  0  0  0  0  0  0
   32.0810   44.4250   15.7230 O   0  0  0  0  0  0  0  0  0  0  0  0
   31.8080   43.3130   16.4790 C   0  0  0  0  0  0  0  0  0  0  0  0
   30.6000   42.6620   16.2540 C   0  0  0  0  0  3  0  0  0  0  0  0
   30.2890   41.5100   16.9850 C   0  0  0  0  0  3  0  0  0  0  0  0
   31.1700   41.0180   17.9610 C   0  0  0  0  0  0  0  0  0  0  0  0
   32.3560   41.7200   18.2200 C   0  0  0  0  0  3  0  0  0  0  0  0
   32.6750   42.8590   17.4770 C   0  0  0  0  0  0  0  0  0  0  0  0
   30.8830   39.7830   18.6830 C   0  0  0  0  0  0  0  0  0  0  0  0
   31.3610   39.2840   19.8800 C   0  0  0  0  0  3  0  0  0  0  0  0
   30.7550   38.0230   20.0280 C   0  0  0  0  0  3  0  0  0  0  0  0
   29.9580   37.7230   19.0020 N   0  0  0  0  0  0  0  0  0  0  0  0
   30.0510   38.7980   18.2040 N   0  0  0  0  0  0  0  0  0  0  0  0
   29.5370   38.7920   17.3300 H   0  0  0  0  0  0  0  0  0  0  0  0
   39.5600   44.7000   20.4770 C   0  0  0  0  0  0  0  0  0  0  0  0
   39.4820   44.9200   19.0850 C   0  0  0  0  0  3  0  0  0  0  0  0
   38.2870   44.7720   18.3660 C   0  0  0  0  0  3  0  0  0  0  0  0
   37.1000   44.3670   18.9870 C   0  0  0  0  0  0  0  0  0  0  0  0
   37.1700   44.0700   20.3450 C   0  0  0  0  0  3  0  0  0  0  0  0
   38.3650   44.2370   21.0660 C   0  0  0  0  0  3  0  0  0  0  0  0
   42.2190   43.7930   24.3170 C   0  0  0  0  0  1  0  0  0  0  0  0
   41.1850   43.8890   23.2050 C   0  0  1  0  0  0  0  0  0  0  0  0
   40.8040   45.3470   22.8360 C   0  0  0  0  0  2  0  0  0  0  0  0
   40.8970   44.9570   21.3300 C   0  0  1  0  0  0  0  0  0  0  0  0
   41.7390   43.7240   21.7650 C   0  0  0  0  0  2  0  0  0  0  0  0
   41.7260   45.9610   20.6100 N   0  0  0  0  0  4  0  0  0  0  0  0
   42.1170   45.5770   19.7420 H   0  0  0  0  0  0  0  0  0  0  0  0
   41.1540   46.7770   20.3500 H   0  0  0  0  0  0  0  0  0  0  0  0
   42.5160   46.3060   21.1680 H   0  0  0  0  0  0  0  0  0  0  0  0
   40.0550   43.0560   23.5180 O   0  0  0  0  0  0  0  0  0  0  0  0
   40.4060   42.1730   23.7420 H   0  0  0  0  0  0  0  0  0  0  0  0
   36.3550   45.6590   15.9990 C   0  0  0  0  0  0  0  0  0  0  0  0
   36.5810   47.0240   16.1940 C   0  0  0  0  0  3  0  0  0  0  0  0
   37.3000   47.7550   15.2450 C   0  0  0  0  0  3  0  0  0  0  0  0
   37.7950   47.1250   14.1030 C   0  0  0  0  0  3  0  0  0  0  0  0
   37.5720   45.7640   13.9030 C   0  0  0  0  0  3  0  0  0  0  0  0
   36.8500   45.0320   14.8470 C   0  0  0  0  0  3  0  0  0  0  0  0
  1  2  1  0  0  0  0
  1 23  1  0  0  0  0
  3  2  2  0  0  0  0
  4  5  1  0  0  0  0
  4  3  1  0  0  0  0
  5  1  2  0  0  0  0
  6  7  1  0  0  0  0
  6  4  1  0  0  0  0
  7  8  1  0  0  0  0
  8 13  1  0  0  0  0
  9  8  2  0  0  0  0
  9 10  1  0  0  0  0
 10 11  2  0  0  0  0
 11 12  1  0  0  0  0
 11 14  1  0  0  0  0
 13  3  1  0  0  0  0
 13 12  2  0  0  0  0
 14 15  2  0  0  0  0
 15 16  1  0  0  0  0
 17 16  2  0  0  0  0
 18 14  1  0  0  0  0
 18 17  1  0  0  0  0
 19 18  1  0  0  0  0
 20 25  1  0  0  0  0
 20 29  1  0  0  0  0
 21 20  2  0  0  0  0
 22 23  2  0  0  0  0
 22 21  1  0  0  0  0
 23 24  1  0  0  0  0
 24 25  2  0  0  0  0
 27 35  1  0  0  0  0
 27 26  1  1  0  0  0
 28 27  1  0  0  0  0
 29 31  1  6  0  0  0
 29 30  1  0  0  0  0
 29 28  1  0  0  0  0
 30 27  1  0  0  0  0
 31 34  1  0  0  0  0
 32 31  1  0  0  0  0
 33 31  1  0  0  0  0
 35 36  1  0  0  0  0
 37 38  1  0  0  0  0
 37  5  1  0  0  0  0
 39 38  2  0  0  0  0
 40 39  1  0  0  0  0
 41 40  2  0  0  0  0
 41 42  1  0  0  0  0
 42 37  2  0  0  0  0
M  END
>  <minimizedAffinity>
-12.8083096

$$$$
