
 OpenBabel11232419163D

 42 48  0  0  1  0  0  0  0  0999 V2000
   36.7290   44.4060   18.8510 C   0  0  0  0  0  0  0  0  0  0  0  0
   36.9050   44.0190   20.1720 N   0  0  0  0  0  0  0  0  0  0  0  0
   38.1660   44.2510   20.4500 C   0  0  0  0  0  0  0  0  0  0  0  0
   38.8330   44.6930   19.3450 N   0  0  0  0  0  0  0  0  0  0  0  0
   37.9240   44.8950   18.3290 C   0  0  0  0  0  0  0  0  0  0  0  0
   40.2310   45.0790   19.4040 C   0  0  0  0  0  2  0  0  0  0  0  0
   40.9550   44.4320   20.4750 O   0  0  0  0  0  0  0  0  0  0  0  0
   40.2720   44.2880   21.6560 C   0  0  0  0  0  0  0  0  0  0  0  0
   41.0190   44.2200   22.8270 C   0  0  0  0  0  3  0  0  0  0  0  0
   40.3650   44.0980   24.0580 C   0  0  0  0  0  3  0  0  0  0  0  0
   38.9650   44.0170   24.1230 C   0  0  0  0  0  0  0  0  0  0  0  0
   38.2290   44.0250   22.9300 C   0  0  0  0  0  3  0  0  0  0  0  0
   38.8810   44.1660   21.7030 C   0  0  0  0  0  0  0  0  0  0  0  0
   38.2730   43.9530   25.4060 C   0  0  0  0  0  0  0  0  0  0  0  0
   37.2040   43.1910   25.8380 C   0  0  0  0  0  3  0  0  0  0  0  0
   36.9540   43.6100   27.1570 C   0  0  0  0  0  3  0  0  0  0  0  0
   37.7850   44.5770   27.5440 N   0  0  0  0  0  0  0  0  0  0  0  0
   38.5710   44.7670   26.4730 N   0  0  0  0  0  0  0  0  0  0  0  0
   39.2840   45.4880   26.5230 H   0  0  0  0  0  0  0  0  0  0  0  0
   32.8020   44.4040   16.9640 C   0  0  0  0  0  0  0  0  0  0  0  0
   33.2580   45.4380   17.8100 C   0  0  0  0  0  3  0  0  0  0  0  0
   34.5230   45.4110   18.4170 C   0  0  0  0  0  3  0  0  0  0  0  0
   35.4010   44.3360   18.2390 C   0  0  0  0  0  0  0  0  0  0  0  0
   34.9430   43.2690   17.4700 C   0  0  0  0  0  3  0  0  0  0  0  0
   33.6820   43.3090   16.8490 C   0  0  0  0  0  3  0  0  0  0  0  0
   30.1730   46.0520   13.3580 C   0  0  0  0  0  1  0  0  0  0  0  0
   31.2270   45.6820   14.3910 C   0  0  1  0  0  0  0  0  0  0  0  0
   30.7450   45.8420   15.8560 C   0  0  0  0  0  2  0  0  0  0  0  0
   31.3970   44.4660   16.1880 C   0  0  1  0  0  0  0  0  0  0  0  0
   31.3860   44.1630   14.6630 C   0  0  0  0  0  2  0  0  0  0  0  0
   30.4180   43.6210   16.9220 N   0  0  0  0  0  4  0  0  0  0  0  0
   30.6440   42.6230   16.8420 H   0  0  0  0  0  0  0  0  0  0  0  0
   30.4270   43.8530   17.9260 H   0  0  0  0  0  0  0  0  0  0  0  0
   29.4530   43.7380   16.5900 H   0  0  0  0  0  0  0  0  0  0  0  0
   32.4540   46.3770   14.1040 O   0  0  0  0  0  0  0  0  0  0  0  0
   32.6580   46.2180   13.1630 H   0  0  0  0  0  0  0  0  0  0  0  0
   38.2820   45.5820   17.0980 C   0  0  0  0  0  0  0  0  0  0  0  0
   39.0660   46.7390   17.1220 C   0  0  0  0  0  3  0  0  0  0  0  0
   39.3730   47.3990   15.9300 C   0  0  0  0  0  3  0  0  0  0  0  0
   38.8990   46.9060   14.7140 C   0  0  0  0  0  3  0  0  0  0  0  0
   38.1160   45.7540   14.6840 C   0  0  0  0  0  3  0  0  0  0  0  0
   37.8040   45.0950   15.8740 C   0  0  0  0  0  3  0  0  0  0  0  0
  1  2  1  0  0  0  0
  2  3  2  0  0  0  0
  3 13  1  0  0  0  0
  4  6  1  0  0  0  0
  4  3  1  0  0  0  0
  5  1  2  0  0  0  0
  5  4  1  0  0  0  0
  6  7  1  0  0  0  0
  7  8  1  0  0  0  0
  8 13  2  0  0  0  0
  8  9  1  0  0  0  0
  9 10  2  0  0  0  0
 10 11  1  0  0  0  0
 11 14  1  0  0  0  0
 12 11  2  0  0  0  0
 13 12  1  0  0  0  0
 14 15  2  0  0  0  0
 14 18  1  0  0  0  0
 15 16  1  0  0  0  0
 16 17  2  0  0  0  0
 18 19  1  0  0  0  0
 18 17  1  0  0  0  0
 20 21  1  0  0  0  0
 21 22  2  0  0  0  0
 23 22  1  0  0  0  0
 23  1  1  0  0  0  0
 24 23  2  0  0  0  0
 25 20  2  0  0  0  0
 25 24  1  0  0  0  0
 27 26  1  6  0  0  0
 27 30  1  0  0  0  0
 27 28  1  0  0  0  0
 28 29  1  0  0  0  0
 29 31  1  1  0  0  0
 29 20  1  0  0  0  0
 30 29  1  0  0  0  0
 31 33  1  0  0  0  0
 32 31  1  0  0  0  0
 34 31  1  0  0  0  0
 35 27  1  0  0  0  0
 36 35  1  0  0  0  0
 37 38  1  0  0  0  0
 37  5  1  0  0  0  0
 39 38  2  0  0  0  0
 40 39  1  0  0  0  0
 41 40  2  0  0  0  0
 41 42  1  0  0  0  0
 42 37  2  0  0  0  0
M  END
>  <minimizedAffinity>
-12.0060711

$$$$
