
 OpenBabel11232419163D

 42 48  0  0  1  0  0  0  0  0999 V2000
   37.1220   44.7730   17.6000 C   0  0  0  0  0  0  0  0  0  0  0  0
   37.8250   44.6030   18.7850 N   0  0  0  0  0  0  0  0  0  0  0  0
   38.9470   45.2690   18.6360 C   0  0  0  0  0  0  0  0  0  0  0  0
   39.0370   45.7930   17.3800 N   0  0  0  0  0  0  0  0  0  0  0  0
   37.8450   45.5780   16.7220 C   0  0  0  0  0  0  0  0  0  0  0  0
   40.1560   46.6270   16.9830 C   0  0  0  0  0  2  0  0  0  0  0  0
   41.3560   46.3700   17.7470 O   0  0  0  0  0  0  0  0  0  0  0  0
   41.1720   46.1280   19.0850 C   0  0  0  0  0  0  0  0  0  0  0  0
   42.2220   46.4320   19.9440 C   0  0  0  0  0  3  0  0  0  0  0  0
   42.0710   46.2240   21.3190 C   0  0  0  0  0  3  0  0  0  0  0  0
   40.8820   45.6880   21.8400 C   0  0  0  0  0  0  0  0  0  0  0  0
   39.8560   45.3290   20.9550 C   0  0  0  0  0  3  0  0  0  0  0  0
   39.9990   45.5540   19.5840 C   0  0  0  0  0  0  0  0  0  0  0  0
   40.6940   45.5270   23.2780 C   0  0  0  0  0  0  0  0  0  0  0  0
   40.9200   46.3850   24.3370 C   0  0  0  0  0  3  0  0  0  0  0  0
   40.5990   45.6490   25.4910 C   0  0  0  0  0  3  0  0  0  0  0  0
   40.2090   44.4070   25.2040 N   0  0  0  0  0  0  0  0  0  0  0  0
   40.2740   44.3570   23.8640 N   0  0  0  0  0  0  0  0  0  0  0  0
   40.0390   43.4830   23.4060 H   0  0  0  0  0  0  0  0  0  0  0  0
   33.0530   43.2800   17.1590 C   0  0  0  0  0  0  0  0  0  0  0  0
   33.4080   44.3210   18.0440 C   0  0  0  0  0  3  0  0  0  0  0  0
   34.7280   44.7780   18.1770 C   0  0  0  0  0  3  0  0  0  0  0  0
   35.7810   44.2030   17.4570 C   0  0  0  0  0  0  0  0  0  0  0  0
   35.4680   43.1240   16.6350 C   0  0  0  0  0  3  0  0  0  0  0  0
   34.1410   42.6820   16.4900 C   0  0  0  0  0  3  0  0  0  0  0  0
   28.5670   44.3350   15.9770 C   0  0  0  0  0  1  0  0  0  0  0  0
   30.0520   44.2800   16.3060 C   0  0  1  0  0  0  0  0  0  0  0  0
   30.3660   43.5550   17.6400 C   0  0  0  0  0  2  0  0  0  0  0  0
   31.5350   42.8120   16.9250 C   0  0  1  0  0  0  0  0  0  0  0  0
   30.8540   43.1720   15.5730 C   0  0  0  0  0  2  0  0  0  0  0  0
   31.4440   41.3550   17.2130 N   0  0  0  0  0  4  0  0  0  0  0  0
   31.9330   40.7970   16.5050 H   0  0  0  0  0  0  0  0  0  0  0  0
   31.8810   41.1420   18.1210 H   0  0  0  0  0  0  0  0  0  0  0  0
   30.4770   41.0110   17.2520 H   0  0  0  0  0  0  0  0  0  0  0  0
   30.6190   45.5990   16.2140 O   0  0  0  0  0  0  0  0  0  0  0  0
   30.3550   45.9630   15.3490 H   0  0  0  0  0  0  0  0  0  0  0  0
   37.5370   46.2160   15.4520 C   0  0  0  0  0  0  0  0  0  0  0  0
   37.4340   47.6070   15.3530 C   0  0  0  0  0  3  0  0  0  0  0  0
   37.1090   48.1970   14.1300 C   0  0  0  0  0  3  0  0  0  0  0  0
   36.8870   47.4020   13.0050 C   0  0  0  0  0  3  0  0  0  0  0  0
   36.9870   46.0150   13.0990 C   0  0  0  0  0  3  0  0  0  0  0  0
   37.3080   45.4220   14.3200 C   0  0  0  0  0  3  0  0  0  0  0  0
  1  2  1  0  0  0  0
  3  2  2  0  0  0  0
  3 13  1  0  0  0  0
  4  3  1  0  0  0  0
  5  4  1  0  0  0  0
  5  1  2  0  0  0  0
  6  4  1  0  0  0  0
  6  7  1  0  0  0  0
  7  8  1  0  0  0  0
  8 13  2  0  0  0  0
  8  9  1  0  0  0  0
  9 10  2  0  0  0  0
 10 11  1  0  0  0  0
 11 14  1  0  0  0  0
 12 11  2  0  0  0  0
 13 12  1  0  0  0  0
 14 18  1  0  0  0  0
 14 15  2  0  0  0  0
 15 16  1  0  0  0  0
 17 16  2  0  0  0  0
 18 17  1  0  0  0  0
 19 18  1  0  0  0  0
 20 21  1  0  0  0  0
 21 22  2  0  0  0  0
 23  1  1  0  0  0  0
 23 22  1  0  0  0  0
 24 23  2  0  0  0  0
 25 24  1  0  0  0  0
 25 20  2  0  0  0  0
 27 26  1  6  0  0  0
 27 28  1  0  0  0  0
 29 20  1  0  0  0  0
 29 31  1  1  0  0  0
 29 28  1  0  0  0  0
 30 27  1  0  0  0  0
 30 29  1  0  0  0  0
 31 34  1  0  0  0  0
 31 33  1  0  0  0  0
 32 31  1  0  0  0  0
 35 27  1  0  0  0  0
 36 35  1  0  0  0  0
 37  5  1  0  0  0  0
 38 37  1  0  0  0  0
 39 38  2  0  0  0  0
 40 41  2  0  0  0  0
 40 39  1  0  0  0  0
 41 42  1  0  0  0  0
 42 37  2  0  0  0  0
M  END
>  <minimizedAffinity>
-13.2666378

$$$$
