
 OpenBabel11232419383D

 39 45  0  0  1  0  0  0  0  0999 V2000
   57.3440  -41.0930   17.5470 C   0  0  0  0  0  0  0  0  0  0  0  0
   56.8780  -39.9160   18.0930 N   0  0  0  0  0  0  0  0  0  0  0  0
   55.6620  -39.7590   17.6260 C   0  0  0  0  0  0  0  0  0  0  0  0
   55.3200  -40.8060   16.8150 N   0  0  0  0  0  0  0  0  0  0  0  0
   56.3720  -41.6910   16.7530 C   0  0  0  0  0  0  0  0  0  0  0  0
   53.9760  -40.9390   16.2870 C   0  0  0  0  0  2  0  0  0  0  0  0
   53.3270  -39.6650   16.0800 O   0  0  0  0  0  0  0  0  0  0  0  0
   53.5580  -38.7020   17.0310 C   0  0  0  0  0  0  0  0  0  0  0  0
   52.6190  -37.6730   17.1250 C   0  0  0  0  0  3  0  0  0  0  0  0
   52.8090  -36.6420   18.0470 C   0  0  0  0  0  3  0  0  0  0  0  0
   53.9420  -36.6380   18.8620 C   0  0  0  0  0  3  0  0  0  0  0  0
   54.8850  -37.6580   18.7480 C   0  0  0  0  0  0  0  0  0  0  0  0
   55.9650  -37.6150   19.5440 F   0  0  0  0  0  0  0  0  0  0  0  0
   54.7080  -38.6930   17.8320 C   0  0  0  0  0  0  0  0  0  0  0  0
   56.3200  -42.9620   16.0440 C   0  0  0  0  0  0  0  0  0  0  0  0
   56.7160  -43.0430   14.7030 C   0  0  0  0  0  3  0  0  0  0  0  0
   56.6550  -44.2620   14.0240 C   0  0  0  0  0  3  0  0  0  0  0  0
   56.1960  -45.4030   14.6810 C   0  0  0  0  0  3  0  0  0  0  0  0
   55.8030  -45.3290   16.0170 C   0  0  0  0  0  3  0  0  0  0  0  0
   55.8670  -44.1120   16.6980 C   0  0  0  0  0  3  0  0  0  0  0  0
   61.4080  -42.3410   18.3070 C   0  0  0  0  0  0  0  0  0  0  0  0
   60.9220  -41.0700   18.6760 C   0  0  0  0  0  3  0  0  0  0  0  0
   59.5960  -40.6880   18.4430 C   0  0  0  0  0  3  0  0  0  0  0  0
   58.6880  -41.5660   17.8430 C   0  0  0  0  0  0  0  0  0  0  0  0
   59.1380  -42.8370   17.4850 C   0  0  0  0  0  3  0  0  0  0  0  0
   60.4690  -43.2140   17.7170 C   0  0  0  0  0  3  0  0  0  0  0  0
   62.9100  -42.7570   18.5340 C   0  0  2  0  0  0  0  0  0  0  0  0
   64.0190  -41.6650   18.5310 C   0  0  0  0  0  2  0  0  0  0  0  0
   64.9950  -42.7460   17.9450 C   0  0  1  0  0  0  0  0  0  0  0  0
   63.7000  -43.4160   17.3620 C   0  0  0  0  0  2  0  0  0  0  0  0
   62.9730  -43.5790   19.7690 N   0  0  0  0  0  4  0  0  0  0  0  0
   62.4120  -44.4330   19.6950 H   0  0  0  0  0  0  0  0  0  0  0  0
   62.6460  -43.0580   20.5910 H   0  0  0  0  0  0  0  0  0  0  0  0
   63.9580  -43.8600   19.9520 H   0  0  0  0  0  0  0  0  0  0  0  0
   66.0550  -42.2230   16.9970 C   0  0  0  0  0  3  0  0  0  0  0  0
   66.4610  -42.9380   15.7370 C   0  0  0  0  0  2  0  0  0  0  0  0
   65.8060  -41.5860   15.6590 C   0  0  0  0  0  2  0  0  0  0  0  0
   65.5610  -43.5780   19.0030 O   0  0  0  0  0  0  0  0  0  0  0  0
   66.3870  -43.9400   18.6140 H   0  0  0  0  0  0  0  0  0  0  0  0
  1 24  1  0  0  0  0
  1  2  1  0  0  0  0
  3 14  1  0  0  0  0
  3  2  2  0  0  0  0
  4  3  1  0  0  0  0
  5  4  1  0  0  0  0
  5  1  2  0  0  0  0
  6  4  1  0  0  0  0
  7  6  1  0  0  0  0
  7  8  1  0  0  0  0
  8  9  2  0  0  0  0
  8 14  1  0  0  0  0
  9 10  1  0  0  0  0
 10 11  2  0  0  0  0
 12 11  1  0  0  0  0
 12 13  1  0  0  0  0
 14 12  2  0  0  0  0
 15 20  1  0  0  0  0
 15  5  1  0  0  0  0
 16 15  2  0  0  0  0
 17 18  2  0  0  0  0
 17 16  1  0  0  0  0
 18 19  1  0  0  0  0
 19 20  2  0  0  0  0
 21 27  1  0  0  0  0
 21 22  1  0  0  0  0
 23 22  2  0  0  0  0
 24 23  1  0  0  0  0
 25 26  1  0  0  0  0
 25 24  2  0  0  0  0
 26 21  2  0  0  0  0
 27 31  1  1  0  0  0
 28 27  1  0  0  0  0
 29 28  1  0  0  0  0
 29 38  1  1  0  0  0
 30 29  1  0  0  0  0
 30 27  1  0  0  0  0
 31 34  1  0  0  0  0
 31 33  1  0  0  0  0
 32 31  1  0  0  0  0
 35 29  1  0  0  0  0
 36 35  1  0  0  0  0
 37 36  1  0  0  0  0
 37 35  1  0  0  0  0
 39 38  1  0  0  0  0
M  END
>  <minimizedAffinity>
-2.69415689

$$$$
