
 OpenBabel11232419383D

 39 45  0  0  1  0  0  0  0  0999 V2000
   56.8010  -42.4650   18.6750 C   0  0  0  0  0  0  0  0  0  0  0  0
   56.7400  -43.1690   19.8610 N   0  0  0  0  0  0  0  0  0  0  0  0
   55.4720  -43.4460   20.0510 C   0  0  0  0  0  0  0  0  0  0  0  0
   54.7150  -42.9650   19.0190 N   0  0  0  0  0  0  0  0  0  0  0  0
   55.5370  -42.3410   18.1080 C   0  0  0  0  0  0  0  0  0  0  0  0
   53.2990  -43.2630   18.9230 C   0  0  0  0  0  2  0  0  0  0  0  0
   52.6750  -43.4370   20.2140 O   0  0  0  0  0  0  0  0  0  0  0  0
   53.4140  -44.0970   21.1640 C   0  0  0  0  0  0  0  0  0  0  0  0
   52.7080  -44.6830   22.2160 C   0  0  0  0  0  3  0  0  0  0  0  0
   53.3980  -45.3410   23.2350 C   0  0  0  0  0  3  0  0  0  0  0  0
   54.7930  -45.3980   23.2060 C   0  0  0  0  0  3  0  0  0  0  0  0
   55.4930  -44.7930   22.1630 C   0  0  0  0  0  0  0  0  0  0  0  0
   56.8330  -44.8640   22.1730 F   0  0  0  0  0  0  0  0  0  0  0  0
   54.8150  -44.1340   21.1390 C   0  0  0  0  0  0  0  0  0  0  0  0
   55.0730  -41.7880   16.8440 C   0  0  0  0  0  0  0  0  0  0  0  0
   54.4050  -40.5570   16.8100 C   0  0  0  0  0  3  0  0  0  0  0  0
   53.9520  -40.0360   15.5970 C   0  0  0  0  0  3  0  0  0  0  0  0
   54.1630  -40.7420   14.4130 C   0  0  0  0  0  3  0  0  0  0  0  0
   54.8300  -41.9650   14.4390 C   0  0  0  0  0  3  0  0  0  0  0  0
   55.2860  -42.4870   15.6510 C   0  0  0  0  0  3  0  0  0  0  0  0
   60.6640  -41.1990   17.2210 C   0  0  0  0  0  0  0  0  0  0  0  0
   59.9830  -42.3150   16.6950 C   0  0  0  0  0  3  0  0  0  0  0  0
   58.7210  -42.7010   17.1620 C   0  0  0  0  0  3  0  0  0  0  0  0
   58.0730  -41.9770   18.1670 C   0  0  0  0  0  0  0  0  0  0  0  0
   58.7170  -40.8570   18.6920 C   0  0  0  0  0  3  0  0  0  0  0  0
   59.9830  -40.4760   18.2240 C   0  0  0  0  0  3  0  0  0  0  0  0
   62.1010  -40.7880   16.7230 C   0  0  2  0  0  0  0  0  0  0  0  0
   62.4870  -40.9980   15.2310 C   0  0  0  0  0  2  0  0  0  0  0  0
   63.9620  -41.2380   15.7100 C   0  0  1  0  0  0  0  0  0  0  0  0
   63.3130  -41.7100   17.0590 C   0  0  0  0  0  2  0  0  0  0  0  0
   62.3450  -39.3850   17.1450 N   0  0  0  0  0  4  0  0  0  0  0  0
   62.3160  -39.2760   18.1640 H   0  0  0  0  0  0  0  0  0  0  0  0
   61.6570  -38.7400   16.7400 H   0  0  0  0  0  0  0  0  0  0  0  0
   63.2850  -39.0810   16.8200 H   0  0  0  0  0  0  0  0  0  0  0  0
   64.7650  -42.2230   14.8840 C   0  0  0  0  0  3  0  0  0  0  0  0
   64.9810  -42.0750   13.4030 C   0  0  0  0  0  2  0  0  0  0  0  0
   66.1510  -41.9980   14.3450 C   0  0  0  0  0  2  0  0  0  0  0  0
   64.6680  -39.9750   15.9040 O   0  0  0  0  0  0  0  0  0  0  0  0
   65.6180  -40.2120   15.8340 H   0  0  0  0  0  0  0  0  0  0  0  0
  1  2  1  0  0  0  0
  2  3  2  0  0  0  0
  3 14  1  0  0  0  0
  4  3  1  0  0  0  0
  5  1  2  0  0  0  0
  5  4  1  0  0  0  0
  6  4  1  0  0  0  0
  6  7  1  0  0  0  0
  7  8  1  0  0  0  0
  8  9  1  0  0  0  0
  9 10  2  0  0  0  0
 11 10  1  0  0  0  0
 12 13  1  0  0  0  0
 12 11  2  0  0  0  0
 14  8  2  0  0  0  0
 14 12  1  0  0  0  0
 15  5  1  0  0  0  0
 16 15  1  0  0  0  0
 17 16  2  0  0  0  0
 18 19  2  0  0  0  0
 18 17  1  0  0  0  0
 19 20  1  0  0  0  0
 20 15  2  0  0  0  0
 21 26  1  0  0  0  0
 22 23  1  0  0  0  0
 22 21  2  0  0  0  0
 23 24  2  0  0  0  0
 24  1  1  0  0  0  0
 24 25  1  0  0  0  0
 26 25  2  0  0  0  0
 27 30  1  0  0  0  0
 27 31  1  1  0  0  0
 27 21  1  0  0  0  0
 28 29  1  0  0  0  0
 28 27  1  0  0  0  0
 29 38  1  1  0  0  0
 29 30  1  0  0  0  0
 31 32  1  0  0  0  0
 33 31  1  0  0  0  0
 34 31  1  0  0  0  0
 35 29  1  0  0  0  0
 36 37  1  0  0  0  0
 36 35  1  0  0  0  0
 37 35  1  0  0  0  0
 39 38  1  0  0  0  0
M  END
>  <minimizedAffinity>
-5.07588625

$$$$
