
 OpenBabel11232419383D

 39 45  0  0  1  0  0  0  0  0999 V2000
   56.7400  -42.9480   17.5910 C   0  0  0  0  0  0  0  0  0  0  0  0
   56.6570  -43.5860   18.8110 N   0  0  0  0  0  0  0  0  0  0  0  0
   55.3780  -43.6480   19.0980 C   0  0  0  0  0  0  0  0  0  0  0  0
   54.6330  -43.0920   18.0950 N   0  0  0  0  0  0  0  0  0  0  0  0
   55.4740  -42.6450   17.1020 C   0  0  0  0  0  0  0  0  0  0  0  0
   53.1840  -43.1630   18.1080 C   0  0  0  0  0  2  0  0  0  0  0  0
   52.6370  -43.1830   19.4450 O   0  0  0  0  0  0  0  0  0  0  0  0
   53.3300  -43.9160   20.3760 C   0  0  0  0  0  0  0  0  0  0  0  0
   52.6190  -44.3400   21.5000 C   0  0  0  0  0  3  0  0  0  0  0  0
   53.2700  -45.0600   22.5030 C   0  0  0  0  0  3  0  0  0  0  0  0
   54.6320  -45.3420   22.3850 C   0  0  0  0  0  3  0  0  0  0  0  0
   55.3400  -44.8980   21.2690 C   0  0  0  0  0  0  0  0  0  0  0  0
   56.6500  -45.1830   21.1950 F   0  0  0  0  0  0  0  0  0  0  0  0
   54.7020  -44.1790   20.2600 C   0  0  0  0  0  0  0  0  0  0  0  0
   55.0120  -42.0730   15.8450 C   0  0  0  0  0  0  0  0  0  0  0  0
   55.2570  -42.7310   14.6340 C   0  0  0  0  0  3  0  0  0  0  0  0
   54.8220  -42.1740   13.4300 C   0  0  0  0  0  3  0  0  0  0  0  0
   54.1420  -40.9570   13.4310 C   0  0  0  0  0  3  0  0  0  0  0  0
   53.8920  -40.2990   14.6340 C   0  0  0  0  0  3  0  0  0  0  0  0
   54.3230  -40.8560   15.8390 C   0  0  0  0  0  3  0  0  0  0  0  0
   60.5170  -41.9890   15.7320 C   0  0  0  0  0  0  0  0  0  0  0  0
   60.0530  -41.3330   16.8890 C   0  0  0  0  0  3  0  0  0  0  0  0
   58.8360  -41.6700   17.4940 C   0  0  0  0  0  3  0  0  0  0  0  0
   58.0330  -42.6910   16.9760 C   0  0  0  0  0  0  0  0  0  0  0  0
   58.4790  -43.3690   15.8410 C   0  0  0  0  0  3  0  0  0  0  0  0
   59.6980  -43.0250   15.2380 C   0  0  0  0  0  3  0  0  0  0  0  0
   61.8680  -41.5830   15.0290 C   0  0  2  0  0  0  0  0  0  0  0  0
   63.1040  -42.5230   15.1380 C   0  0  0  0  0  2  0  0  0  0  0  0
   64.0060  -41.2410   15.0760 C   0  0  1  0  0  0  0  0  0  0  0  0
   62.7680  -40.4930   15.6870 C   0  0  0  0  0  2  0  0  0  0  0  0
   61.5650  -41.2630   13.6110 N   0  0  0  0  0  4  0  0  0  0  0  0
   60.9110  -40.4790   13.5220 H   0  0  0  0  0  0  0  0  0  0  0  0
   61.1630  -42.0660   13.1160 H   0  0  0  0  0  0  0  0  0  0  0  0
   62.4420  -41.0010   13.1170 H   0  0  0  0  0  0  0  0  0  0  0  0
   65.2980  -41.3120   15.8650 C   0  0  0  0  0  3  0  0  0  0  0  0
   65.6220  -42.4280   16.8200 C   0  0  0  0  0  2  0  0  0  0  0  0
   66.4540  -42.2300   15.5830 C   0  0  0  0  0  2  0  0  0  0  0  0
   64.2250  -40.8120   13.6970 O   0  0  0  0  0  0  0  0  0  0  0  0
   65.0490  -40.2790   13.7340 H   0  0  0  0  0  0  0  0  0  0  0  0
  1  2  1  0  0  0  0
  2  3  2  0  0  0  0
  3 14  1  0  0  0  0
  4  6  1  0  0  0  0
  4  3  1  0  0  0  0
  5  1  2  0  0  0  0
  5  4  1  0  0  0  0
  6  7  1  0  0  0  0
  7  8  1  0  0  0  0
  8  9  1  0  0  0  0
  9 10  2  0  0  0  0
 11 10  1  0  0  0  0
 12 11  2  0  0  0  0
 13 12  1  0  0  0  0
 14  8  2  0  0  0  0
 14 12  1  0  0  0  0
 15  5  1  0  0  0  0
 16 15  2  0  0  0  0
 17 18  2  0  0  0  0
 17 16  1  0  0  0  0
 18 19  1  0  0  0  0
 19 20  2  0  0  0  0
 20 15  1  0  0  0  0
 21 22  1  0  0  0  0
 22 23  2  0  0  0  0
 24 23  1  0  0  0  0
 24  1  1  0  0  0  0
 25 24  2  0  0  0  0
 26 21  2  0  0  0  0
 26 25  1  0  0  0  0
 27 31  1  6  0  0  0
 27 28  1  0  0  0  0
 27 30  1  0  0  0  0
 27 21  1  0  0  0  0
 29 38  1  6  0  0  0
 29 28  1  0  0  0  0
 29 30  1  0  0  0  0
 29 35  1  0  0  0  0
 32 31  1  0  0  0  0
 33 31  1  0  0  0  0
 34 31  1  0  0  0  0
 35 36  1  0  0  0  0
 37 35  1  0  0  0  0
 37 36  1  0  0  0  0
 38 39  1  0  0  0  0
M  END
>  <minimizedAffinity>
-4.0936904

$$$$
