
 OpenBabel11232419383D

 39 45  0  0  1  0  0  0  0  0999 V2000
   56.4190  -41.8850   18.6530 C   0  0  0  0  0  0  0  0  0  0  0  0
   56.3090  -42.9090   19.5710 N   0  0  0  0  0  0  0  0  0  0  0  0
   55.1200  -42.7810   20.1120 C   0  0  0  0  0  0  0  0  0  0  0  0
   54.4520  -41.7230   19.5610 N   0  0  0  0  0  0  0  0  0  0  0  0
   55.2500  -41.1320   18.6070 C   0  0  0  0  0  0  0  0  0  0  0  0
   53.0640  -41.4580   19.8890 C   0  0  0  0  0  2  0  0  0  0  0  0
   52.7180  -41.8690   21.2290 O   0  0  0  0  0  0  0  0  0  0  0  0
   53.2750  -43.0450   21.6690 C   0  0  0  0  0  0  0  0  0  0  0  0
   52.6240  -43.6960   22.7180 C   0  0  0  0  0  3  0  0  0  0  0  0
   53.1540  -44.8780   23.2370 C   0  0  0  0  0  3  0  0  0  0  0  0
   54.3390  -45.3980   22.7140 C   0  0  0  0  0  3  0  0  0  0  0  0
   54.9950  -44.7310   21.6800 C   0  0  0  0  0  0  0  0  0  0  0  0
   56.1350  -45.2590   21.2080 F   0  0  0  0  0  0  0  0  0  0  0  0
   54.4760  -43.5510   21.1520 C   0  0  0  0  0  0  0  0  0  0  0  0
   54.8200  -40.0270   17.7630 C   0  0  0  0  0  0  0  0  0  0  0  0
   55.0310  -38.7030   18.1650 C   0  0  0  0  0  3  0  0  0  0  0  0
   54.6060  -37.6460   17.3560 C   0  0  0  0  0  3  0  0  0  0  0  0
   53.9690  -37.9090   16.1450 C   0  0  0  0  0  3  0  0  0  0  0  0
   53.7590  -39.2250   15.7370 C   0  0  0  0  0  3  0  0  0  0  0  0
   54.1850  -40.2830   16.5430 C   0  0  0  0  0  3  0  0  0  0  0  0
   60.0620  -41.5860   16.3550 C   0  0  0  0  0  0  0  0  0  0  0  0
   58.9520  -42.3390   15.9240 C   0  0  0  0  0  3  0  0  0  0  0  0
   57.7690  -42.4090   16.6690 C   0  0  0  0  0  3  0  0  0  0  0  0
   57.6360  -41.7150   17.8750 C   0  0  0  0  0  0  0  0  0  0  0  0
   58.7130  -40.9460   18.3160 C   0  0  0  0  0  3  0  0  0  0  0  0
   59.8970  -40.8820   17.5670 C   0  0  0  0  0  3  0  0  0  0  0  0
   61.4070  -41.5390   15.5360 C   0  0  2  0  0  0  0  0  0  0  0  0
   62.4290  -42.7040   15.6690 C   0  0  0  0  0  2  0  0  0  0  0  0
   63.5670  -41.6520   15.4210 C   0  0  1  0  0  0  0  0  0  0  0  0
   62.5600  -40.6090   16.0230 C   0  0  0  0  0  2  0  0  0  0  0  0
   61.0640  -41.2890   14.1130 N   0  0  0  0  0  4  0  0  0  0  0  0
   60.5790  -40.3960   13.9810 H   0  0  0  0  0  0  0  0  0  0  0  0
   60.4680  -42.0300   13.7280 H   0  0  0  0  0  0  0  0  0  0  0  0
   61.9340  -41.2640   13.5430 H   0  0  0  0  0  0  0  0  0  0  0  0
   64.8750  -41.9240   16.1360 C   0  0  0  0  0  3  0  0  0  0  0  0
   65.7690  -43.0880   15.8070 C   0  0  0  0  0  2  0  0  0  0  0  0
   66.2510  -41.6820   15.5800 C   0  0  0  0  0  2  0  0  0  0  0  0
   63.7590  -41.4040   13.9950 O   0  0  0  0  0  0  0  0  0  0  0  0
   64.6740  -41.0560   13.9270 H   0  0  0  0  0  0  0  0  0  0  0  0
  1  2  1  0  0  0  0
  2  3  2  0  0  0  0
  3 14  1  0  0  0  0
  4  6  1  0  0  0  0
  4  3  1  0  0  0  0
  5  1  2  0  0  0  0
  5  4  1  0  0  0  0
  6  7  1  0  0  0  0
  7  8  1  0  0  0  0
  8  9  1  0  0  0  0
  9 10  2  0  0  0  0
 11 10  1  0  0  0  0
 12 11  2  0  0  0  0
 13 12  1  0  0  0  0
 14  8  2  0  0  0  0
 14 12  1  0  0  0  0
 15 16  1  0  0  0  0
 15  5  1  0  0  0  0
 17 16  2  0  0  0  0
 18 17  1  0  0  0  0
 19 18  2  0  0  0  0
 19 20  1  0  0  0  0
 20 15  2  0  0  0  0
 21 26  1  0  0  0  0
 22 21  2  0  0  0  0
 22 23  1  0  0  0  0
 23 24  2  0  0  0  0
 24 25  1  0  0  0  0
 24  1  1  0  0  0  0
 26 25  2  0  0  0  0
 27 31  1  6  0  0  0
 27 28  1  0  0  0  0
 27 30  1  0  0  0  0
 27 21  1  0  0  0  0
 29 38  1  6  0  0  0
 29 28  1  0  0  0  0
 29 30  1  0  0  0  0
 29 35  1  0  0  0  0
 32 31  1  0  0  0  0
 33 31  1  0  0  0  0
 34 31  1  0  0  0  0
 36 35  1  0  0  0  0
 37 36  1  0  0  0  0
 37 35  1  0  0  0  0
 39 38  1  0  0  0  0
M  END
>  <minimizedAffinity>
-5.16080618

$$$$

 OpenBabel11232419383D

 39 45  0  0  1  0  0  0  0  0999 V2000
   56.8010  -42.4650   18.6750 C   0  0  0  0  0  0  0  0  0  0  0  0
   56.7400  -43.1690   19.8610 N   0  0  0  0  0  0  0  0  0  0  0  0
   55.4720  -43.4460   20.0510 C   0  0  0  0  0  0  0  0  0  0  0  0
   54.7150  -42.9650   19.0190 N   0  0  0  0  0  0  0  0  0  0  0  0
   55.5370  -42.3410   18.1080 C   0  0  0  0  0  0  0  0  0  0  0  0
   53.2990  -43.2630   18.9230 C   0  0  0  0  0  2  0  0  0  0  0  0
   52.6750  -43.4370   20.2140 O   0  0  0  0  0  0  0  0  0  0  0  0
   53.4140  -44.0970   21.1640 C   0  0  0  0  0  0  0  0  0  0  0  0
   52.7080  -44.6830   22.2160 C   0  0  0  0  0  3  0  0  0  0  0  0
   53.3980  -45.3410   23.2350 C   0  0  0  0  0  3  0  0  0  0  0  0
   54.7930  -45.3980   23.2060 C   0  0  0  0  0  3  0  0  0  0  0  0
   55.4930  -44.7930   22.1630 C   0  0  0  0  0  0  0  0  0  0  0  0
   56.8330  -44.8640   22.1730 F   0  0  0  0  0  0  0  0  0  0  0  0
   54.8150  -44.1340   21.1390 C   0  0  0  0  0  0  0  0  0  0  0  0
   55.0730  -41.7880   16.8440 C   0  0  0  0  0  0  0  0  0  0  0  0
   54.4050  -40.5570   16.8100 C   0  0  0  0  0  3  0  0  0  0  0  0
   53.9520  -40.0360   15.5970 C   0  0  0  0  0  3  0  0  0  0  0  0
   54.1630  -40.7420   14.4130 C   0  0  0  0  0  3  0  0  0  0  0  0
   54.8300  -41.9650   14.4390 C   0  0  0  0  0  3  0  0  0  0  0  0
   55.2860  -42.4870   15.6510 C   0  0  0  0  0  3  0  0  0  0  0  0
   60.6640  -41.1990   17.2210 C   0  0  0  0  0  0  0  0  0  0  0  0
   59.9830  -42.3150   16.6950 C   0  0  0  0  0  3  0  0  0  0  0  0
   58.7210  -42.7010   17.1620 C   0  0  0  0  0  3  0  0  0  0  0  0
   58.0730  -41.9770   18.1670 C   0  0  0  0  0  0  0  0  0  0  0  0
   58.7170  -40.8570   18.6920 C   0  0  0  0  0  3  0  0  0  0  0  0
   59.9830  -40.4760   18.2240 C   0  0  0  0  0  3  0  0  0  0  0  0
   62.1010  -40.7880   16.7230 C   0  0  2  0  0  0  0  0  0  0  0  0
   62.4870  -40.9980   15.2310 C   0  0  0  0  0  2  0  0  0  0  0  0
   63.9620  -41.2380   15.7100 C   0  0  1  0  0  0  0  0  0  0  0  0
   63.3130  -41.7100   17.0590 C   0  0  0  0  0  2  0  0  0  0  0  0
   62.3450  -39.3850   17.1450 N   0  0  0  0  0  4  0  0  0  0  0  0
   62.3160  -39.2760   18.1640 H   0  0  0  0  0  0  0  0  0  0  0  0
   61.6570  -38.7400   16.7400 H   0  0  0  0  0  0  0  0  0  0  0  0
   63.2850  -39.0810   16.8200 H   0  0  0  0  0  0  0  0  0  0  0  0
   64.7650  -42.2230   14.8840 C   0  0  0  0  0  3  0  0  0  0  0  0
   64.9810  -42.0750   13.4030 C   0  0  0  0  0  2  0  0  0  0  0  0
   66.1510  -41.9980   14.3450 C   0  0  0  0  0  2  0  0  0  0  0  0
   64.6680  -39.9750   15.9040 O   0  0  0  0  0  0  0  0  0  0  0  0
   65.6180  -40.2120   15.8340 H   0  0  0  0  0  0  0  0  0  0  0  0
  1  2  1  0  0  0  0
  2  3  2  0  0  0  0
  3 14  1  0  0  0  0
  4  3  1  0  0  0  0
  5  1  2  0  0  0  0
  5  4  1  0  0  0  0
  6  4  1  0  0  0  0
  6  7  1  0  0  0  0
  7  8  1  0  0  0  0
  8  9  1  0  0  0  0
  9 10  2  0  0  0  0
 11 10  1  0  0  0  0
 12 13  1  0  0  0  0
 12 11  2  0  0  0  0
 14  8  2  0  0  0  0
 14 12  1  0  0  0  0
 15  5  1  0  0  0  0
 16 15  1  0  0  0  0
 17 16  2  0  0  0  0
 18 19  2  0  0  0  0
 18 17  1  0  0  0  0
 19 20  1  0  0  0  0
 20 15  2  0  0  0  0
 21 26  1  0  0  0  0
 22 23  1  0  0  0  0
 22 21  2  0  0  0  0
 23 24  2  0  0  0  0
 24  1  1  0  0  0  0
 24 25  1  0  0  0  0
 26 25  2  0  0  0  0
 27 30  1  0  0  0  0
 27 31  1  1  0  0  0
 27 21  1  0  0  0  0
 28 29  1  0  0  0  0
 28 27  1  0  0  0  0
 29 38  1  1  0  0  0
 29 30  1  0  0  0  0
 31 32  1  0  0  0  0
 33 31  1  0  0  0  0
 34 31  1  0  0  0  0
 35 29  1  0  0  0  0
 36 37  1  0  0  0  0
 36 35  1  0  0  0  0
 37 35  1  0  0  0  0
 39 38  1  0  0  0  0
M  END
>  <minimizedAffinity>
-5.07588625

$$$$

 OpenBabel11232419383D

 39 45  0  0  1  0  0  0  0  0999 V2000
   56.7400  -42.9480   17.5910 C   0  0  0  0  0  0  0  0  0  0  0  0
   56.6570  -43.5860   18.8110 N   0  0  0  0  0  0  0  0  0  0  0  0
   55.3780  -43.6480   19.0980 C   0  0  0  0  0  0  0  0  0  0  0  0
   54.6330  -43.0920   18.0950 N   0  0  0  0  0  0  0  0  0  0  0  0
   55.4740  -42.6450   17.1020 C   0  0  0  0  0  0  0  0  0  0  0  0
   53.1840  -43.1630   18.1080 C   0  0  0  0  0  2  0  0  0  0  0  0
   52.6370  -43.1830   19.4450 O   0  0  0  0  0  0  0  0  0  0  0  0
   53.3300  -43.9160   20.3760 C   0  0  0  0  0  0  0  0  0  0  0  0
   52.6190  -44.3400   21.5000 C   0  0  0  0  0  3  0  0  0  0  0  0
   53.2700  -45.0600   22.5030 C   0  0  0  0  0  3  0  0  0  0  0  0
   54.6320  -45.3420   22.3850 C   0  0  0  0  0  3  0  0  0  0  0  0
   55.3400  -44.8980   21.2690 C   0  0  0  0  0  0  0  0  0  0  0  0
   56.6500  -45.1830   21.1950 F   0  0  0  0  0  0  0  0  0  0  0  0
   54.7020  -44.1790   20.2600 C   0  0  0  0  0  0  0  0  0  0  0  0
   55.0120  -42.0730   15.8450 C   0  0  0  0  0  0  0  0  0  0  0  0
   55.2570  -42.7310   14.6340 C   0  0  0  0  0  3  0  0  0  0  0  0
   54.8220  -42.1740   13.4300 C   0  0  0  0  0  3  0  0  0  0  0  0
   54.1420  -40.9570   13.4310 C   0  0  0  0  0  3  0  0  0  0  0  0
   53.8920  -40.2990   14.6340 C   0  0  0  0  0  3  0  0  0  0  0  0
   54.3230  -40.8560   15.8390 C   0  0  0  0  0  3  0  0  0  0  0  0
   60.5170  -41.9890   15.7320 C   0  0  0  0  0  0  0  0  0  0  0  0
   60.0530  -41.3330   16.8890 C   0  0  0  0  0  3  0  0  0  0  0  0
   58.8360  -41.6700   17.4940 C   0  0  0  0  0  3  0  0  0  0  0  0
   58.0330  -42.6910   16.9760 C   0  0  0  0  0  0  0  0  0  0  0  0
   58.4790  -43.3690   15.8410 C   0  0  0  0  0  3  0  0  0  0  0  0
   59.6980  -43.0250   15.2380 C   0  0  0  0  0  3  0  0  0  0  0  0
   61.8680  -41.5830   15.0290 C   0  0  2  0  0  0  0  0  0  0  0  0
   63.1040  -42.5230   15.1380 C   0  0  0  0  0  2  0  0  0  0  0  0
   64.0060  -41.2410   15.0760 C   0  0  1  0  0  0  0  0  0  0  0  0
   62.7680  -40.4930   15.6870 C   0  0  0  0  0  2  0  0  0  0  0  0
   61.5650  -41.2630   13.6110 N   0  0  0  0  0  4  0  0  0  0  0  0
   60.9110  -40.4790   13.5220 H   0  0  0  0  0  0  0  0  0  0  0  0
   61.1630  -42.0660   13.1160 H   0  0  0  0  0  0  0  0  0  0  0  0
   62.4420  -41.0010   13.1170 H   0  0  0  0  0  0  0  0  0  0  0  0
   65.2980  -41.3120   15.8650 C   0  0  0  0  0  3  0  0  0  0  0  0
   65.6220  -42.4280   16.8200 C   0  0  0  0  0  2  0  0  0  0  0  0
   66.4540  -42.2300   15.5830 C   0  0  0  0  0  2  0  0  0  0  0  0
   64.2250  -40.8120   13.6970 O   0  0  0  0  0  0  0  0  0  0  0  0
   65.0490  -40.2790   13.7340 H   0  0  0  0  0  0  0  0  0  0  0  0
  1  2  1  0  0  0  0
  2  3  2  0  0  0  0
  3 14  1  0  0  0  0
  4  6  1  0  0  0  0
  4  3  1  0  0  0  0
  5  1  2  0  0  0  0
  5  4  1  0  0  0  0
  6  7  1  0  0  0  0
  7  8  1  0  0  0  0
  8  9  1  0  0  0  0
  9 10  2  0  0  0  0
 11 10  1  0  0  0  0
 12 11  2  0  0  0  0
 13 12  1  0  0  0  0
 14  8  2  0  0  0  0
 14 12  1  0  0  0  0
 15  5  1  0  0  0  0
 16 15  2  0  0  0  0
 17 18  2  0  0  0  0
 17 16  1  0  0  0  0
 18 19  1  0  0  0  0
 19 20  2  0  0  0  0
 20 15  1  0  0  0  0
 21 22  1  0  0  0  0
 22 23  2  0  0  0  0
 24 23  1  0  0  0  0
 24  1  1  0  0  0  0
 25 24  2  0  0  0  0
 26 21  2  0  0  0  0
 26 25  1  0  0  0  0
 27 31  1  6  0  0  0
 27 28  1  0  0  0  0
 27 30  1  0  0  0  0
 27 21  1  0  0  0  0
 29 38  1  6  0  0  0
 29 28  1  0  0  0  0
 29 30  1  0  0  0  0
 29 35  1  0  0  0  0
 32 31  1  0  0  0  0
 33 31  1  0  0  0  0
 34 31  1  0  0  0  0
 35 36  1  0  0  0  0
 37 35  1  0  0  0  0
 37 36  1  0  0  0  0
 38 39  1  0  0  0  0
M  END
>  <minimizedAffinity>
-4.0936904

$$$$

 OpenBabel11232419383D

 39 45  0  0  1  0  0  0  0  0999 V2000
   60.0790  -42.4680   16.9700 C   0  0  0  0  0  0  0  0  0  0  0  0
   61.3400  -42.2530   17.4850 N   0  0  0  0  0  0  0  0  0  0  0  0
   62.1760  -42.4980   16.5040 C   0  0  0  0  0  0  0  0  0  0  0  0
   61.4970  -42.8420   15.3680 N   0  0  0  0  0  0  0  0  0  0  0  0
   60.1450  -42.8190   15.6260 C   0  0  0  0  0  0  0  0  0  0  0  0
   62.1880  -43.0250   14.1060 C   0  0  0  0  0  2  0  0  0  0  0  0
   63.5400  -43.5020   14.2720 O   0  0  0  0  0  0  0  0  0  0  0  0
   64.2450  -42.9790   15.3270 C   0  0  0  0  0  0  0  0  0  0  0  0
   65.6380  -43.0420   15.2470 C   0  0  0  0  0  3  0  0  0  0  0  0
   66.4170  -42.5600   16.3000 C   0  0  0  0  0  3  0  0  0  0  0  0
   65.8010  -42.0290   17.4350 C   0  0  0  0  0  3  0  0  0  0  0  0
   64.4100  -41.9890   17.5170 C   0  0  0  0  0  0  0  0  0  0  0  0
   63.8550  -41.4770   18.6270 F   0  0  0  0  0  0  0  0  0  0  0  0
   63.6210  -42.4660   16.4720 C   0  0  0  0  0  0  0  0  0  0  0  0
   59.1230  -43.0530   14.6150 C   0  0  0  0  0  0  0  0  0  0  0  0
   58.7470  -42.0290   13.7370 C   0  0  0  0  0  3  0  0  0  0  0  0
   57.7580  -42.2550   12.7760 C   0  0  0  0  0  3  0  0  0  0  0  0
   57.1420  -43.5030   12.6910 C   0  0  0  0  0  3  0  0  0  0  0  0
   57.5150  -44.5260   13.5610 C   0  0  0  0  0  3  0  0  0  0  0  0
   58.5040  -44.3030   14.5200 C   0  0  0  0  0  3  0  0  0  0  0  0
   56.4710  -42.0960   19.3130 C   0  0  0  0  0  0  0  0  0  0  0  0
   57.0630  -43.3410   19.0240 C   0  0  0  0  0  3  0  0  0  0  0  0
   58.2450  -43.4450   18.2820 C   0  0  0  0  0  3  0  0  0  0  0  0
   58.8990  -42.3050   17.8060 C   0  0  0  0  0  0  0  0  0  0  0  0
   58.3440  -41.0580   18.0940 C   0  0  0  0  0  3  0  0  0  0  0  0
   57.1580  -40.9600   18.8350 C   0  0  0  0  0  3  0  0  0  0  0  0
   55.1200  -41.9810   20.1150 C   0  0  2  0  0  0  0  0  0  0  0  0
   55.1550  -41.8230   21.6630 C   0  0  0  0  0  2  0  0  0  0  0  0
   53.7990  -42.6110   21.7120 C   0  0  1  0  0  0  0  0  0  0  0  0
   54.2770  -43.2680   20.3690 C   0  0  0  0  0  2  0  0  0  0  0  0
   54.3080  -40.9080   19.4880 N   0  0  0  0  0  4  0  0  0  0  0  0
   54.0820  -41.1130   18.5100 H   0  0  0  0  0  0  0  0  0  0  0  0
   54.7870  -40.0010   19.5160 H   0  0  0  0  0  0  0  0  0  0  0  0
   53.4110  -40.8000   20.0050 H   0  0  0  0  0  0  0  0  0  0  0  0
   53.5920  -43.4800   22.9360 C   0  0  0  0  0  3  0  0  0  0  0  0
   52.6190  -44.6260   22.9790 C   0  0  0  0  0  2  0  0  0  0  0  0
   54.0940  -44.8860   23.1150 C   0  0  0  0  0  2  0  0  0  0  0  0
   52.6630  -41.7260   21.4660 O   0  0  0  0  0  0  0  0  0  0  0  0
   51.8980  -42.1910   21.8670 H   0  0  0  0  0  0  0  0  0  0  0  0
  1  2  1  0  0  0  0
  1 24  1  0  0  0  0
  3  2  2  0  0  0  0
  4  5  1  0  0  0  0
  4  3  1  0  0  0  0
  5  1  2  0  0  0  0
  6  7  1  0  0  0  0
  6  4  1  0  0  0  0
  7  8  1  0  0  0  0
  8 14  1  0  0  0  0
  9  8  2  0  0  0  0
  9 10  1  0  0  0  0
 10 11  2  0  0  0  0
 11 12  1  0  0  0  0
 12 13  1  0  0  0  0
 14  3  1  0  0  0  0
 14 12  2  0  0  0  0
 15  5  1  0  0  0  0
 16 15  2  0  0  0  0
 17 16  1  0  0  0  0
 18 17  2  0  0  0  0
 18 19  1  0  0  0  0
 19 20  2  0  0  0  0
 20 15  1  0  0  0  0
 21 27  1  0  0  0  0
 22 21  1  0  0  0  0
 23 22  2  0  0  0  0
 24 25  2  0  0  0  0
 24 23  1  0  0  0  0
 25 26  1  0  0  0  0
 26 21  2  0  0  0  0
 27 31  1  6  0  0  0
 27 30  1  0  0  0  0
 27 28  1  0  0  0  0
 28 29  1  0  0  0  0
 29 38  1  6  0  0  0
 29 35  1  0  0  0  0
 30 29  1  0  0  0  0
 31 33  1  0  0  0  0
 31 34  1  0  0  0  0
 32 31  1  0  0  0  0
 35 36  1  0  0  0  0
 35 37  1  0  0  0  0
 36 37  1  0  0  0  0
 38 39  1  0  0  0  0
M  END
>  <minimizedAffinity>
-4.08658695

$$$$

 OpenBabel11232419383D

 39 45  0  0  1  0  0  0  0  0999 V2000
   57.3400  -43.0680   18.2490 C   0  0  0  0  0  0  0  0  0  0  0  0
   57.0810  -43.6070   19.4920 N   0  0  0  0  0  0  0  0  0  0  0  0
   55.7830  -43.7930   19.5410 C   0  0  0  0  0  0  0  0  0  0  0  0
   55.1990  -43.4140   18.3640 N   0  0  0  0  0  0  0  0  0  0  0  0
   56.1710  -42.9560   17.5030 C   0  0  0  0  0  0  0  0  0  0  0  0
   53.7900  -43.6520   18.1140 C   0  0  0  0  0  2  0  0  0  0  0  0
   52.9950  -43.6240   19.3190 O   0  0  0  0  0  0  0  0  0  0  0  0
   53.5600  -44.1900   20.4350 C   0  0  0  0  0  0  0  0  0  0  0  0
   52.6870  -44.5980   21.4440 C   0  0  0  0  0  3  0  0  0  0  0  0
   53.1950  -45.1510   22.6210 C   0  0  0  0  0  3  0  0  0  0  0  0
   54.5750  -45.2810   22.7890 C   0  0  0  0  0  3  0  0  0  0  0  0
   55.4420  -44.8520   21.7850 C   0  0  0  0  0  0  0  0  0  0  0  0
   56.7620  -44.9880   21.9860 F   0  0  0  0  0  0  0  0  0  0  0  0
   54.9470  -44.3000   20.6050 C   0  0  0  0  0  0  0  0  0  0  0  0
   55.9110  -42.5500   16.1300 C   0  0  0  0  0  0  0  0  0  0  0  0
   56.6860  -43.0600   15.0800 C   0  0  0  0  0  3  0  0  0  0  0  0
   56.4410  -42.6590   13.7660 C   0  0  0  0  0  3  0  0  0  0  0  0
   55.4220  -41.7460   13.4940 C   0  0  0  0  0  3  0  0  0  0  0  0
   54.6450  -41.2380   14.5340 C   0  0  0  0  0  3  0  0  0  0  0  0
   54.8870  -41.6400   15.8490 C   0  0  0  0  0  3  0  0  0  0  0  0
   61.2880  -41.8930   16.9570 C   0  0  0  0  0  0  0  0  0  0  0  0
   60.3490  -40.9710   17.4600 C   0  0  0  0  0  3  0  0  0  0  0  0
   59.0800  -41.3700   17.8960 C   0  0  0  0  0  3  0  0  0  0  0  0
   58.6970  -42.7140   17.8630 C   0  0  0  0  0  0  0  0  0  0  0  0
   59.6150  -43.6500   17.3860 C   0  0  0  0  0  3  0  0  0  0  0  0
   60.8840  -43.2440   16.9480 C   0  0  0  0  0  3  0  0  0  0  0  0
   62.7020  -41.4380   16.4300 C   0  0  2  0  0  0  0  0  0  0  0  0
   62.7970  -40.5180   15.1780 C   0  0  0  0  0  2  0  0  0  0  0  0
   64.1580  -41.2220   14.8410 C   0  0  1  0  0  0  0  0  0  0  0  0
   63.5720  -42.4510   15.6240 C   0  0  0  0  0  2  0  0  0  0  0  0
   63.4500  -40.8600   17.5750 N   0  0  0  0  0  4  0  0  0  0  0  0
   63.5930  -41.5410   18.3280 H   0  0  0  0  0  0  0  0  0  0  0  0
   62.9690  -40.0470   17.9730 H   0  0  0  0  0  0  0  0  0  0  0  0
   64.3870  -40.5400   17.2540 H   0  0  0  0  0  0  0  0  0  0  0  0
   64.4750  -41.3610   13.3650 C   0  0  0  0  0  3  0  0  0  0  0  0
   65.0560  -42.6090   12.7590 C   0  0  0  0  0  2  0  0  0  0  0  0
   63.6800  -42.1500   12.3630 C   0  0  0  0  0  2  0  0  0  0  0  0
   65.2630  -40.6270   15.5880 O   0  0  0  0  0  0  0  0  0  0  0  0
   66.0620  -40.8530   15.0660 H   0  0  0  0  0  0  0  0  0  0  0  0
  1  2  1  0  0  0  0
  2  3  2  0  0  0  0
  3 14  1  0  0  0  0
  4  3  1  0  0  0  0
  5  1  2  0  0  0  0
  5  4  1  0  0  0  0
  6  4  1  0  0  0  0
  6  7  1  0  0  0  0
  7  8  1  0  0  0  0
  8 14  2  0  0  0  0
  8  9  1  0  0  0  0
  9 10  2  0  0  0  0
 10 11  1  0  0  0  0
 12 13  1  0  0  0  0
 12 11  2  0  0  0  0
 14 12  1  0  0  0  0
 15  5  1  0  0  0  0
 16 15  2  0  0  0  0
 17 16  1  0  0  0  0
 18 17  2  0  0  0  0
 18 19  1  0  0  0  0
 19 20  2  0  0  0  0
 20 15  1  0  0  0  0
 21 22  1  0  0  0  0
 22 23  2  0  0  0  0
 24 23  1  0  0  0  0
 24  1  1  0  0  0  0
 25 24  2  0  0  0  0
 26 21  2  0  0  0  0
 26 25  1  0  0  0  0
 27 21  1  0  0  0  0
 27 31  1  1  0  0  0
 28 27  1  0  0  0  0
 29 28  1  0  0  0  0
 29 38  1  1  0  0  0
 29 30  1  0  0  0  0
 30 27  1  0  0  0  0
 31 33  1  0  0  0  0
 31 32  1  0  0  0  0
 34 31  1  0  0  0  0
 35 29  1  0  0  0  0
 36 35  1  0  0  0  0
 37 36  1  0  0  0  0
 37 35  1  0  0  0  0
 39 38  1  0  0  0  0
M  END
>  <minimizedAffinity>
-4.03636837

$$$$

 OpenBabel11232419383D

 39 45  0  0  1  0  0  0  0  0999 V2000
   57.9550  -42.4430   17.5460 C   0  0  0  0  0  0  0  0  0  0  0  0
   57.3950  -42.1540   18.7740 N   0  0  0  0  0  0  0  0  0  0  0  0
   56.0990  -42.2840   18.6180 C   0  0  0  0  0  0  0  0  0  0  0  0
   55.8040  -42.6670   17.3390 N   0  0  0  0  0  0  0  0  0  0  0  0
   56.9740  -42.7940   16.6240 C   0  0  0  0  0  0  0  0  0  0  0  0
   54.4500  -43.0140   16.9510 C   0  0  0  0  0  2  0  0  0  0  0  0
   53.4510  -42.2910   17.7020 O   0  0  0  0  0  0  0  0  0  0  0  0
   53.7140  -42.0950   19.0350 C   0  0  0  0  0  0  0  0  0  0  0  0
   52.6190  -41.8410   19.8620 C   0  0  0  0  0  3  0  0  0  0  0  0
   52.8160  -41.5980   21.2230 C   0  0  0  0  0  3  0  0  0  0  0  0
   54.1100  -41.5990   21.7480 C   0  0  0  0  0  3  0  0  0  0  0  0
   55.2010  -41.8330   20.9130 C   0  0  0  0  0  0  0  0  0  0  0  0
   56.4280  -41.8190   21.4540 F   0  0  0  0  0  0  0  0  0  0  0  0
   55.0160  -42.0770   19.5530 C   0  0  0  0  0  0  0  0  0  0  0  0
   57.0370  -43.2690   15.2490 C   0  0  0  0  0  0  0  0  0  0  0  0
   56.8020  -42.3910   14.1840 C   0  0  0  0  0  3  0  0  0  0  0  0
   56.8520  -42.8530   12.8670 C   0  0  0  0  0  3  0  0  0  0  0  0
   57.1340  -44.1940   12.6100 C   0  0  0  0  0  3  0  0  0  0  0  0
   57.3720  -45.0720   13.6660 C   0  0  0  0  0  3  0  0  0  0  0  0
   57.3260  -44.6110   14.9830 C   0  0  0  0  0  3  0  0  0  0  0  0
   62.1970  -42.1170   16.8110 C   0  0  0  0  0  0  0  0  0  0  0  0
   61.3880  -40.9990   17.0970 C   0  0  0  0  0  3  0  0  0  0  0  0
   60.0180  -41.1220   17.3550 C   0  0  0  0  0  3  0  0  0  0  0  0
   59.3950  -42.3740   17.3540 C   0  0  0  0  0  0  0  0  0  0  0  0
   60.1770  -43.4990   17.0920 C   0  0  0  0  0  3  0  0  0  0  0  0
   61.5490  -43.3700   16.8310 C   0  0  0  0  0  3  0  0  0  0  0  0
   63.7310  -41.9740   16.4820 C   0  0  2  0  0  0  0  0  0  0  0  0
   64.1880  -41.0030   15.3550 C   0  0  0  0  0  2  0  0  0  0  0  0
   65.3830  -41.9830   15.0810 C   0  0  1  0  0  0  0  0  0  0  0  0
   64.4390  -43.0950   15.6620 C   0  0  0  0  0  2  0  0  0  0  0  0
   64.4440  -41.6880   17.7530 N   0  0  0  0  0  4  0  0  0  0  0  0
   64.3330  -42.4430   18.4370 H   0  0  0  0  0  0  0  0  0  0  0  0
   64.1160  -40.8190   18.1870 H   0  0  0  0  0  0  0  0  0  0  0  0
   65.4610  -41.5770   17.5650 H   0  0  0  0  0  0  0  0  0  0  0  0
   65.8390  -42.0710   13.6390 C   0  0  0  0  0  3  0  0  0  0  0  0
   66.2910  -43.3520   12.9920 C   0  0  0  0  0  2  0  0  0  0  0  0
   65.0530  -42.6560   12.4990 C   0  0  0  0  0  2  0  0  0  0  0  0
   66.4930  -41.7340   15.9960 O   0  0  0  0  0  0  0  0  0  0  0  0
   67.2780  -42.1020   15.5360 H   0  0  0  0  0  0  0  0  0  0  0  0
  1  2  1  0  0  0  0
  3  2  2  0  0  0  0
  3 14  1  0  0  0  0
  4  3  1  0  0  0  0
  5  4  1  0  0  0  0
  5  1  2  0  0  0  0
  6  4  1  0  0  0  0
  6  7  1  0  0  0  0
  7  8  1  0  0  0  0
  8 14  2  0  0  0  0
  8  9  1  0  0  0  0
  9 10  2  0  0  0  0
 10 11  1  0  0  0  0
 12 13  1  0  0  0  0
 12 11  2  0  0  0  0
 14 12  1  0  0  0  0
 15  5  1  0  0  0  0
 16 15  2  0  0  0  0
 17 16  1  0  0  0  0
 18 17  2  0  0  0  0
 18 19  1  0  0  0  0
 19 20  2  0  0  0  0
 20 15  1  0  0  0  0
 21 26  2  0  0  0  0
 21 22  1  0  0  0  0
 22 23  2  0  0  0  0
 24 23  1  0  0  0  0
 24  1  1  0  0  0  0
 25 24  2  0  0  0  0
 26 25  1  0  0  0  0
 27 21  1  0  0  0  0
 27 31  1  1  0  0  0
 28 27  1  0  0  0  0
 29 28  1  0  0  0  0
 29 30  1  0  0  0  0
 29 38  1  1  0  0  0
 30 27  1  0  0  0  0
 31 33  1  0  0  0  0
 31 32  1  0  0  0  0
 34 31  1  0  0  0  0
 35 29  1  0  0  0  0
 36 35  1  0  0  0  0
 37 36  1  0  0  0  0
 37 35  1  0  0  0  0
 39 38  1  0  0  0  0
M  END
>  <minimizedAffinity>
-3.56501126

$$$$

 OpenBabel11232419383D

 39 45  0  0  1  0  0  0  0  0999 V2000
   56.5720  -42.5470   17.5630 C   0  0  0  0  0  0  0  0  0  0  0  0
   56.4790  -42.4620   18.9370 N   0  0  0  0  0  0  0  0  0  0  0  0
   55.2400  -42.1150   19.1930 C   0  0  0  0  0  0  0  0  0  0  0  0
   54.5250  -41.9940   18.0340 N   0  0  0  0  0  0  0  0  0  0  0  0
   55.3450  -42.2790   16.9660 C   0  0  0  0  0  0  0  0  0  0  0  0
   53.0940  -41.7560   18.0550 C   0  0  0  0  0  2  0  0  0  0  0  0
   52.6700  -40.9990   19.2090 O   0  0  0  0  0  0  0  0  0  0  0  0
   53.2960  -41.2940   20.3950 C   0  0  0  0  0  0  0  0  0  0  0  0
   52.6190  -40.9510   21.5670 C   0  0  0  0  0  3  0  0  0  0  0  0
   53.2120  -41.1910   22.8080 C   0  0  0  0  0  3  0  0  0  0  0  0
   54.4840  -41.7610   22.8720 C   0  0  0  0  0  3  0  0  0  0  0  0
   55.1630  -42.0830   21.6970 C   0  0  0  0  0  0  0  0  0  0  0  0
   56.3860  -42.6240   21.8000 F   0  0  0  0  0  0  0  0  0  0  0  0
   54.5820  -41.8490   20.4520 C   0  0  0  0  0  0  0  0  0  0  0  0
   54.8880  -42.3280   15.5840 C   0  0  0  0  0  0  0  0  0  0  0  0
   54.7310  -41.1490   14.8460 C   0  0  0  0  0  3  0  0  0  0  0  0
   54.2820  -41.2000   13.5250 C   0  0  0  0  0  3  0  0  0  0  0  0
   53.9860  -42.4290   12.9370 C   0  0  0  0  0  3  0  0  0  0  0  0
   54.1430  -43.6070   13.6660 C   0  0  0  0  0  3  0  0  0  0  0  0
   54.5940  -43.5580   14.9860 C   0  0  0  0  0  3  0  0  0  0  0  0
   60.4060  -43.4350   15.7870 C   0  0  0  0  0  0  0  0  0  0  0  0
   60.1600  -43.5690   17.1680 C   0  0  0  0  0  3  0  0  0  0  0  0
   58.9050  -43.2990   17.7270 C   0  0  0  0  0  3  0  0  0  0  0  0
   57.8320  -42.8950   16.9260 C   0  0  0  0  0  0  0  0  0  0  0  0
   58.0440  -42.7730   15.5530 C   0  0  0  0  0  3  0  0  0  0  0  0
   59.3040  -43.0420   14.9980 C   0  0  0  0  0  3  0  0  0  0  0  0
   61.8280  -43.7020   15.1640 C   0  0  2  0  0  0  0  0  0  0  0  0
   63.1000  -43.5070   16.0390 C   0  0  0  0  0  2  0  0  0  0  0  0
   63.8590  -43.0860   14.7320 C   0  0  1  0  0  0  0  0  0  0  0  0
   62.4490  -42.6390   14.2070 C   0  0  0  0  0  2  0  0  0  0  0  0
   61.8080  -45.0520   14.5460 N   0  0  0  0  0  4  0  0  0  0  0  0
   61.1120  -45.1260   13.7970 H   0  0  0  0  0  0  0  0  0  0  0  0
   61.6060  -45.7840   15.2360 H   0  0  0  0  0  0  0  0  0  0  0  0
   62.7400  -45.2620   14.1350 H   0  0  0  0  0  0  0  0  0  0  0  0
   64.9500  -42.0500   14.9140 C   0  0  0  0  0  3  0  0  0  0  0  0
   66.1620  -42.2700   15.7780 C   0  0  0  0  0  2  0  0  0  0  0  0
   66.3190  -42.0910   14.2930 C   0  0  0  0  0  2  0  0  0  0  0  0
   64.3270  -44.2550   13.9910 O   0  0  0  0  0  0  0  0  0  0  0  0
   65.0640  -43.9160   13.4390 H   0  0  0  0  0  0  0  0  0  0  0  0
  1  2  1  0  0  0  0
  2  3  2  0  0  0  0
  3 14  1  0  0  0  0
  4  6  1  0  0  0  0
  4  3  1  0  0  0  0
  5  1  2  0  0  0  0
  5  4  1  0  0  0  0
  6  7  1  0  0  0  0
  7  8  1  0  0  0  0
  8 14  2  0  0  0  0
  8  9  1  0  0  0  0
  9 10  2  0  0  0  0
 10 11  1  0  0  0  0
 12 13  1  0  0  0  0
 12 11  2  0  0  0  0
 14 12  1  0  0  0  0
 15  5  1  0  0  0  0
 16 15  2  0  0  0  0
 17 16  1  0  0  0  0
 18 17  2  0  0  0  0
 18 19  1  0  0  0  0
 19 20  2  0  0  0  0
 20 15  1  0  0  0  0
 21 22  1  0  0  0  0
 22 23  2  0  0  0  0
 24  1  1  0  0  0  0
 24 23  1  0  0  0  0
 25 24  2  0  0  0  0
 26 25  1  0  0  0  0
 26 21  2  0  0  0  0
 27 31  1  6  0  0  0
 27 21  1  0  0  0  0
 27 28  1  0  0  0  0
 29 38  1  6  0  0  0
 29 35  1  0  0  0  0
 29 28  1  0  0  0  0
 30 29  1  0  0  0  0
 30 27  1  0  0  0  0
 31 33  1  0  0  0  0
 32 31  1  0  0  0  0
 34 31  1  0  0  0  0
 35 36  1  0  0  0  0
 37 35  1  0  0  0  0
 37 36  1  0  0  0  0
 39 38  1  0  0  0  0
M  END
>  <minimizedAffinity>
-2.87291384

$$$$

 OpenBabel11232419383D

 39 45  0  0  1  0  0  0  0  0999 V2000
   57.3440  -41.0930   17.5470 C   0  0  0  0  0  0  0  0  0  0  0  0
   56.8780  -39.9160   18.0930 N   0  0  0  0  0  0  0  0  0  0  0  0
   55.6620  -39.7590   17.6260 C   0  0  0  0  0  0  0  0  0  0  0  0
   55.3200  -40.8060   16.8150 N   0  0  0  0  0  0  0  0  0  0  0  0
   56.3720  -41.6910   16.7530 C   0  0  0  0  0  0  0  0  0  0  0  0
   53.9760  -40.9390   16.2870 C   0  0  0  0  0  2  0  0  0  0  0  0
   53.3270  -39.6650   16.0800 O   0  0  0  0  0  0  0  0  0  0  0  0
   53.5580  -38.7020   17.0310 C   0  0  0  0  0  0  0  0  0  0  0  0
   52.6190  -37.6730   17.1250 C   0  0  0  0  0  3  0  0  0  0  0  0
   52.8090  -36.6420   18.0470 C   0  0  0  0  0  3  0  0  0  0  0  0
   53.9420  -36.6380   18.8620 C   0  0  0  0  0  3  0  0  0  0  0  0
   54.8850  -37.6580   18.7480 C   0  0  0  0  0  0  0  0  0  0  0  0
   55.9650  -37.6150   19.5440 F   0  0  0  0  0  0  0  0  0  0  0  0
   54.7080  -38.6930   17.8320 C   0  0  0  0  0  0  0  0  0  0  0  0
   56.3200  -42.9620   16.0440 C   0  0  0  0  0  0  0  0  0  0  0  0
   56.7160  -43.0430   14.7030 C   0  0  0  0  0  3  0  0  0  0  0  0
   56.6550  -44.2620   14.0240 C   0  0  0  0  0  3  0  0  0  0  0  0
   56.1960  -45.4030   14.6810 C   0  0  0  0  0  3  0  0  0  0  0  0
   55.8030  -45.3290   16.0170 C   0  0  0  0  0  3  0  0  0  0  0  0
   55.8670  -44.1120   16.6980 C   0  0  0  0  0  3  0  0  0  0  0  0
   61.4080  -42.3410   18.3070 C   0  0  0  0  0  0  0  0  0  0  0  0
   60.9220  -41.0700   18.6760 C   0  0  0  0  0  3  0  0  0  0  0  0
   59.5960  -40.6880   18.4430 C   0  0  0  0  0  3  0  0  0  0  0  0
   58.6880  -41.5660   17.8430 C   0  0  0  0  0  0  0  0  0  0  0  0
   59.1380  -42.8370   17.4850 C   0  0  0  0  0  3  0  0  0  0  0  0
   60.4690  -43.2140   17.7170 C   0  0  0  0  0  3  0  0  0  0  0  0
   62.9100  -42.7570   18.5340 C   0  0  2  0  0  0  0  0  0  0  0  0
   64.0190  -41.6650   18.5310 C   0  0  0  0  0  2  0  0  0  0  0  0
   64.9950  -42.7460   17.9450 C   0  0  1  0  0  0  0  0  0  0  0  0
   63.7000  -43.4160   17.3620 C   0  0  0  0  0  2  0  0  0  0  0  0
   62.9730  -43.5790   19.7690 N   0  0  0  0  0  4  0  0  0  0  0  0
   62.4120  -44.4330   19.6950 H   0  0  0  0  0  0  0  0  0  0  0  0
   62.6460  -43.0580   20.5910 H   0  0  0  0  0  0  0  0  0  0  0  0
   63.9580  -43.8600   19.9520 H   0  0  0  0  0  0  0  0  0  0  0  0
   66.0550  -42.2230   16.9970 C   0  0  0  0  0  3  0  0  0  0  0  0
   66.4610  -42.9380   15.7370 C   0  0  0  0  0  2  0  0  0  0  0  0
   65.8060  -41.5860   15.6590 C   0  0  0  0  0  2  0  0  0  0  0  0
   65.5610  -43.5780   19.0030 O   0  0  0  0  0  0  0  0  0  0  0  0
   66.3870  -43.9400   18.6140 H   0  0  0  0  0  0  0  0  0  0  0  0
  1 24  1  0  0  0  0
  1  2  1  0  0  0  0
  3 14  1  0  0  0  0
  3  2  2  0  0  0  0
  4  3  1  0  0  0  0
  5  4  1  0  0  0  0
  5  1  2  0  0  0  0
  6  4  1  0  0  0  0
  7  6  1  0  0  0  0
  7  8  1  0  0  0  0
  8  9  2  0  0  0  0
  8 14  1  0  0  0  0
  9 10  1  0  0  0  0
 10 11  2  0  0  0  0
 12 11  1  0  0  0  0
 12 13  1  0  0  0  0
 14 12  2  0  0  0  0
 15 20  1  0  0  0  0
 15  5  1  0  0  0  0
 16 15  2  0  0  0  0
 17 18  2  0  0  0  0
 17 16  1  0  0  0  0
 18 19  1  0  0  0  0
 19 20  2  0  0  0  0
 21 27  1  0  0  0  0
 21 22  1  0  0  0  0
 23 22  2  0  0  0  0
 24 23  1  0  0  0  0
 25 26  1  0  0  0  0
 25 24  2  0  0  0  0
 26 21  2  0  0  0  0
 27 31  1  1  0  0  0
 28 27  1  0  0  0  0
 29 28  1  0  0  0  0
 29 38  1  1  0  0  0
 30 29  1  0  0  0  0
 30 27  1  0  0  0  0
 31 34  1  0  0  0  0
 31 33  1  0  0  0  0
 32 31  1  0  0  0  0
 35 29  1  0  0  0  0
 36 35  1  0  0  0  0
 37 36  1  0  0  0  0
 37 35  1  0  0  0  0
 39 38  1  0  0  0  0
M  END
>  <minimizedAffinity>
-2.69415689

$$$$

 OpenBabel11232419383D

 39 45  0  0  1  0  0  0  0  0999 V2000
   56.7760  -41.8930   16.4290 C   0  0  0  0  0  0  0  0  0  0  0  0
   56.6940  -42.8390   15.4280 N   0  0  0  0  0  0  0  0  0  0  0  0
   55.4240  -42.9140   15.1060 C   0  0  0  0  0  0  0  0  0  0  0  0
   54.6870  -42.0330   15.8490 N   0  0  0  0  0  0  0  0  0  0  0  0
   55.5250  -41.3490   16.7000 C   0  0  0  0  0  0  0  0  0  0  0  0
   53.2770  -41.8230   15.5840 C   0  0  0  0  0  2  0  0  0  0  0  0
   52.6240  -43.0010   15.0620 O   0  0  0  0  0  0  0  0  0  0  0  0
   53.3470  -43.7530   14.1700 C   0  0  0  0  0  0  0  0  0  0  0  0
   52.6210  -44.5860   13.3160 C   0  0  0  0  0  3  0  0  0  0  0  0
   53.2930  -45.4040   12.4070 C   0  0  0  0  0  3  0  0  0  0  0  0
   54.6890  -45.3960   12.3630 C   0  0  0  0  0  3  0  0  0  0  0  0
   55.4070  -44.5770   13.2330 C   0  0  0  0  0  0  0  0  0  0  0  0
   56.7470  -44.6020   13.1660 F   0  0  0  0  0  0  0  0  0  0  0  0
   54.7480  -43.7550   14.1450 C   0  0  0  0  0  0  0  0  0  0  0  0
   55.0860  -40.2720   17.5770 C   0  0  0  0  0  0  0  0  0  0  0  0
   55.3970  -38.9410   17.2770 C   0  0  0  0  0  3  0  0  0  0  0  0
   54.9840  -37.9130   18.1260 C   0  0  0  0  0  3  0  0  0  0  0  0
   54.2600  -38.2110   19.2800 C   0  0  0  0  0  3  0  0  0  0  0  0
   53.9440  -39.5350   19.5830 C   0  0  0  0  0  3  0  0  0  0  0  0
   54.3540  -40.5640   18.7330 C   0  0  0  0  0  3  0  0  0  0  0  0
   60.6220  -41.1400   18.2410 C   0  0  0  0  0  0  0  0  0  0  0  0
   60.4850  -41.7150   16.9620 C   0  0  0  0  0  3  0  0  0  0  0  0
   59.2320  -41.9330   16.3780 C   0  0  0  0  0  3  0  0  0  0  0  0
   58.0550  -41.5710   17.0420 C   0  0  0  0  0  0  0  0  0  0  0  0
   58.1640  -40.9830   18.3020 C   0  0  0  0  0  3  0  0  0  0  0  0
   59.4220  -40.7690   18.8830 C   0  0  0  0  0  3  0  0  0  0  0  0
   62.0310  -40.9300   18.9140 C   0  0  2  0  0  0  0  0  0  0  0  0
   63.2270  -40.4290   18.0540 C   0  0  0  0  0  2  0  0  0  0  0  0
   64.1700  -41.2650   18.9890 C   0  0  1  0  0  0  0  0  0  0  0  0
   62.9140  -42.1760   19.2290 C   0  0  0  0  0  2  0  0  0  0  0  0
   61.8400  -40.0750   20.1130 N   0  0  0  0  0  4  0  0  0  0  0  0
   61.2170  -40.5070   20.8030 H   0  0  0  0  0  0  0  0  0  0  0  0
   61.4500  -39.1580   19.8680 H   0  0  0  0  0  0  0  0  0  0  0  0
   62.7570  -39.9090   20.5730 H   0  0  0  0  0  0  0  0  0  0  0  0
   65.3990  -41.8500   18.3240 C   0  0  0  0  0  3  0  0  0  0  0  0
   65.5420  -43.3100   17.9910 C   0  0  0  0  0  2  0  0  0  0  0  0
   65.5020  -42.2870   16.8890 C   0  0  0  0  0  2  0  0  0  0  0  0
   64.4990  -40.5280   20.2060 O   0  0  0  0  0  0  0  0  0  0  0  0
   65.3330  -40.9360   20.5220 H   0  0  0  0  0  0  0  0  0  0  0  0
  1  5  2  0  0  0  0
  1 24  1  0  0  0  0
  2  1  1  0  0  0  0
  3  2  2  0  0  0  0
  3  4  1  0  0  0  0
  4  5  1  0  0  0  0
  5 15  1  0  0  0  0
  6  4  1  0  0  0  0
  7  6  1  0  0  0  0
  8  7  1  0  0  0  0
  9  8  2  0  0  0  0
 10  9  1  0  0  0  0
 11 10  2  0  0  0  0
 11 12  1  0  0  0  0
 12 14  2  0  0  0  0
 13 12  1  0  0  0  0
 14  8  1  0  0  0  0
 14  3  1  0  0  0  0
 15 20  1  0  0  0  0
 16 15  2  0  0  0  0
 16 17  1  0  0  0  0
 17 18  2  0  0  0  0
 18 19  1  0  0  0  0
 20 19  2  0  0  0  0
 21 26  1  0  0  0  0
 21 27  1  0  0  0  0
 22 21  2  0  0  0  0
 23 22  1  0  0  0  0
 23 24  2  0  0  0  0
 24 25  1  0  0  0  0
 25 26  2  0  0  0  0
 27 30  1  0  0  0  0
 27 31  1  1  0  0  0
 28 27  1  0  0  0  0
 28 29  1  0  0  0  0
 29 30  1  0  0  0  0
 29 38  1  1  0  0  0
 31 34  1  0  0  0  0
 31 32  1  0  0  0  0
 33 31  1  0  0  0  0
 35 29  1  0  0  0  0
 36 35  1  0  0  0  0
 37 36  1  0  0  0  0
 37 35  1  0  0  0  0
 38 39  1  0  0  0  0
M  END
>  <minimizedAffinity>
-2.64433956

$$$$
