
 OpenBabel11232419383D

 39 45  0  0  1  0  0  0  0  0999 V2000
   57.3400  -43.0680   18.2490 C   0  0  0  0  0  0  0  0  0  0  0  0
   57.0810  -43.6070   19.4920 N   0  0  0  0  0  0  0  0  0  0  0  0
   55.7830  -43.7930   19.5410 C   0  0  0  0  0  0  0  0  0  0  0  0
   55.1990  -43.4140   18.3640 N   0  0  0  0  0  0  0  0  0  0  0  0
   56.1710  -42.9560   17.5030 C   0  0  0  0  0  0  0  0  0  0  0  0
   53.7900  -43.6520   18.1140 C   0  0  0  0  0  2  0  0  0  0  0  0
   52.9950  -43.6240   19.3190 O   0  0  0  0  0  0  0  0  0  0  0  0
   53.5600  -44.1900   20.4350 C   0  0  0  0  0  0  0  0  0  0  0  0
   52.6870  -44.5980   21.4440 C   0  0  0  0  0  3  0  0  0  0  0  0
   53.1950  -45.1510   22.6210 C   0  0  0  0  0  3  0  0  0  0  0  0
   54.5750  -45.2810   22.7890 C   0  0  0  0  0  3  0  0  0  0  0  0
   55.4420  -44.8520   21.7850 C   0  0  0  0  0  0  0  0  0  0  0  0
   56.7620  -44.9880   21.9860 F   0  0  0  0  0  0  0  0  0  0  0  0
   54.9470  -44.3000   20.6050 C   0  0  0  0  0  0  0  0  0  0  0  0
   55.9110  -42.5500   16.1300 C   0  0  0  0  0  0  0  0  0  0  0  0
   56.6860  -43.0600   15.0800 C   0  0  0  0  0  3  0  0  0  0  0  0
   56.4410  -42.6590   13.7660 C   0  0  0  0  0  3  0  0  0  0  0  0
   55.4220  -41.7460   13.4940 C   0  0  0  0  0  3  0  0  0  0  0  0
   54.6450  -41.2380   14.5340 C   0  0  0  0  0  3  0  0  0  0  0  0
   54.8870  -41.6400   15.8490 C   0  0  0  0  0  3  0  0  0  0  0  0
   61.2880  -41.8930   16.9570 C   0  0  0  0  0  0  0  0  0  0  0  0
   60.3490  -40.9710   17.4600 C   0  0  0  0  0  3  0  0  0  0  0  0
   59.0800  -41.3700   17.8960 C   0  0  0  0  0  3  0  0  0  0  0  0
   58.6970  -42.7140   17.8630 C   0  0  0  0  0  0  0  0  0  0  0  0
   59.6150  -43.6500   17.3860 C   0  0  0  0  0  3  0  0  0  0  0  0
   60.8840  -43.2440   16.9480 C   0  0  0  0  0  3  0  0  0  0  0  0
   62.7020  -41.4380   16.4300 C   0  0  2  0  0  0  0  0  0  0  0  0
   62.7970  -40.5180   15.1780 C   0  0  0  0  0  2  0  0  0  0  0  0
   64.1580  -41.2220   14.8410 C   0  0  1  0  0  0  0  0  0  0  0  0
   63.5720  -42.4510   15.6240 C   0  0  0  0  0  2  0  0  0  0  0  0
   63.4500  -40.8600   17.5750 N   0  0  0  0  0  4  0  0  0  0  0  0
   63.5930  -41.5410   18.3280 H   0  0  0  0  0  0  0  0  0  0  0  0
   62.9690  -40.0470   17.9730 H   0  0  0  0  0  0  0  0  0  0  0  0
   64.3870  -40.5400   17.2540 H   0  0  0  0  0  0  0  0  0  0  0  0
   64.4750  -41.3610   13.3650 C   0  0  0  0  0  3  0  0  0  0  0  0
   65.0560  -42.6090   12.7590 C   0  0  0  0  0  2  0  0  0  0  0  0
   63.6800  -42.1500   12.3630 C   0  0  0  0  0  2  0  0  0  0  0  0
   65.2630  -40.6270   15.5880 O   0  0  0  0  0  0  0  0  0  0  0  0
   66.0620  -40.8530   15.0660 H   0  0  0  0  0  0  0  0  0  0  0  0
  1  2  1  0  0  0  0
  2  3  2  0  0  0  0
  3 14  1  0  0  0  0
  4  3  1  0  0  0  0
  5  1  2  0  0  0  0
  5  4  1  0  0  0  0
  6  4  1  0  0  0  0
  6  7  1  0  0  0  0
  7  8  1  0  0  0  0
  8 14  2  0  0  0  0
  8  9  1  0  0  0  0
  9 10  2  0  0  0  0
 10 11  1  0  0  0  0
 12 13  1  0  0  0  0
 12 11  2  0  0  0  0
 14 12  1  0  0  0  0
 15  5  1  0  0  0  0
 16 15  2  0  0  0  0
 17 16  1  0  0  0  0
 18 17  2  0  0  0  0
 18 19  1  0  0  0  0
 19 20  2  0  0  0  0
 20 15  1  0  0  0  0
 21 22  1  0  0  0  0
 22 23  2  0  0  0  0
 24 23  1  0  0  0  0
 24  1  1  0  0  0  0
 25 24  2  0  0  0  0
 26 21  2  0  0  0  0
 26 25  1  0  0  0  0
 27 21  1  0  0  0  0
 27 31  1  1  0  0  0
 28 27  1  0  0  0  0
 29 28  1  0  0  0  0
 29 38  1  1  0  0  0
 29 30  1  0  0  0  0
 30 27  1  0  0  0  0
 31 33  1  0  0  0  0
 31 32  1  0  0  0  0
 34 31  1  0  0  0  0
 35 29  1  0  0  0  0
 36 35  1  0  0  0  0
 37 36  1  0  0  0  0
 37 35  1  0  0  0  0
 39 38  1  0  0  0  0
M  END
>  <minimizedAffinity>
-4.03636837

$$$$
