
 OpenBabel11232419383D

 39 45  0  0  1  0  0  0  0  0999 V2000
   56.7760  -41.8930   16.4290 C   0  0  0  0  0  0  0  0  0  0  0  0
   56.6940  -42.8390   15.4280 N   0  0  0  0  0  0  0  0  0  0  0  0
   55.4240  -42.9140   15.1060 C   0  0  0  0  0  0  0  0  0  0  0  0
   54.6870  -42.0330   15.8490 N   0  0  0  0  0  0  0  0  0  0  0  0
   55.5250  -41.3490   16.7000 C   0  0  0  0  0  0  0  0  0  0  0  0
   53.2770  -41.8230   15.5840 C   0  0  0  0  0  2  0  0  0  0  0  0
   52.6240  -43.0010   15.0620 O   0  0  0  0  0  0  0  0  0  0  0  0
   53.3470  -43.7530   14.1700 C   0  0  0  0  0  0  0  0  0  0  0  0
   52.6210  -44.5860   13.3160 C   0  0  0  0  0  3  0  0  0  0  0  0
   53.2930  -45.4040   12.4070 C   0  0  0  0  0  3  0  0  0  0  0  0
   54.6890  -45.3960   12.3630 C   0  0  0  0  0  3  0  0  0  0  0  0
   55.4070  -44.5770   13.2330 C   0  0  0  0  0  0  0  0  0  0  0  0
   56.7470  -44.6020   13.1660 F   0  0  0  0  0  0  0  0  0  0  0  0
   54.7480  -43.7550   14.1450 C   0  0  0  0  0  0  0  0  0  0  0  0
   55.0860  -40.2720   17.5770 C   0  0  0  0  0  0  0  0  0  0  0  0
   55.3970  -38.9410   17.2770 C   0  0  0  0  0  3  0  0  0  0  0  0
   54.9840  -37.9130   18.1260 C   0  0  0  0  0  3  0  0  0  0  0  0
   54.2600  -38.2110   19.2800 C   0  0  0  0  0  3  0  0  0  0  0  0
   53.9440  -39.5350   19.5830 C   0  0  0  0  0  3  0  0  0  0  0  0
   54.3540  -40.5640   18.7330 C   0  0  0  0  0  3  0  0  0  0  0  0
   60.6220  -41.1400   18.2410 C   0  0  0  0  0  0  0  0  0  0  0  0
   60.4850  -41.7150   16.9620 C   0  0  0  0  0  3  0  0  0  0  0  0
   59.2320  -41.9330   16.3780 C   0  0  0  0  0  3  0  0  0  0  0  0
   58.0550  -41.5710   17.0420 C   0  0  0  0  0  0  0  0  0  0  0  0
   58.1640  -40.9830   18.3020 C   0  0  0  0  0  3  0  0  0  0  0  0
   59.4220  -40.7690   18.8830 C   0  0  0  0  0  3  0  0  0  0  0  0
   62.0310  -40.9300   18.9140 C   0  0  2  0  0  0  0  0  0  0  0  0
   63.2270  -40.4290   18.0540 C   0  0  0  0  0  2  0  0  0  0  0  0
   64.1700  -41.2650   18.9890 C   0  0  1  0  0  0  0  0  0  0  0  0
   62.9140  -42.1760   19.2290 C   0  0  0  0  0  2  0  0  0  0  0  0
   61.8400  -40.0750   20.1130 N   0  0  0  0  0  4  0  0  0  0  0  0
   61.2170  -40.5070   20.8030 H   0  0  0  0  0  0  0  0  0  0  0  0
   61.4500  -39.1580   19.8680 H   0  0  0  0  0  0  0  0  0  0  0  0
   62.7570  -39.9090   20.5730 H   0  0  0  0  0  0  0  0  0  0  0  0
   65.3990  -41.8500   18.3240 C   0  0  0  0  0  3  0  0  0  0  0  0
   65.5420  -43.3100   17.9910 C   0  0  0  0  0  2  0  0  0  0  0  0
   65.5020  -42.2870   16.8890 C   0  0  0  0  0  2  0  0  0  0  0  0
   64.4990  -40.5280   20.2060 O   0  0  0  0  0  0  0  0  0  0  0  0
   65.3330  -40.9360   20.5220 H   0  0  0  0  0  0  0  0  0  0  0  0
  1  5  2  0  0  0  0
  1 24  1  0  0  0  0
  2  1  1  0  0  0  0
  3  2  2  0  0  0  0
  3  4  1  0  0  0  0
  4  5  1  0  0  0  0
  5 15  1  0  0  0  0
  6  4  1  0  0  0  0
  7  6  1  0  0  0  0
  8  7  1  0  0  0  0
  9  8  2  0  0  0  0
 10  9  1  0  0  0  0
 11 10  2  0  0  0  0
 11 12  1  0  0  0  0
 12 14  2  0  0  0  0
 13 12  1  0  0  0  0
 14  8  1  0  0  0  0
 14  3  1  0  0  0  0
 15 20  1  0  0  0  0
 16 15  2  0  0  0  0
 16 17  1  0  0  0  0
 17 18  2  0  0  0  0
 18 19  1  0  0  0  0
 20 19  2  0  0  0  0
 21 26  1  0  0  0  0
 21 27  1  0  0  0  0
 22 21  2  0  0  0  0
 23 22  1  0  0  0  0
 23 24  2  0  0  0  0
 24 25  1  0  0  0  0
 25 26  2  0  0  0  0
 27 30  1  0  0  0  0
 27 31  1  1  0  0  0
 28 27  1  0  0  0  0
 28 29  1  0  0  0  0
 29 30  1  0  0  0  0
 29 38  1  1  0  0  0
 31 34  1  0  0  0  0
 31 32  1  0  0  0  0
 33 31  1  0  0  0  0
 35 29  1  0  0  0  0
 36 35  1  0  0  0  0
 37 36  1  0  0  0  0
 37 35  1  0  0  0  0
 38 39  1  0  0  0  0
M  END
>  <minimizedAffinity>
-2.64433956

$$$$
