
 OpenBabel11232418553D

 37 41  0  0  1  0  0  0  0  0999 V2000
    7.4870   -7.9210   12.3770 C   0  0  0  0  0  0  0  0  0  0  0  0
    6.2840   -7.6750   12.4400 O   0  0  0  0  0  0  0  0  0  0  0  0
    8.0490   -8.9500   13.1340 N   0  0  0  0  0  0  0  0  0  0  0  0
    9.4570   -9.0250   13.5350 C   0  0  0  0  0  2  0  0  0  0  0  0
    9.7350   -9.8390   14.8050 C   0  0  0  0  0  2  0  0  0  0  0  0
    9.2290  -11.1960   14.6320 N   0  0  0  0  0  0  0  0  0  0  0  0
    7.8120  -11.2770   14.2230 C   0  0  1  0  0  3  0  0  0  0  0  0
    6.7270  -10.4240   14.8180 C   0  0  0  0  0  2  0  0  0  0  0  0
    7.2240  -10.1150   13.4360 C   0  0  1  0  0  3  0  0  0  0  0  0
    9.6960  -12.0490   15.6520 C   0  0  0  0  0  0  0  0  0  0  0  0
   10.4210  -11.5150   16.6520 N   0  0  0  0  0  0  0  0  0  0  0  0
   10.9190  -12.3660   17.5590 C   0  0  0  0  0  3  0  0  0  0  0  0
   10.8090  -13.6970   17.5300 N   0  0  0  0  0  0  0  0  0  0  0  0
   10.1140  -14.1930   16.5020 C   0  0  0  0  0  0  0  0  0  0  0  0
    9.4990  -13.4180   15.5370 C   0  0  0  0  0  0  0  0  0  0  0  0
    8.6430  -14.0690   14.4840 C   0  0  2  0  0  3  0  0  0  0  0  0
    7.1900  -14.1760   14.9610 C   0  0  0  0  0  1  0  0  0  0  0  0
    9.2060  -15.4440   14.1240 C   0  0  0  0  0  2  0  0  0  0  0  0
    9.5520  -16.2680   15.3450 C   0  0  0  0  0  0  0  0  0  0  0  0
    9.5010  -17.4920   15.3360 O   0  0  0  0  0  0  0  0  0  0  0  0
   10.0400  -15.5790   16.4170 N   0  0  0  0  0  0  0  0  0  0  0  0
   10.4030  -16.1110   17.1970 H   0  0  0  0  0  0  0  0  0  0  0  0
    8.4170   -7.1870   11.3820 C   0  0  1  0  0  3  0  0  0  0  0  0
    7.7190   -6.8650   10.0540 C   0  0  0  0  0  0  0  0  0  0  0  0
    7.1600   -5.5920    9.8190 C   0  0  0  0  0  3  0  0  0  0  0  0
    6.5860   -5.2740    8.5870 C   0  0  0  0  0  3  0  0  0  0  0  0
    6.5620   -6.2220    7.5710 C   0  0  0  0  0  0  0  0  0  0  0  0
    5.8770   -5.8260    6.0460 Cl  0  0  0  0  0  0  0  0  0  0  0  0
    7.0960   -7.4920    7.7860 C   0  0  0  0  0  3  0  0  0  0  0  0
    7.6680   -7.8160    9.0220 C   0  0  0  0  0  3  0  0  0  0  0  0
    9.0060   -5.8800   11.9510 C   0  0  0  0  0  2  0  0  0  0  0  0
    8.3550   -5.3980   13.2430 N   0  0  0  0  0  4  0  0  0  0  0  0
    9.0340   -5.4540   14.0100 H   0  0  0  0  0  0  0  0  0  0  0  0
    7.6460   -6.1050   13.4950 H   0  0  0  0  0  0  0  0  0  0  0  0
    8.3840   -3.0730   12.3750 C   0  0  0  0  0  1  0  0  0  0  0  0
    7.6820   -4.0480   13.3020 C   0  0  0  0  0  3  0  0  0  0  0  0
    6.2210   -4.2530   12.9030 C   0  0  0  0  0  1  0  0  0  0  0  0
  1  2  2  0  0  0  0
  1  3  1  0  0  0  0
  3  9  1  0  0  0  0
  3  4  1  0  0  0  0
  4  5  1  0  0  0  0
  6  5  1  0  0  0  0
  6 10  1  0  0  0  0
  7  6  1  0  0  0  0
  7  8  1  1  0  0  0
  9  7  1  0  0  0  0
  9  8  1  1  0  0  0
 10 11  1  0  0  0  0
 11 12  2  0  0  0  0
 13 12  1  0  0  0  0
 14 13  2  0  0  0  0
 15 10  2  0  0  0  0
 15 14  1  0  0  0  0
 16 17  1  1  0  0  0
 16 15  1  0  0  0  0
 18 16  1  0  0  0  0
 18 19  1  0  0  0  0
 19 21  1  0  0  0  0
 20 19  2  0  0  0  0
 21 14  1  0  0  0  0
 21 22  1  0  0  0  0
 23 31  1  1  0  0  0
 23  1  1  0  0  0  0
 24 23  1  0  0  0  0
 25 24  1  0  0  0  0
 26 25  2  0  0  0  0
 27 29  2  0  0  0  0
 27 26  1  0  0  0  0
 28 27  1  0  0  0  0
 29 30  1  0  0  0  0
 30 24  2  0  0  0  0
 31 32  1  0  0  0  0
 32 36  1  0  0  0  0
 32 34  1  0  0  0  0
 32 33  1  0  0  0  0
 35 36  1  0  0  0  0
 37 36  1  0  0  0  0
M  END
>  <minimizedAffinity>
-9.63574409

$$$$
