
 OpenBabel11232418553D

 37 41  0  0  1  0  0  0  0  0999 V2000
    6.3610   -4.0110   11.0610 C   0  0  0  0  0  0  0  0  0  0  0  0
    5.1640   -4.2710   10.9590 O   0  0  0  0  0  0  0  0  0  0  0  0
    7.1570   -4.6530   12.0100 N   0  0  0  0  0  0  0  0  0  0  0  0
    8.4020   -4.1140   12.5650 C   0  0  0  0  0  2  0  0  0  0  0  0
    8.7770   -4.6320   13.9600 C   0  0  0  0  0  2  0  0  0  0  0  0
    8.8770   -6.0870   13.9250 N   0  0  0  0  0  0  0  0  0  0  0  0
    7.6850   -6.7720   13.3840 C   0  0  1  0  0  3  0  0  0  0  0  0
    6.2760   -6.3870   13.7340 C   0  0  0  0  0  2  0  0  0  0  0  0
    6.8180   -6.0230   12.3830 C   0  0  1  0  0  3  0  0  0  0  0  0
    9.4770   -6.5850   15.1000 C   0  0  0  0  0  0  0  0  0  0  0  0
    9.8610   -5.7080   16.0450 N   0  0  0  0  0  0  0  0  0  0  0  0
   10.5030   -6.2090   17.1090 C   0  0  0  0  0  3  0  0  0  0  0  0
   10.8450   -7.4870   17.2900 N   0  0  0  0  0  0  0  0  0  0  0  0
   10.4810   -8.3220   16.3120 C   0  0  0  0  0  0  0  0  0  0  0  0
    9.7610   -7.9400   15.1950 C   0  0  0  0  0  0  0  0  0  0  0  0
    9.2990   -8.9790   14.2080 C   0  0  2  0  0  3  0  0  0  0  0  0
    7.9190   -9.5180   14.6000 C   0  0  0  0  0  1  0  0  0  0  0  0
   10.3240  -10.1080   14.1150 C   0  0  0  0  0  2  0  0  0  0  0  0
   10.7780  -10.5950   15.4730 C   0  0  0  0  0  0  0  0  0  0  0  0
   11.1380  -11.7520   15.6600 O   0  0  0  0  0  0  0  0  0  0  0  0
   10.8810   -9.6460   16.4480 N   0  0  0  0  0  0  0  0  0  0  0  0
   11.3060   -9.9130   17.3260 H   0  0  0  0  0  0  0  0  0  0  0  0
    7.0710   -3.0500   10.0770 C   0  0  1  0  0  3  0  0  0  0  0  0
    6.6500   -3.2840    8.6210 C   0  0  0  0  0  0  0  0  0  0  0  0
    6.2890   -2.2050    7.7880 C   0  0  0  0  0  3  0  0  0  0  0  0
    5.9720   -2.4070    6.4430 C   0  0  0  0  0  3  0  0  0  0  0  0
    6.0110   -3.6900    5.9110 C   0  0  0  0  0  0  0  0  0  0  0  0
    5.6440   -3.9390    4.2510 Cl  0  0  0  0  0  0  0  0  0  0  0  0
    6.3510   -4.7730    6.7190 C   0  0  0  0  0  3  0  0  0  0  0  0
    6.6640   -4.5750    8.0680 C   0  0  0  0  0  3  0  0  0  0  0  0
    6.8490   -1.5610   10.4140 C   0  0  0  0  0  2  0  0  0  0  0  0
    7.9070   -0.9490   11.3250 N   0  0  0  0  0  4  0  0  0  0  0  0
    8.5100   -0.3250   10.7790 H   0  0  0  0  0  0  0  0  0  0  0  0
    8.5390   -1.7190   11.5980 H   0  0  0  0  0  0  0  0  0  0  0  0
    6.5280   -1.0820   13.3840 C   0  0  0  0  0  1  0  0  0  0  0  0
    7.5040   -0.2320   12.5910 C   0  0  0  0  0  3  0  0  0  0  0  0
    8.7810    0.0470   13.3810 C   0  0  0  0  0  1  0  0  0  0  0  0
  1  3  1  0  0  0  0
  2  1  2  0  0  0  0
  3  9  1  0  0  0  0
  3  4  1  0  0  0  0
  4  5  1  0  0  0  0
  6  5  1  0  0  0  0
  6 10  1  0  0  0  0
  7  8  1  1  0  0  0
  7  6  1  0  0  0  0
  9  7  1  0  0  0  0
  9  8  1  1  0  0  0
 10 15  2  0  0  0  0
 10 11  1  0  0  0  0
 11 12  2  0  0  0  0
 12 13  1  0  0  0  0
 14 21  1  0  0  0  0
 14 13  2  0  0  0  0
 15 14  1  0  0  0  0
 16 17  1  1  0  0  0
 16 15  1  0  0  0  0
 18 16  1  0  0  0  0
 18 19  1  0  0  0  0
 19 20  2  0  0  0  0
 19 21  1  0  0  0  0
 21 22  1  0  0  0  0
 23 31  1  1  0  0  0
 23  1  1  0  0  0  0
 24 23  1  0  0  0  0
 25 24  2  0  0  0  0
 26 25  1  0  0  0  0
 27 26  2  0  0  0  0
 27 29  1  0  0  0  0
 28 27  1  0  0  0  0
 29 30  2  0  0  0  0
 30 24  1  0  0  0  0
 31 32  1  0  0  0  0
 32 34  1  0  0  0  0
 32 36  1  0  0  0  0
 33 32  1  0  0  0  0
 36 37  1  0  0  0  0
 36 35  1  0  0  0  0
M  END
>  <minimizedAffinity>
-9.74193001

$$$$
