
 OpenBabel11232418553D

 37 41  0  0  1  0  0  0  0  0999 V2000
    8.1650   -8.1580   14.2850 C   0  0  0  0  0  0  0  0  0  0  0  0
    7.5550   -9.2170   14.1520 O   0  0  0  0  0  0  0  0  0  0  0  0
    7.8390   -7.0410   13.5160 N   0  0  0  0  0  0  0  0  0  0  0  0
    8.7520   -5.9350   13.2120 C   0  0  0  0  0  2  0  0  0  0  0  0
    8.4420   -5.1640   11.9220 C   0  0  0  0  0  2  0  0  0  0  0  0
    7.0830   -4.6390   11.9860 N   0  0  0  0  0  0  0  0  0  0  0  0
    6.0470   -5.6480   12.2880 C   0  0  1  0  0  3  0  0  0  0  0  0
    6.0140   -7.0150   11.6650 C   0  0  0  0  0  2  0  0  0  0  0  0
    6.4520   -6.8730   13.0940 C   0  0  1  0  0  3  0  0  0  0  0  0
    6.8470   -3.7050   10.9550 C   0  0  0  0  0  0  0  0  0  0  0  0
    6.4280   -4.1610    9.7610 N   0  0  0  0  0  0  0  0  0  0  0  0
    6.2950   -3.2570    8.7810 C   0  0  0  0  0  3  0  0  0  0  0  0
    6.5950   -1.9580    8.8670 N   0  0  0  0  0  0  0  0  0  0  0  0
    7.0450   -1.5490   10.0570 C   0  0  0  0  0  0  0  0  0  0  0  0
    7.1670   -2.3710   11.1620 C   0  0  0  0  0  0  0  0  0  0  0  0
    7.5740   -1.7880   12.4890 C   0  0  2  0  0  3  0  0  0  0  0  0
    6.3410   -1.3340   13.2790 C   0  0  0  0  0  1  0  0  0  0  0  0
    8.5490   -0.6300   12.2790 C   0  0  0  0  0  2  0  0  0  0  0  0
    8.0840    0.3340   11.2110 C   0  0  0  0  0  0  0  0  0  0  0  0
    8.3780    1.5240   11.2390 O   0  0  0  0  0  0  0  0  0  0  0  0
    7.4220   -0.2150   10.1510 N   0  0  0  0  0  0  0  0  0  0  0  0
    7.2160    0.3810    9.3600 H   0  0  0  0  0  0  0  0  0  0  0  0
    9.2400   -7.9700   15.3820 C   0  0  1  0  0  3  0  0  0  0  0  0
    9.7170   -9.3040   15.9710 C   0  0  0  0  0  0  0  0  0  0  0  0
    9.1780   -9.7970   17.1780 C   0  0  0  0  0  3  0  0  0  0  0  0
    9.5580  -11.0430   17.6810 C   0  0  0  0  0  3  0  0  0  0  0  0
   10.4820  -11.8150   16.9860 C   0  0  0  0  0  0  0  0  0  0  0  0
   10.9340  -13.3580   17.5910 Cl  0  0  0  0  0  0  0  0  0  0  0  0
   11.0380  -11.3410   15.7990 C   0  0  0  0  0  3  0  0  0  0  0  0
   10.6630  -10.0910   15.2950 C   0  0  0  0  0  3  0  0  0  0  0  0
   10.4750   -7.1850   14.8940 C   0  0  0  0  0  2  0  0  0  0  0  0
   11.4220   -6.7350   16.0010 N   0  0  0  0  0  4  0  0  0  0  0  0
   11.8560   -5.8440   15.7390 H   0  0  0  0  0  0  0  0  0  0  0  0
   12.2130   -7.4000   15.9980 H   0  0  0  0  0  0  0  0  0  0  0  0
   11.7400   -7.5500   18.3240 C   0  0  0  0  0  1  0  0  0  0  0  0
   10.9360   -6.6270   17.4260 C   0  0  0  0  0  3  0  0  0  0  0  0
   11.0790   -5.1650   17.8450 C   0  0  0  0  0  1  0  0  0  0  0  0
  1 23  1  0  0  0  0
  2  1  2  0  0  0  0
  3  1  1  0  0  0  0
  4  3  1  0  0  0  0
  5  6  1  0  0  0  0
  5  4  1  0  0  0  0
  6  7  1  0  0  0  0
  7  8  1  6  0  0  0
  7  9  1  0  0  0  0
  9  8  1  6  0  0  0
  9  3  1  0  0  0  0
 10 15  1  0  0  0  0
 10  6  1  0  0  0  0
 11 10  2  0  0  0  0
 12 13  2  0  0  0  0
 12 11  1  0  0  0  0
 13 14  1  0  0  0  0
 14 21  1  0  0  0  0
 14 15  2  0  0  0  0
 15 16  1  0  0  0  0
 16 17  1  6  0  0  0
 18 16  1  0  0  0  0
 19 20  2  0  0  0  0
 19 18  1  0  0  0  0
 21 19  1  0  0  0  0
 22 21  1  0  0  0  0
 23 31  1  6  0  0  0
 23 24  1  0  0  0  0
 24 25  1  0  0  0  0
 25 26  2  0  0  0  0
 27 28  1  0  0  0  0
 27 26  1  0  0  0  0
 29 27  2  0  0  0  0
 30 29  1  0  0  0  0
 30 24  2  0  0  0  0
 31 32  1  0  0  0  0
 32 36  1  0  0  0  0
 33 32  1  0  0  0  0
 34 32  1  0  0  0  0
 36 37  1  0  0  0  0
 36 35  1  0  0  0  0
M  END
>  <minimizedAffinity>
-9.69134712

$$$$
