
 OpenBabel11232418553D

 37 41  0  0  1  0  0  0  0  0999 V2000
    6.9480   -6.1730   12.2360 C   0  0  0  0  0  0  0  0  0  0  0  0
    5.8400   -6.6780   12.0640 O   0  0  0  0  0  0  0  0  0  0  0  0
    7.8490   -6.7120   13.1540 N   0  0  0  0  0  0  0  0  0  0  0  0
    8.9320   -5.9700   13.8040 C   0  0  0  0  0  2  0  0  0  0  0  0
    9.3870   -6.5250   15.1600 C   0  0  0  0  0  2  0  0  0  0  0  0
    9.8070   -7.9120   15.0000 N   0  0  0  0  0  0  0  0  0  0  0  0
    8.8080   -8.7870   14.3530 C   0  0  1  0  0  3  0  0  0  0  0  0
    7.3420   -8.7550   14.6800 C   0  0  0  0  0  2  0  0  0  0  0  0
    7.8160   -8.1530   13.3890 C   0  0  1  0  0  3  0  0  0  0  0  0
   10.4810   -8.3770   16.1480 C   0  0  0  0  0  0  0  0  0  0  0  0
   10.8440   -7.4820   17.0840 N   0  0  0  0  0  0  0  0  0  0  0  0
   11.5560   -7.9460   18.1210 C   0  0  0  0  0  3  0  0  0  0  0  0
   11.9840   -9.2010   18.2790 N   0  0  0  0  0  0  0  0  0  0  0  0
   11.6370  -10.0530   17.3100 C   0  0  0  0  0  0  0  0  0  0  0  0
   10.8530   -9.7120   16.2230 C   0  0  0  0  0  0  0  0  0  0  0  0
   10.4210  -10.7730   15.2470 C   0  0  2  0  0  3  0  0  0  0  0  0
    9.0930  -11.4000   15.6850 C   0  0  0  0  0  1  0  0  0  0  0  0
   11.5110  -11.8350   15.1070 C   0  0  0  0  0  2  0  0  0  0  0  0
   12.0450  -12.2990   16.4440 C   0  0  0  0  0  0  0  0  0  0  0  0
   12.4840  -13.4310   16.6090 O   0  0  0  0  0  0  0  0  0  0  0  0
   12.1240  -11.3500   17.4220 N   0  0  0  0  0  0  0  0  0  0  0  0
   12.5980  -11.5940   18.2820 H   0  0  0  0  0  0  0  0  0  0  0  0
    7.4460   -4.9900   11.3710 C   0  0  1  0  0  3  0  0  0  0  0  0
    6.9750   -5.0890    9.9140 C   0  0  0  0  0  0  0  0  0  0  0  0
    6.2950   -4.0180    9.2970 C   0  0  0  0  0  3  0  0  0  0  0  0
    5.9270   -4.0790    7.9510 C   0  0  0  0  0  3  0  0  0  0  0  0
    6.2330   -5.2080    7.2020 C   0  0  0  0  0  0  0  0  0  0  0  0
    5.8020   -5.2760    5.5400 Cl  0  0  0  0  0  0  0  0  0  0  0  0
    6.8920   -6.2840    7.7950 C   0  0  0  0  0  3  0  0  0  0  0  0
    7.2570   -6.2300    9.1450 C   0  0  0  0  0  3  0  0  0  0  0  0
    7.0250   -3.6130   11.9240 C   0  0  0  0  0  2  0  0  0  0  0  0
    8.1840   -2.6940   12.2970 N   0  0  0  0  0  4  0  0  0  0  0  0
    8.8820   -2.7020   11.5460 H   0  0  0  0  0  0  0  0  0  0  0  0
    8.6720   -3.1460   13.0860 H   0  0  0  0  0  0  0  0  0  0  0  0
    7.6480   -0.4200   11.4590 C   0  0  0  0  0  1  0  0  0  0  0  0
    7.9260   -1.2610   12.6930 C   0  0  0  0  0  3  0  0  0  0  0  0
    6.7380   -1.2620   13.6540 C   0  0  0  0  0  1  0  0  0  0  0  0
  1  3  1  0  0  0  0
  2  1  2  0  0  0  0
  3  9  1  0  0  0  0
  3  4  1  0  0  0  0
  4  5  1  0  0  0  0
  6  5  1  0  0  0  0
  6 10  1  0  0  0  0
  7  8  1  1  0  0  0
  7  6  1  0  0  0  0
  9  7  1  0  0  0  0
  9  8  1  1  0  0  0
 10 15  2  0  0  0  0
 10 11  1  0  0  0  0
 11 12  2  0  0  0  0
 12 13  1  0  0  0  0
 14 21  1  0  0  0  0
 14 13  2  0  0  0  0
 15 14  1  0  0  0  0
 16 17  1  1  0  0  0
 16 15  1  0  0  0  0
 18 16  1  0  0  0  0
 18 19  1  0  0  0  0
 19 20  2  0  0  0  0
 19 21  1  0  0  0  0
 21 22  1  0  0  0  0
 23 31  1  1  0  0  0
 23  1  1  0  0  0  0
 24 23  1  0  0  0  0
 25 24  1  0  0  0  0
 26 25  2  0  0  0  0
 27 29  2  0  0  0  0
 27 26  1  0  0  0  0
 28 27  1  0  0  0  0
 29 30  1  0  0  0  0
 30 24  2  0  0  0  0
 31 32  1  0  0  0  0
 32 36  1  0  0  0  0
 32 34  1  0  0  0  0
 33 32  1  0  0  0  0
 35 36  1  0  0  0  0
 36 37  1  0  0  0  0
M  END
>  <minimizedAffinity>
-8.88861275

$$$$
