
 OpenBabel11232418553D

 37 41  0  0  1  0  0  0  0  0999 V2000
    7.4790   -9.7670   13.9930 C   0  0  0  0  0  0  0  0  0  0  0  0
    6.2840   -9.6590   13.7190 O   0  0  0  0  0  0  0  0  0  0  0  0
    8.0330  -11.0080   14.3070 N   0  0  0  0  0  0  0  0  0  0  0  0
    9.2460  -11.2080   15.1060 C   0  0  0  0  0  2  0  0  0  0  0  0
    9.3400  -12.5580   15.8280 C   0  0  0  0  0  2  0  0  0  0  0  0
    9.2450  -13.6380   14.8520 N   0  0  0  0  0  0  0  0  0  0  0  0
    8.0640  -13.5660   13.9680 C   0  0  1  0  0  3  0  0  0  0  0  0
    6.6840  -13.2240   14.4540 C   0  0  0  0  0  2  0  0  0  0  0  0
    7.4620  -12.1970   13.6840 C   0  0  1  0  0  3  0  0  0  0  0  0
    9.5950  -14.8770   15.4260 C   0  0  0  0  0  0  0  0  0  0  0  0
    8.8370  -15.9510   15.1410 N   0  0  0  0  0  0  0  0  0  0  0  0
    9.1470  -17.0940   15.7690 C   0  0  0  0  0  3  0  0  0  0  0  0
   10.1010  -17.2480   16.6910 N   0  0  0  0  0  0  0  0  0  0  0  0
   10.8080  -16.1500   16.9760 C   0  0  0  0  0  0  0  0  0  0  0  0
   10.6270  -14.9300   16.3520 C   0  0  0  0  0  0  0  0  0  0  0  0
   11.5520  -13.7840   16.6620 C   0  0  2  0  0  3  0  0  0  0  0  0
   12.7610  -13.7980   15.7200 C   0  0  0  0  0  1  0  0  0  0  0  0
   11.9930  -13.8440   18.1240 C   0  0  0  0  0  2  0  0  0  0  0  0
   12.4390  -15.2280   18.5400 C   0  0  0  0  0  0  0  0  0  0  0  0
   13.2820  -15.4030   19.4130 O   0  0  0  0  0  0  0  0  0  0  0  0
   11.7640  -16.2720   17.9770 N   0  0  0  0  0  0  0  0  0  0  0  0
   11.9470  -17.2010   18.3310 H   0  0  0  0  0  0  0  0  0  0  0  0
    8.4480   -8.5640   13.8940 C   0  0  1  0  0  3  0  0  0  0  0  0
    8.0330   -7.5630   12.8080 C   0  0  0  0  0  0  0  0  0  0  0  0
    8.3890   -7.7680   11.4590 C   0  0  0  0  0  3  0  0  0  0  0  0
    7.9540   -6.8960   10.4590 C   0  0  0  0  0  3  0  0  0  0  0  0
    7.1570   -5.8070   10.7910 C   0  0  0  0  0  0  0  0  0  0  0  0
    6.6010   -4.7460    9.5600 Cl  0  0  0  0  0  0  0  0  0  0  0  0
    6.8050   -5.5780   12.1200 C   0  0  0  0  0  3  0  0  0  0  0  0
    7.2430   -6.4460   13.1260 C   0  0  0  0  0  3  0  0  0  0  0  0
    8.6060   -7.8010   15.2250 C   0  0  0  0  0  2  0  0  0  0  0  0
   10.0500   -7.5610   15.6550 N   0  0  0  0  0  4  0  0  0  0  0  0
   10.3710   -6.6600   15.2870 H   0  0  0  0  0  0  0  0  0  0  0  0
   10.6240   -8.2510   15.1440 H   0  0  0  0  0  0  0  0  0  0  0  0
   11.3680   -8.8250   17.3350 C   0  0  0  0  0  1  0  0  0  0  0  0
   10.4370   -7.6470   17.1110 C   0  0  0  0  0  3  0  0  0  0  0  0
   11.1020   -6.3230   17.4830 C   0  0  0  0  0  1  0  0  0  0  0  0
  1  3  1  0  0  0  0
  2  1  2  0  0  0  0
  3  4  1  0  0  0  0
  4  5  1  0  0  0  0
  6 10  1  0  0  0  0
  6  5  1  0  0  0  0
  7  8  1  1  0  0  0
  7  6  1  0  0  0  0
  9  7  1  0  0  0  0
  9  3  1  0  0  0  0
  9  8  1  1  0  0  0
 10 15  1  0  0  0  0
 11 10  2  0  0  0  0
 11 12  1  0  0  0  0
 12 13  2  0  0  0  0
 13 14  1  0  0  0  0
 14 21  1  0  0  0  0
 15 16  1  0  0  0  0
 15 14  2  0  0  0  0
 16 17  1  6  0  0  0
 16 18  1  0  0  0  0
 18 19  1  0  0  0  0
 19 20  2  0  0  0  0
 21 22  1  0  0  0  0
 21 19  1  0  0  0  0
 23  1  1  0  0  0  0
 23 31  1  1  0  0  0
 24 30  1  0  0  0  0
 24 23  1  0  0  0  0
 25 24  2  0  0  0  0
 26 27  2  0  0  0  0
 26 25  1  0  0  0  0
 27 29  1  0  0  0  0
 28 27  1  0  0  0  0
 29 30  2  0  0  0  0
 31 32  1  0  0  0  0
 32 36  1  0  0  0  0
 33 32  1  0  0  0  0
 34 32  1  0  0  0  0
 36 35  1  0  0  0  0
 36 37  1  0  0  0  0
M  END
>  <minimizedAffinity>
-8.57194328

$$$$
