
 OpenBabel11232420363D

 38 44  0  0  1  0  0  0  0  0999 V2000
   -7.3130  -10.8610   11.0870 C   0  0  0  0  0  0  0  0  0  0  0  0
   -6.5670   -9.8570   10.4360 C   0  0  0  0  0  3  0  0  0  0  0  0
   -5.6160   -9.0800   11.1100 C   0  0  0  0  0  3  0  0  0  0  0  0
   -5.3530   -9.3000   12.4600 C   0  0  0  0  0  0  0  0  0  0  0  0
   -6.0590  -10.2950   13.1330 C   0  0  0  0  0  3  0  0  0  0  0  0
   -7.0210  -11.0550   12.4580 C   0  0  0  0  0  3  0  0  0  0  0  0
   -4.3830   -8.4750   13.1470 C   0  0  0  0  0  0  0  0  0  0  0  0
   -3.1700   -8.9700   13.5660 N   0  0  0  0  0  0  0  0  0  0  0  0
   -2.5580   -7.9490   14.1260 C   0  0  0  0  0  0  0  0  0  0  0  0
   -3.3460   -6.8310   14.1050 N   0  0  0  0  0  0  0  0  0  0  0  0
   -4.5250   -7.1300   13.4660 C   0  0  0  0  0  0  0  0  0  0  0  0
   -2.8830   -5.5570   14.6240 C   0  0  0  0  0  2  0  0  0  0  0  0
   -1.8290   -5.6780   15.6030 O   0  0  0  0  0  0  0  0  0  0  0  0
   -0.9440   -6.7080   15.4380 C   0  0  0  0  0  0  0  0  0  0  0  0
    0.2930   -6.6350   16.0530 C   0  0  0  0  0  3  0  0  0  0  0  0
    1.2270   -7.6110   15.9750 N   0  0  0  0  0  0  0  0  0  0  0  0
    0.9020   -8.7180   15.2700 C   0  0  0  0  0  3  0  0  0  0  0  0
   -0.3160   -8.8960   14.6370 C   0  0  0  0  0  3  0  0  0  0  0  0
   -1.2500   -7.8680   14.7290 C   0  0  0  0  0  0  0  0  0  0  0  0
   -5.6250   -6.1970   13.2710 C   0  0  0  0  0  0  0  0  0  0  0  0
   -5.7480   -5.5040   12.0610 C   0  0  0  0  0  3  0  0  0  0  0  0
   -6.8000   -4.6080   11.8660 C   0  0  0  0  0  3  0  0  0  0  0  0
   -7.7330   -4.3960   12.8810 C   0  0  0  0  0  3  0  0  0  0  0  0
   -7.6140   -5.0790   14.0900 C   0  0  0  0  0  3  0  0  0  0  0  0
   -6.5620   -5.9770   14.2870 C   0  0  0  0  0  3  0  0  0  0  0  0
   -8.4140  -11.7420   10.3480 C   0  0  2  0  0  0  0  0  0  0  0  0
   -8.2150  -13.2650   10.1660 C   0  0  0  0  0  2  0  0  0  0  0  0
   -7.9880  -13.0620    8.6340 C   0  0  1  0  0  0  0  0  0  0  0  0
   -8.5330  -11.6100    8.8090 C   0  0  0  0  0  2  0  0  0  0  0  0
   -9.7080  -11.4650   11.0200 N   0  0  0  0  0  4  0  0  0  0  0  0
  -10.4870  -11.9940   10.6030 H   0  0  0  0  0  0  0  0  0  0  0  0
   -9.9520  -10.4680   10.9760 H   0  0  0  0  0  0  0  0  0  0  0  0
   -9.6650  -11.7130   12.0170 H   0  0  0  0  0  0  0  0  0  0  0  0
   -6.5490  -13.2620    8.1750 C   0  0  0  0  0  3  0  0  0  0  0  0
   -6.1190  -13.1920    6.7350 C   0  0  0  0  0  2  0  0  0  0  0  0
   -5.5970  -12.1890    7.7280 C   0  0  0  0  0  2  0  0  0  0  0  0
   -8.9090  -13.8690    7.8630 O   0  0  0  0  0  0  0  0  0  0  0  0
   -8.5890  -13.8230    6.9410 H   0  0  0  0  0  0  0  0  0  0  0  0
  1  6  1  0  0  0  0
  2  1  2  0  0  0  0
  2  3  1  0  0  0  0
  3  4  2  0  0  0  0
  4  5  1  0  0  0  0
  4  7  1  0  0  0  0
  6  5  2  0  0  0  0
  7 11  2  0  0  0  0
  7  8  1  0  0  0  0
  8  9  2  0  0  0  0
  9 19  1  0  0  0  0
 10  9  1  0  0  0  0
 10 12  1  0  0  0  0
 11 10  1  0  0  0  0
 12 13  1  0  0  0  0
 14 13  1  0  0  0  0
 14 15  1  0  0  0  0
 16 15  2  0  0  0  0
 17 16  1  0  0  0  0
 18 19  1  0  0  0  0
 18 17  2  0  0  0  0
 19 14  2  0  0  0  0
 20 11  1  0  0  0  0
 20 25  1  0  0  0  0
 21 20  2  0  0  0  0
 22 21  1  0  0  0  0
 22 23  2  0  0  0  0
 23 24  1  0  0  0  0
 24 25  2  0  0  0  0
 26 30  1  1  0  0  0
 26  1  1  0  0  0  0
 27 26  1  0  0  0  0
 28 37  1  6  0  0  0
 28 29  1  0  0  0  0
 28 27  1  0  0  0  0
 29 26  1  0  0  0  0
 30 33  1  0  0  0  0
 31 30  1  0  0  0  0
 32 30  1  0  0  0  0
 34 28  1  0  0  0  0
 35 36  1  0  0  0  0
 35 34  1  0  0  0  0
 36 34  1  0  0  0  0
 38 37  1  0  0  0  0
M  END
>  <minimizedAffinity>
-5.2844348

$$$$
