
 OpenBabel11232420363D

 38 44  0  0  1  0  0  0  0  0999 V2000
   -6.0780   -8.2530    9.0980 C   0  0  0  0  0  0  0  0  0  0  0  0
   -5.2750   -9.4060    8.9730 C   0  0  0  0  0  3  0  0  0  0  0  0
   -5.8250  -10.6920    8.9060 C   0  0  0  0  0  3  0  0  0  0  0  0
   -7.2060  -10.8730    8.9310 C   0  0  0  0  0  0  0  0  0  0  0  0
   -8.0320   -9.7560    9.0370 C   0  0  0  0  0  3  0  0  0  0  0  0
   -7.4760   -8.4750    9.1230 C   0  0  0  0  0  3  0  0  0  0  0  0
   -7.7570  -12.2100    8.8830 C   0  0  0  0  0  0  0  0  0  0  0  0
   -7.6930  -12.9860    7.7490 N   0  0  0  0  0  0  0  0  0  0  0  0
   -8.2700  -14.1200    8.0760 C   0  0  0  0  0  0  0  0  0  0  0  0
   -8.7250  -14.0880    9.3650 N   0  0  0  0  0  0  0  0  0  0  0  0
   -8.3960  -12.8750    9.9220 C   0  0  0  0  0  0  0  0  0  0  0  0
   -9.3630  -15.2360    9.9830 C   0  0  0  0  0  2  0  0  0  0  0  0
   -9.9510  -16.1530    9.0340 O   0  0  0  0  0  0  0  0  0  0  0  0
   -9.3140  -16.2930    7.8320 C   0  0  0  0  0  0  0  0  0  0  0  0
   -9.5530  -17.4250    7.0740 C   0  0  0  0  0  3  0  0  0  0  0  0
   -8.9960  -17.6450    5.8600 N   0  0  0  0  0  0  0  0  0  0  0  0
   -8.1830  -16.6820    5.3730 C   0  0  0  0  0  3  0  0  0  0  0  0
   -7.8980  -15.5050    6.0430 C   0  0  0  0  0  3  0  0  0  0  0  0
   -8.4790  -15.3140    7.2940 C   0  0  0  0  0  0  0  0  0  0  0  0
   -8.7360  -12.4620   11.2760 C   0  0  0  0  0  0  0  0  0  0  0  0
   -9.9960  -11.9130   11.5440 C   0  0  0  0  0  3  0  0  0  0  0  0
  -10.3300  -11.5160   12.8400 C   0  0  0  0  0  3  0  0  0  0  0  0
   -9.4060  -11.6630   13.8740 C   0  0  0  0  0  3  0  0  0  0  0  0
   -8.1480  -12.2040   13.6130 C   0  0  0  0  0  3  0  0  0  0  0  0
   -7.8120  -12.6030   12.3170 C   0  0  0  0  0  3  0  0  0  0  0  0
   -5.4770   -6.7820    9.1970 C   0  0  2  0  0  0  0  0  0  0  0  0
   -4.9470   -6.2350   10.5440 C   0  0  0  0  0  2  0  0  0  0  0  0
   -6.1670   -5.2650   10.6410 C   0  0  1  0  0  0  0  0  0  0  0  0
   -6.4650   -5.5910    9.1430 C   0  0  0  0  0  2  0  0  0  0  0  0
   -4.4340   -6.6720    8.1470 N   0  0  0  0  0  4  0  0  0  0  0  0
   -3.9880   -5.7450    8.1340 H   0  0  0  0  0  0  0  0  0  0  0  0
   -4.8200   -6.8440    7.2100 H   0  0  0  0  0  0  0  0  0  0  0  0
   -3.6920   -7.3710    8.2910 H   0  0  0  0  0  0  0  0  0  0  0  0
   -7.1940   -5.6430   11.6990 C   0  0  0  0  0  3  0  0  0  0  0  0
   -6.8460   -5.9060   13.1390 C   0  0  0  0  0  2  0  0  0  0  0  0
   -7.7360   -4.7480   12.7780 C   0  0  0  0  0  2  0  0  0  0  0  0
   -5.7270   -3.8950   10.7910 O   0  0  0  0  0  0  0  0  0  0  0  0
   -6.5290   -3.3860   11.0200 H   0  0  0  0  0  0  0  0  0  0  0  0
  1  6  1  0  0  0  0
  1 26  1  0  0  0  0
  2  1  2  0  0  0  0
  3  4  2  0  0  0  0
  3  2  1  0  0  0  0
  4  5  1  0  0  0  0
  5  6  2  0  0  0  0
  7  4  1  0  0  0  0
  7 11  2  0  0  0  0
  8  9  2  0  0  0  0
  8  7  1  0  0  0  0
  9 10  1  0  0  0  0
 10 11  1  0  0  0  0
 10 12  1  0  0  0  0
 11 20  1  0  0  0  0
 13 12  1  0  0  0  0
 14 13  1  0  0  0  0
 15 14  2  0  0  0  0
 16 15  1  0  0  0  0
 17 16  2  0  0  0  0
 17 18  1  0  0  0  0
 18 19  2  0  0  0  0
 19 14  1  0  0  0  0
 19  9  1  0  0  0  0
 20 21  2  0  0  0  0
 20 25  1  0  0  0  0
 21 22  1  0  0  0  0
 22 23  2  0  0  0  0
 24 23  1  0  0  0  0
 25 24  2  0  0  0  0
 26 30  1  6  0  0  0
 26 27  1  0  0  0  0
 27 28  1  0  0  0  0
 28 37  1  1  0  0  0
 28 34  1  0  0  0  0
 29 26  1  0  0  0  0
 29 28  1  0  0  0  0
 30 33  1  0  0  0  0
 31 30  1  0  0  0  0
 32 30  1  0  0  0  0
 34 36  1  0  0  0  0
 34 35  1  0  0  0  0
 36 35  1  0  0  0  0
 37 38  1  0  0  0  0
M  END
>  <minimizedAffinity>
-5.70068979

$$$$
