
 OpenBabel10152419143D

 37 41  0  0  1  0  0  0  0  0999 V2000
    8.3650   -9.9640    9.5740 C   0  0  0  0  0  0  0  0  0  0  0  0
    8.9800   -8.7750    9.9610 C   0  0  0  0  0  3  0  0  0  0  0  0
   10.1410   -8.8190   10.7280 C   0  0  0  0  0  3  0  0  0  0  0  0
   10.6940  -10.0510   11.0850 C   0  0  0  0  0  3  0  0  0  0  0  0
   10.1580  -11.2570   10.6100 C   0  0  0  0  0  0  0  0  0  0  0  0
    9.0030  -11.1890    9.8190 C   0  0  0  0  0  3  0  0  0  0  0  0
    6.2160  -10.8840    8.6250 C   0  0  0  0  0  0  0  0  0  0  0  0
    5.2950  -10.6190    7.8530 O   0  0  0  0  0  0  0  0  0  0  0  0
    7.0900   -9.8760    8.9860 N   0  0  0  0  0  0  0  0  0  0  0  0
    6.7050   -8.9520    8.8350 H   0  0  0  0  0  0  0  0  0  0  0  0
    6.3210  -14.0660   10.4040 C   0  0  1  0  0  3  0  0  0  0  0  0
    5.5200  -12.9960    9.9470 C   0  0  0  0  0  2  0  0  0  0  0  0
    6.3650  -12.1980    9.1970 C   0  0  1  0  0  3  0  0  0  0  0  0
    7.4930  -12.9540    9.0370 N   0  0  0  0  0  0  0  0  0  0  0  0
    7.5230  -14.0520    9.8160 N   0  0  0  0  0  2  0  0  0  0  0  0
    8.3060  -12.7280    8.4730 H   0  0  0  0  0  0  0  0  0  0  0  0
    6.9390  -15.0730   12.6180 C   0  0  0  0  0  2  0  0  0  0  0  0
    5.9470  -15.0720   11.4580 C   0  0  1  0  0  3  0  0  0  0  0  0
    4.5130  -14.9020   11.9650 C   0  0  0  0  0  1  0  0  0  0  0  0
   10.7400  -12.6060   11.0070 C   0  0  0  0  0  2  0  0  0  0  0  0
   10.6230  -12.8580   12.4310 N   0  0  0  0  0  0  0  0  0  0  0  0
   11.4590  -12.8950   12.9890 H   0  0  0  0  0  0  0  0  0  0  0  0
    9.3790  -12.7090   13.0270 C   0  0  2  0  0  3  0  0  0  0  0  0
    8.5800  -13.7910   13.0280 N   0  0  0  0  0  0  0  0  0  0  0  0
    7.2890  -13.5850   13.2790 C   0  0  0  0  0  0  0  0  0  0  0  0
    6.7120  -12.3910   13.4290 N   0  0  0  0  0  2  0  0  0  0  0  0
    7.5150  -11.3110   13.4710 C   0  0  0  0  0  0  0  0  0  0  0  0
    6.9980  -10.0160   13.5840 C   0  0  0  0  0  0  0  0  0  0  0  0
    7.8050   -8.8790   13.7330 C   0  0  0  0  0  3  0  0  0  0  0  0
    9.1820   -9.0130   13.7040 C   0  0  0  0  0  3  0  0  0  0  0  0
    9.7310  -10.2710   13.4800 C   0  0  0  0  0  3  0  0  0  0  0  0
    8.9080  -11.4250   13.3540 C   0  0  0  0  0  0  0  0  0  0  0  0
    5.5550   -9.7720   13.4100 C   0  0  0  0  0  0  0  0  0  0  0  0
    4.8920  -10.7010   12.6530 N   0  0  0  0  0  0  0  0  0  0  0  0
    5.0200   -8.7480   13.8120 O   0  0  0  0  0  0  0  0  0  0  0  0
    3.9100  -10.5570   12.4670 H   0  0  0  0  0  0  0  0  0  0  0  0
    5.3410  -11.5350   12.3010 H   0  0  0  0  0  0  0  0  0  0  0  0
  1  6  2  0  0  0  0
  1  2  1  0  0  0  0
  2  3  2  0  0  0  0
  3  4  1  0  0  0  0
  5 20  1  0  0  0  0
  5  4  2  0  0  0  0
  6  5  1  0  0  0  0
  7  9  1  0  0  0  0
  7 13  1  0  0  0  0
  8  7  2  0  0  0  0
  9  1  1  0  0  0  0
 10  9  1  0  0  0  0
 11 12  1  1  0  0  0
 11 18  1  0  0  0  0
 13 12  1  6  0  0  0
 14 13  1  0  0  0  0
 14 15  1  0  0  0  0
 15 11  1  0  0  0  0
 16 14  1  0  0  0  0
 17 25  1  0  0  0  0
 18 19  1  1  0  0  0
 18 17  1  0  0  0  0
 20 21  1  0  0  0  0
 21 22  1  0  0  0  0
 21 23  1  0  0  0  0
 23 24  1  6  0  0  0
 23 32  1  0  0  0  0
 24 25  2  0  0  0  0
 25 26  1  0  0  0  0
 26 27  1  0  0  0  0
 27 28  1  0  0  0  0
 28 29  2  0  0  0  0
 30 29  1  0  0  0  0
 31 30  2  0  0  0  0
 32 27  2  0  0  0  0
 32 31  1  0  0  0  0
 33 28  1  0  0  0  0
 33 35  2  0  0  0  0
 34 33  1  0  0  0  0
 36 34  1  0  0  0  0
 37 34  1  0  0  0  0
M  END
>  <minimizedAffinity>
9.59969997

$$$$
