
 OpenBabel10152419143D

 37 40  0  0  1  0  0  0  0  0999 V2000
    9.9480  -11.5750   13.9090 C   0  0  0  0  0  0  0  0  0  0  0  0
   10.7310  -10.4220   13.9280 C   0  0  0  0  0  3  0  0  0  0  0  0
   10.1230   -9.1760   13.8050 C   0  0  0  0  0  3  0  0  0  0  0  0
    8.7350   -9.0860   13.6860 C   0  0  0  0  0  3  0  0  0  0  0  0
    7.9190  -10.2230   13.7800 C   0  0  0  0  0  0  0  0  0  0  0  0
    8.5490  -11.4660   13.9300 C   0  0  0  0  0  3  0  0  0  0  0  0
   10.1030  -14.0670   13.5490 C   0  0  0  0  0  0  0  0  0  0  0  0
   10.7860  -15.0540   13.8210 O   0  0  0  0  0  0  0  0  0  0  0  0
   10.6130  -12.8120   13.8240 N   0  0  0  0  0  0  0  0  0  0  0  0
   11.6190  -12.8120   13.9280 H   0  0  0  0  0  0  0  0  0  0  0  0
    6.7230  -14.6020   12.2870 C   0  0  1  0  0  3  0  0  0  0  0  0
    7.5260  -14.2290   13.3870 C   0  0  0  0  0  2  0  0  0  0  0  0
    8.8210  -14.1920   12.9030 C   0  0  1  0  0  3  0  0  0  0  0  0
    8.6780  -14.2740   11.5460 N   0  0  0  0  0  0  0  0  0  0  0  0
    7.4320  -14.5970   11.1510 N   0  0  0  0  0  2  0  0  0  0  0  0
    9.4110  -14.1980   10.8480 H   0  0  0  0  0  0  0  0  0  0  0  0
    4.7400  -15.0230   13.7660 C   0  0  0  0  0  1  0  0  0  0  0  0
    5.2800  -15.0240   12.3380 C   0  0  0  0  0  3  0  0  0  0  0  0
    4.3830  -14.1990   11.4130 C   0  0  0  0  0  1  0  0  0  0  0  0
    6.4060  -10.1410   13.6340 C   0  0  0  0  0  2  0  0  0  0  0  0
    5.8970  -11.0780   12.6490 N   0  0  0  0  0  0  0  0  0  0  0  0
    5.6120  -11.9940   12.9510 H   0  0  0  0  0  0  0  0  0  0  0  0
    5.5120  -10.5880   11.4100 C   0  0  0  0  0  0  0  0  0  0  0  0
    4.3150  -10.9920   10.9490 N   0  0  0  0  0  0  0  0  0  0  0  0
    4.0790  -10.8160    9.6510 C   0  0  0  0  0  3  0  0  0  0  0  0
    4.9640  -10.3680    8.7580 N   0  0  0  0  0  0  0  0  0  0  0  0
    6.1480   -9.9240    9.2230 C   0  0  0  0  0  0  0  0  0  0  0  0
    7.1530   -9.4750    8.3600 C   0  0  0  0  0  0  0  0  0  0  0  0
    8.3550   -8.9110    8.8110 C   0  0  0  0  0  3  0  0  0  0  0  0
    8.6090   -8.8460   10.1700 C   0  0  0  0  0  3  0  0  0  0  0  0
    7.6810   -9.3870   11.0540 C   0  0  0  0  0  3  0  0  0  0  0  0
    6.4520   -9.9350   10.5920 C   0  0  0  0  0  0  0  0  0  0  0  0
    7.0460   -9.7050    6.9080 C   0  0  0  0  0  0  0  0  0  0  0  0
    6.1470   -8.9070    6.2540 N   0  0  0  0  0  0  0  0  0  0  0  0
    7.6310  -10.6270    6.3560 O   0  0  0  0  0  0  0  0  0  0  0  0
    6.0040   -9.0530    5.2650 H   0  0  0  0  0  0  0  0  0  0  0  0
    5.6460   -8.1600    6.7160 H   0  0  0  0  0  0  0  0  0  0  0  0
  1  2  2  0  0  0  0
  1  6  1  0  0  0  0
  3  2  1  0  0  0  0
  4  5  1  0  0  0  0
  4  3  2  0  0  0  0
  5  6  2  0  0  0  0
  7  8  2  0  0  0  0
  7  9  1  0  0  0  0
  9  1  1  0  0  0  0
  9 10  1  0  0  0  0
 11 18  1  1  0  0  0
 11 12  1  0  0  0  0
 13 12  1  0  0  0  0
 13  7  1  6  0  0  0
 14 13  1  0  0  0  0
 15 14  1  0  0  0  0
 15 11  1  0  0  0  0
 16 14  1  0  0  0  0
 18 17  1  0  0  0  0
 19 18  1  0  0  0  0
 20  5  1  0  0  0  0
 21 22  1  0  0  0  0
 21 20  1  0  0  0  0
 23 21  1  0  0  0  0
 24 23  1  0  0  0  0
 25 24  2  0  0  0  0
 26 27  2  0  0  0  0
 26 25  1  0  0  0  0
 27 32  1  0  0  0  0
 28 29  2  0  0  0  0
 28 27  1  0  0  0  0
 29 30  1  0  0  0  0
 30 31  2  0  0  0  0
 32 31  1  0  0  0  0
 32 23  2  0  0  0  0
 33 28  1  0  0  0  0
 34 37  1  0  0  0  0
 34 33  1  0  0  0  0
 35 33  2  0  0  0  0
 36 34  1  0  0  0  0
M  END
>  <minimizedAffinity>
8.54594326

$$$$
