
 OpenBabel10152418523D

 39 43  0  0  0  0  0  0  0  0999 V2000
   10.6260   -9.5800   11.0500 C   0  0  0  0  0  0  0  0  0  0  0  0
   10.3100   -8.7260   12.1130 C   0  0  0  0  0  3  0  0  0  0  0  0
   10.1970   -9.2280   13.4030 C   0  0  0  0  0  3  0  0  0  0  0  0
   10.3740  -10.5930   13.6430 C   0  0  0  0  0  3  0  0  0  0  0  0
   10.6220  -11.4780   12.5910 C   0  0  0  0  0  0  0  0  0  0  0  0
   10.7750  -10.9560   11.3000 C   0  0  0  0  0  3  0  0  0  0  0  0
   10.7760  -12.8710   12.7440 N   0  0  0  0  0  0  0  0  0  0  0  0
    9.9290  -13.8420   13.2300 C   0  0  0  0  0  0  0  0  0  0  0  0
   10.3510  -14.9630   13.5040 O   0  0  0  0  0  0  0  0  0  0  0  0
   11.6750  -13.2600   12.4770 H   0  0  0  0  0  0  0  0  0  0  0  0
    8.4830  -13.5850   13.3600 C   0  0  0  0  0  0  0  0  0  0  0  0
    8.0580  -12.3300   13.8400 C   0  0  0  0  0  3  0  0  0  0  0  0
    6.6970  -12.0110   13.8560 C   0  0  0  0  0  3  0  0  0  0  0  0
    5.8110  -12.9660   13.4020 C   0  0  0  0  0  0  0  0  0  0  0  0
    6.2300  -14.2120   12.9840 C   0  0  0  0  0  0  0  0  0  0  0  0
    7.5600  -14.5650   12.9710 C   0  0  0  0  0  3  0  0  0  0  0  0
    5.2000  -14.9950   12.5650 O   0  0  0  0  0  0  0  0  0  0  0  0
    4.1220  -14.0550   12.6630 C   0  0  0  0  0  0  0  0  0  0  0  0
    3.6690  -13.7930   11.4110 F   0  0  0  0  0  0  0  0  0  0  0  0
    3.1070  -14.6260   13.3550 F   0  0  0  0  0  0  0  0  0  0  0  0
    4.4650  -12.8100   13.2890 O   0  0  0  0  0  0  0  0  0  0  0  0
   10.7890   -9.0230    9.6560 C   0  0  0  0  0  2  0  0  0  0  0  0
    4.9450  -10.5750    8.8690 C   0  0  0  0  0  0  0  0  0  0  0  0
    4.5710   -9.5920    7.9380 C   0  0  0  0  0  3  0  0  0  0  0  0
    5.5250   -8.7130    7.4540 C   0  0  0  0  0  3  0  0  0  0  0  0
    6.8370   -8.8220    7.9060 C   0  0  0  0  0  3  0  0  0  0  0  0
    7.2200   -9.8220    8.8420 C   0  0  0  0  0  0  0  0  0  0  0  0
    8.5300   -9.9710    9.3430 C   0  0  0  0  0  0  0  0  0  0  0  0
    9.5350   -9.1010    8.9330 N   0  0  0  0  0  0  0  0  0  0  0  0
    8.8390  -10.9100   10.2500 N   0  0  0  0  0  0  0  0  0  0  0  0
    7.8560  -11.7250   10.6340 C   0  0  0  0  0  3  0  0  0  0  0  0
    6.5930  -11.6870   10.2070 N   0  0  0  0  0  0  0  0  0  0  0  0
    6.2570  -10.7200    9.3350 C   0  0  0  0  0  0  0  0  0  0  0  0
    9.5880   -8.9310    7.9380 H   0  0  0  0  0  0  0  0  0  0  0  0
    3.4360  -12.4300    8.5510 N   0  0  0  0  0  0  0  0  0  0  0  0
    3.8730  -11.4450    9.3980 C   0  0  0  0  0  0  0  0  0  0  0  0
    3.3610  -11.2640   10.4940 O   0  0  0  0  0  0  0  0  0  0  0  0
    2.6990  -13.0340    8.8880 H   0  0  0  0  0  0  0  0  0  0  0  0
    3.8540  -12.6190    7.6540 H   0  0  0  0  0  0  0  0  0  0  0  0
  1  6  2  0  0  0  0
  1  2  1  0  0  0  0
  2  3  2  0  0  0  0
  3  4  1  0  0  0  0
  5  7  1  0  0  0  0
  5  4  2  0  0  0  0
  6  5  1  0  0  0  0
  7  8  1  0  0  0  0
  8 11  1  0  0  0  0
  8  9  2  0  0  0  0
 10  7  1  0  0  0  0
 11 12  1  0  0  0  0
 12 13  2  0  0  0  0
 14 13  1  0  0  0  0
 15 14  2  0  0  0  0
 16 15  1  0  0  0  0
 16 11  2  0  0  0  0
 17 18  1  0  0  0  0
 17 15  1  0  0  0  0
 18 21  1  0  0  0  0
 18 20  1  0  0  0  0
 19 18  1  0  0  0  0
 21 14  1  0  0  0  0
 22  1  1  0  0  0  0
 23 33  1  0  0  0  0
 23 36  1  0  0  0  0
 24 23  2  0  0  0  0
 25 26  2  0  0  0  0
 25 24  1  0  0  0  0
 26 27  1  0  0  0  0
 27 33  2  0  0  0  0
 27 28  1  0  0  0  0
 28 30  2  0  0  0  0
 29 28  1  0  0  0  0
 29 22  1  0  0  0  0
 30 31  1  0  0  0  0
 32 31  2  0  0  0  0
 33 32  1  0  0  0  0
 34 29  1  0  0  0  0
 35 38  1  0  0  0  0
 35 36  1  0  0  0  0
 36 37  2  0  0  0  0
 39 35  1  0  0  0  0
M  END
>  <minimizedAffinity>
19.5723572

$$$$
