
 OpenBabel11232419453D

 42 48  0  0  1  0  0  0  0  0999 V2000
   57.7730  -42.6640   15.9100 C   0  0  0  0  0  0  0  0  0  0  0  0
   59.1250  -42.7900   16.1570 N   0  0  0  0  0  0  0  0  0  0  0  0
   59.6690  -43.0520   14.9900 C   0  0  0  0  0  0  0  0  0  0  0  0
   58.7190  -43.1250   14.0110 N   0  0  0  0  0  0  0  0  0  0  0  0
   57.4880  -42.8500   14.5620 C   0  0  0  0  0  0  0  0  0  0  0  0
   59.0680  -43.3640   12.6230 C   0  0  0  0  0  2  0  0  0  0  0  0
   60.3300  -44.0440   12.4530 O   0  0  0  0  0  0  0  0  0  0  0  0
   61.3210  -43.7440   13.3530 C   0  0  0  0  0  0  0  0  0  0  0  0
   62.6330  -44.0000   12.9680 C   0  0  0  0  0  3  0  0  0  0  0  0
   63.6820  -43.7390   13.8570 C   0  0  0  0  0  3  0  0  0  0  0  0
   63.4270  -43.2370   15.1430 C   0  0  0  0  0  0  0  0  0  0  0  0
   62.0990  -43.0110   15.5280 C   0  0  0  0  0  3  0  0  0  0  0  0
   61.0520  -43.2640   14.6360 C   0  0  0  0  0  0  0  0  0  0  0  0
   64.5090  -42.9580   16.0730 C   0  0  0  0  0  0  0  0  0  0  0  0
   65.7430  -42.2920   15.8820 C   0  0  0  0  0  3  0  0  0  0  0  0
   66.4930  -42.2610   16.9860 N   0  0  0  0  0  0  0  0  0  0  0  0
   65.7400  -42.9010   17.8940 N   0  0  0  0  0  0  0  0  0  0  0  0
   64.5470  -43.3430   17.3970 C   0  0  0  0  0  3  0  0  0  0  0  0
   66.1060  -43.0070   18.8350 H   0  0  0  0  0  0  0  0  0  0  0  0
   55.0390  -41.9340   19.1690 C   0  0  0  0  0  0  0  0  0  0  0  0
   54.8250  -42.9440   18.2050 C   0  0  0  0  0  3  0  0  0  0  0  0
   55.7100  -43.1620   17.1430 C   0  0  0  0  0  3  0  0  0  0  0  0
   56.8440  -42.3630   16.9840 C   0  0  0  0  0  0  0  0  0  0  0  0
   57.0710  -41.3420   17.9050 C   0  0  0  0  0  3  0  0  0  0  0  0
   56.1860  -41.1360   18.9730 C   0  0  0  0  0  3  0  0  0  0  0  0
   53.5460  -43.7790   23.2370 C   0  0  0  0  0  1  0  0  0  0  0  0
   54.1470  -43.3480   21.9090 C   0  0  1  0  0  0  0  0  0  0  0  0
   53.1030  -42.9150   20.8450 C   0  0  0  0  0  2  0  0  0  0  0  0
   54.0790  -41.7760   20.4280 C   0  0  1  0  0  0  0  0  0  0  0  0
   54.6920  -41.8950   21.8580 C   0  0  0  0  0  2  0  0  0  0  0  0
   53.3550  -40.4960   20.2400 N   0  0  0  0  0  4  0  0  0  0  0  0
   54.0100  -39.7060   20.1630 H   0  0  0  0  0  0  0  0  0  0  0  0
   52.8260  -40.5080   19.3570 H   0  0  0  0  0  0  0  0  0  0  0  0
   52.6940  -40.2820   20.9950 H   0  0  0  0  0  0  0  0  0  0  0  0
   55.0630  -44.3530   21.4380 O   0  0  0  0  0  0  0  0  0  0  0  0
   55.6660  -44.5600   22.1780 H   0  0  0  0  0  0  0  0  0  0  0  0
   56.2450  -42.8350   13.8050 C   0  0  0  0  0  0  0  0  0  0  0  0
   55.6850  -41.6220   13.3930 C   0  0  0  0  0  3  0  0  0  0  0  0
   54.4860  -41.6070   12.6780 C   0  0  0  0  0  3  0  0  0  0  0  0
   53.8440  -42.8050   12.3670 C   0  0  0  0  0  3  0  0  0  0  0  0
   54.4000  -44.0190   12.7680 C   0  0  0  0  0  3  0  0  0  0  0  0
   55.5960  -44.0350   13.4850 C   0  0  0  0  0  3  0  0  0  0  0  0
  1  2  1  0  0  0  0
  1 23  1  0  0  0  0
  3  2  2  0  0  0  0
  4  5  1  0  0  0  0
  4  3  1  0  0  0  0
  5  1  2  0  0  0  0
  6  4  1  0  0  0  0
  7  6  1  0  0  0  0
  7  8  1  0  0  0  0
  8 13  1  0  0  0  0
  9  8  2  0  0  0  0
  9 10  1  0  0  0  0
 10 11  2  0  0  0  0
 11 12  1  0  0  0  0
 11 14  1  0  0  0  0
 13  3  1  0  0  0  0
 13 12  2  0  0  0  0
 14 18  2  0  0  0  0
 15 14  1  0  0  0  0
 15 16  2  0  0  0  0
 16 17  1  0  0  0  0
 17 19  1  0  0  0  0
 18 17  1  0  0  0  0
 20 29  1  0  0  0  0
 21 20  2  0  0  0  0
 22 21  1  0  0  0  0
 23 22  2  0  0  0  0
 23 24  1  0  0  0  0
 24 25  2  0  0  0  0
 25 20  1  0  0  0  0
 27 26  1  1  0  0  0
 28 27  1  0  0  0  0
 29 31  1  6  0  0  0
 29 28  1  0  0  0  0
 29 30  1  0  0  0  0
 30 27  1  0  0  0  0
 31 34  1  0  0  0  0
 32 31  1  0  0  0  0
 33 31  1  0  0  0  0
 35 27  1  0  0  0  0
 35 36  1  0  0  0  0
 37  5  1  0  0  0  0
 38 37  2  0  0  0  0
 39 38  1  0  0  0  0
 40 39  2  0  0  0  0
 40 41  1  0  0  0  0
 41 42  2  0  0  0  0
 42 37  1  0  0  0  0
M  END
>  <minimizedAffinity>
-3.92581892

$$$$
