
 OpenBabel11232419453D

 42 48  0  0  1  0  0  0  0  0999 V2000
   59.8260  -41.9790   17.0160 C   0  0  0  0  0  0  0  0  0  0  0  0
   58.6850  -42.5440   16.4850 N   0  0  0  0  0  0  0  0  0  0  0  0
   57.7240  -42.2510   17.3320 C   0  0  0  0  0  0  0  0  0  0  0  0
   58.2070  -41.5440   18.3960 N   0  0  0  0  0  0  0  0  0  0  0  0
   59.5530  -41.3240   18.2110 C   0  0  0  0  0  0  0  0  0  0  0  0
   57.3380  -41.0650   19.4540 C   0  0  0  0  0  2  0  0  0  0  0  0
   56.1180  -41.8260   19.5880 O   0  0  0  0  0  0  0  0  0  0  0  0
   55.5630  -42.3180   18.4340 C   0  0  0  0  0  0  0  0  0  0  0  0
   54.2090  -42.6340   18.4590 C   0  0  0  0  0  3  0  0  0  0  0  0
   53.5980  -43.1640   17.3180 C   0  0  0  0  0  3  0  0  0  0  0  0
   54.3380  -43.4000   16.1480 C   0  0  0  0  0  0  0  0  0  0  0  0
   55.7080  -43.1040   16.1470 C   0  0  0  0  0  3  0  0  0  0  0  0
   56.3160  -42.5660   17.2850 C   0  0  0  0  0  0  0  0  0  0  0  0
   53.7140  -43.9470   14.9550 C   0  0  0  0  0  0  0  0  0  0  0  0
   53.6670  -45.2720   14.4620 C   0  0  0  0  0  3  0  0  0  0  0  0
   53.0130  -45.3720   13.3020 N   0  0  0  0  0  0  0  0  0  0  0  0
   52.6310  -44.1110   13.0490 N   0  0  0  0  0  0  0  0  0  0  0  0
   53.0300  -43.2200   14.0040 C   0  0  0  0  0  3  0  0  0  0  0  0
   52.1040  -43.9280   12.2010 H   0  0  0  0  0  0  0  0  0  0  0  0
   63.6540  -42.4760   15.0850 C   0  0  0  0  0  0  0  0  0  0  0  0
   63.5210  -42.2850   16.4780 C   0  0  0  0  0  3  0  0  0  0  0  0
   62.2760  -42.1080   17.0920 C   0  0  0  0  0  3  0  0  0  0  0  0
   61.1020  -42.0960   16.3350 C   0  0  0  0  0  0  0  0  0  0  0  0
   61.2020  -42.2590   14.9540 C   0  0  0  0  0  3  0  0  0  0  0  0
   62.4510  -42.4460   14.3470 C   0  0  0  0  0  3  0  0  0  0  0  0
   66.1860  -45.3860   12.3830 C   0  0  0  0  0  1  0  0  0  0  0  0
   65.2140  -44.5770   13.2260 C   0  0  1  0  0  0  0  0  0  0  0  0
   65.7650  -44.1640   14.6170 C   0  0  0  0  0  2  0  0  0  0  0  0
   65.0680  -42.7840   14.4240 C   0  0  1  0  0  0  0  0  0  0  0  0
   65.1340  -43.0630   12.8900 C   0  0  0  0  0  2  0  0  0  0  0  0
   65.9640  -41.6740   14.8250 N   0  0  0  0  0  4  0  0  0  0  0  0
   65.5920  -40.7660   14.5150 H   0  0  0  0  0  0  0  0  0  0  0  0
   66.0280  -41.6150   15.8510 H   0  0  0  0  0  0  0  0  0  0  0  0
   66.9180  -41.7620   14.4590 H   0  0  0  0  0  0  0  0  0  0  0  0
   63.9430  -45.2490   13.2880 O   0  0  0  0  0  0  0  0  0  0  0  0
   63.6930  -45.4720   12.3710 H   0  0  0  0  0  0  0  0  0  0  0  0
   60.3920  -40.5960   19.1520 C   0  0  0  0  0  0  0  0  0  0  0  0
   61.7360  -40.3510   18.8550 C   0  0  0  0  0  3  0  0  0  0  0  0
   62.5450  -39.6650   19.7630 C   0  0  0  0  0  3  0  0  0  0  0  0
   62.0120  -39.2170   20.9700 C   0  0  0  0  0  3  0  0  0  0  0  0
   60.6710  -39.4510   21.2710 C   0  0  0  0  0  3  0  0  0  0  0  0
   59.8630  -40.1390   20.3660 C   0  0  0  0  0  3  0  0  0  0  0  0
  1  5  2  0  0  0  0
  2  1  1  0  0  0  0
  2  3  2  0  0  0  0
  3  4  1  0  0  0  0
  4  6  1  0  0  0  0
  5  4  1  0  0  0  0
  5 37  1  0  0  0  0
  6  7  1  0  0  0  0
  8  9  1  0  0  0  0
  8  7  1  0  0  0  0
 10  9  2  0  0  0  0
 11 10  1  0  0  0  0
 12 11  2  0  0  0  0
 12 13  1  0  0  0  0
 13  3  1  0  0  0  0
 13  8  2  0  0  0  0
 14 11  1  0  0  0  0
 15 14  1  0  0  0  0
 16 15  2  0  0  0  0
 17 16  1  0  0  0  0
 17 18  1  0  0  0  0
 18 14  2  0  0  0  0
 19 17  1  0  0  0  0
 20 21  1  0  0  0  0
 21 22  2  0  0  0  0
 23  1  1  0  0  0  0
 23 22  1  0  0  0  0
 24 23  2  0  0  0  0
 25 24  1  0  0  0  0
 25 20  2  0  0  0  0
 27 26  1  6  0  0  0
 27 35  1  0  0  0  0
 27 28  1  0  0  0  0
 29 28  1  0  0  0  0
 29 31  1  1  0  0  0
 29 20  1  0  0  0  0
 30 27  1  0  0  0  0
 30 29  1  0  0  0  0
 31 33  1  0  0  0  0
 32 31  1  0  0  0  0
 34 31  1  0  0  0  0
 36 35  1  0  0  0  0
 37 42  1  0  0  0  0
 38 37  2  0  0  0  0
 38 39  1  0  0  0  0
 39 40  2  0  0  0  0
 40 41  1  0  0  0  0
 42 41  2  0  0  0  0
M  END
>  <minimizedAffinity>
-1.59855175

$$$$
