
 OpenBabel11232419453D

 42 48  0  0  1  0  0  0  0  0999 V2000
   57.7730  -42.6640   15.9100 C   0  0  0  0  0  0  0  0  0  0  0  0
   59.1250  -42.7900   16.1570 N   0  0  0  0  0  0  0  0  0  0  0  0
   59.6690  -43.0520   14.9900 C   0  0  0  0  0  0  0  0  0  0  0  0
   58.7190  -43.1250   14.0110 N   0  0  0  0  0  0  0  0  0  0  0  0
   57.4880  -42.8500   14.5620 C   0  0  0  0  0  0  0  0  0  0  0  0
   59.0680  -43.3640   12.6230 C   0  0  0  0  0  2  0  0  0  0  0  0
   60.3300  -44.0440   12.4530 O   0  0  0  0  0  0  0  0  0  0  0  0
   61.3210  -43.7440   13.3530 C   0  0  0  0  0  0  0  0  0  0  0  0
   62.6330  -44.0000   12.9680 C   0  0  0  0  0  3  0  0  0  0  0  0
   63.6820  -43.7390   13.8570 C   0  0  0  0  0  3  0  0  0  0  0  0
   63.4270  -43.2370   15.1430 C   0  0  0  0  0  0  0  0  0  0  0  0
   62.0990  -43.0110   15.5280 C   0  0  0  0  0  3  0  0  0  0  0  0
   61.0520  -43.2640   14.6360 C   0  0  0  0  0  0  0  0  0  0  0  0
   64.5090  -42.9580   16.0730 C   0  0  0  0  0  0  0  0  0  0  0  0
   65.7430  -42.2920   15.8820 C   0  0  0  0  0  3  0  0  0  0  0  0
   66.4930  -42.2610   16.9860 N   0  0  0  0  0  0  0  0  0  0  0  0
   65.7400  -42.9010   17.8940 N   0  0  0  0  0  0  0  0  0  0  0  0
   64.5470  -43.3430   17.3970 C   0  0  0  0  0  3  0  0  0  0  0  0
   66.1060  -43.0070   18.8350 H   0  0  0  0  0  0  0  0  0  0  0  0
   55.0390  -41.9340   19.1690 C   0  0  0  0  0  0  0  0  0  0  0  0
   54.8250  -42.9440   18.2050 C   0  0  0  0  0  3  0  0  0  0  0  0
   55.7100  -43.1620   17.1430 C   0  0  0  0  0  3  0  0  0  0  0  0
   56.8440  -42.3630   16.9840 C   0  0  0  0  0  0  0  0  0  0  0  0
   57.0710  -41.3420   17.9050 C   0  0  0  0  0  3  0  0  0  0  0  0
   56.1860  -41.1360   18.9730 C   0  0  0  0  0  3  0  0  0  0  0  0
   53.5460  -43.7790   23.2370 C   0  0  0  0  0  1  0  0  0  0  0  0
   54.1470  -43.3480   21.9090 C   0  0  1  0  0  0  0  0  0  0  0  0
   53.1030  -42.9150   20.8450 C   0  0  0  0  0  2  0  0  0  0  0  0
   54.0790  -41.7760   20.4280 C   0  0  1  0  0  0  0  0  0  0  0  0
   54.6920  -41.8950   21.8580 C   0  0  0  0  0  2  0  0  0  0  0  0
   53.3550  -40.4960   20.2400 N   0  0  0  0  0  4  0  0  0  0  0  0
   54.0100  -39.7060   20.1630 H   0  0  0  0  0  0  0  0  0  0  0  0
   52.8260  -40.5080   19.3570 H   0  0  0  0  0  0  0  0  0  0  0  0
   52.6940  -40.2820   20.9950 H   0  0  0  0  0  0  0  0  0  0  0  0
   55.0630  -44.3530   21.4380 O   0  0  0  0  0  0  0  0  0  0  0  0
   55.6660  -44.5600   22.1780 H   0  0  0  0  0  0  0  0  0  0  0  0
   56.2450  -42.8350   13.8050 C   0  0  0  0  0  0  0  0  0  0  0  0
   55.6850  -41.6220   13.3930 C   0  0  0  0  0  3  0  0  0  0  0  0
   54.4860  -41.6070   12.6780 C   0  0  0  0  0  3  0  0  0  0  0  0
   53.8440  -42.8050   12.3670 C   0  0  0  0  0  3  0  0  0  0  0  0
   54.4000  -44.0190   12.7680 C   0  0  0  0  0  3  0  0  0  0  0  0
   55.5960  -44.0350   13.4850 C   0  0  0  0  0  3  0  0  0  0  0  0
  1  2  1  0  0  0  0
  1 23  1  0  0  0  0
  3  2  2  0  0  0  0
  4  5  1  0  0  0  0
  4  3  1  0  0  0  0
  5  1  2  0  0  0  0
  6  4  1  0  0  0  0
  7  6  1  0  0  0  0
  7  8  1  0  0  0  0
  8 13  1  0  0  0  0
  9  8  2  0  0  0  0
  9 10  1  0  0  0  0
 10 11  2  0  0  0  0
 11 12  1  0  0  0  0
 11 14  1  0  0  0  0
 13  3  1  0  0  0  0
 13 12  2  0  0  0  0
 14 18  2  0  0  0  0
 15 14  1  0  0  0  0
 15 16  2  0  0  0  0
 16 17  1  0  0  0  0
 17 19  1  0  0  0  0
 18 17  1  0  0  0  0
 20 29  1  0  0  0  0
 21 20  2  0  0  0  0
 22 21  1  0  0  0  0
 23 22  2  0  0  0  0
 23 24  1  0  0  0  0
 24 25  2  0  0  0  0
 25 20  1  0  0  0  0
 27 26  1  1  0  0  0
 28 27  1  0  0  0  0
 29 31  1  6  0  0  0
 29 28  1  0  0  0  0
 29 30  1  0  0  0  0
 30 27  1  0  0  0  0
 31 34  1  0  0  0  0
 32 31  1  0  0  0  0
 33 31  1  0  0  0  0
 35 27  1  0  0  0  0
 35 36  1  0  0  0  0
 37  5  1  0  0  0  0
 38 37  2  0  0  0  0
 39 38  1  0  0  0  0
 40 39  2  0  0  0  0
 40 41  1  0  0  0  0
 41 42  2  0  0  0  0
 42 37  1  0  0  0  0
M  END
>  <minimizedAffinity>
-3.92581892

$$$$

 OpenBabel11232419453D

 42 48  0  0  1  0  0  0  0  0999 V2000
   57.2810  -42.3890   16.0530 C   0  0  0  0  0  0  0  0  0  0  0  0
   58.5800  -42.4600   16.5130 N   0  0  0  0  0  0  0  0  0  0  0  0
   59.1960  -43.2810   15.6920 C   0  0  0  0  0  0  0  0  0  0  0  0
   58.3390  -43.7580   14.7420 N   0  0  0  0  0  0  0  0  0  0  0  0
   57.1030  -43.1810   14.9250 C   0  0  0  0  0  0  0  0  0  0  0  0
   58.7850  -44.6530   13.6910 C   0  0  0  0  0  2  0  0  0  0  0  0
   59.9700  -45.4030   14.0340 O   0  0  0  0  0  0  0  0  0  0  0  0
   60.9020  -44.7670   14.8150 C   0  0  0  0  0  0  0  0  0  0  0  0
   62.2040  -45.2520   14.7780 C   0  0  0  0  0  3  0  0  0  0  0  0
   63.1890  -44.6590   15.5750 C   0  0  0  0  0  3  0  0  0  0  0  0
   62.8770  -43.5870   16.4280 C   0  0  0  0  0  0  0  0  0  0  0  0
   61.5540  -43.1270   16.4750 C   0  0  0  0  0  3  0  0  0  0  0  0
   60.5720  -43.7160   15.6720 C   0  0  0  0  0  0  0  0  0  0  0  0
   63.8920  -42.9590   17.2570 C   0  0  0  0  0  0  0  0  0  0  0  0
   63.7700  -42.1140   18.3850 C   0  0  0  0  0  3  0  0  0  0  0  0
   64.9500  -41.7110   18.8620 N   0  0  0  0  0  0  0  0  0  0  0  0
   65.8360  -42.3020   18.0450 N   0  0  0  0  0  0  0  0  0  0  0  0
   65.2540  -43.0540   17.0650 C   0  0  0  0  0  3  0  0  0  0  0  0
   66.8250  -42.1420   18.2110 H   0  0  0  0  0  0  0  0  0  0  0  0
   54.4730  -39.7780   18.0330 C   0  0  0  0  0  0  0  0  0  0  0  0
   55.7370  -40.0940   18.5800 C   0  0  0  0  0  3  0  0  0  0  0  0
   56.6330  -40.9560   17.9370 C   0  0  0  0  0  3  0  0  0  0  0  0
   56.2980  -41.5570   16.7220 C   0  0  0  0  0  0  0  0  0  0  0  0
   55.0480  -41.2830   16.1680 C   0  0  0  0  0  3  0  0  0  0  0  0
   54.1590  -40.4110   16.8120 C   0  0  0  0  0  3  0  0  0  0  0  0
   53.0790  -35.2830   18.2370 C   0  0  0  0  0  1  0  0  0  0  0  0
   53.6580  -36.6720   18.0260 C   0  0  1  0  0  0  0  0  0  0  0  0
   54.0820  -37.3940   19.3330 C   0  0  0  0  0  2  0  0  0  0  0  0
   53.5160  -38.7120   18.7260 C   0  0  1  0  0  0  0  0  0  0  0  0
   52.6190  -37.8090   17.8230 C   0  0  0  0  0  2  0  0  0  0  0  0
   52.7190  -39.4600   19.7290 N   0  0  0  0  0  4  0  0  0  0  0  0
   52.1820  -40.2170   19.2850 H   0  0  0  0  0  0  0  0  0  0  0  0
   53.3380  -39.9170   20.4120 H   0  0  0  0  0  0  0  0  0  0  0  0
   52.0590  -38.8730   20.2500 H   0  0  0  0  0  0  0  0  0  0  0  0
   54.6990  -36.6230   17.0330 O   0  0  0  0  0  0  0  0  0  0  0  0
   54.3370  -36.1460   16.2630 H   0  0  0  0  0  0  0  0  0  0  0  0
   55.9460  -43.4600   14.0870 C   0  0  0  0  0  0  0  0  0  0  0  0
   55.5050  -42.5130   13.1570 C   0  0  0  0  0  3  0  0  0  0  0  0
   54.3870  -42.7740   12.3630 C   0  0  0  0  0  3  0  0  0  0  0  0
   53.7080  -43.9840   12.4900 C   0  0  0  0  0  3  0  0  0  0  0  0
   54.1460  -44.9370   13.4090 C   0  0  0  0  0  3  0  0  0  0  0  0
   55.2610  -44.6760   14.2070 C   0  0  0  0  0  3  0  0  0  0  0  0
  1  2  1  0  0  0  0
  1 23  1  0  0  0  0
  3  2  2  0  0  0  0
  4  5  1  0  0  0  0
  4  3  1  0  0  0  0
  5  1  2  0  0  0  0
  6  7  1  0  0  0  0
  6  4  1  0  0  0  0
  7  8  1  0  0  0  0
  8 13  1  0  0  0  0
  9  8  2  0  0  0  0
  9 10  1  0  0  0  0
 10 11  2  0  0  0  0
 11 12  1  0  0  0  0
 11 14  1  0  0  0  0
 13  3  1  0  0  0  0
 13 12  2  0  0  0  0
 14 15  1  0  0  0  0
 15 16  2  0  0  0  0
 17 19  1  0  0  0  0
 17 16  1  0  0  0  0
 18 14  2  0  0  0  0
 18 17  1  0  0  0  0
 20 21  1  0  0  0  0
 20 29  1  0  0  0  0
 22 21  2  0  0  0  0
 23 22  1  0  0  0  0
 24 23  2  0  0  0  0
 24 25  1  0  0  0  0
 25 20  2  0  0  0  0
 27 26  1  1  0  0  0
 27 28  1  0  0  0  0
 29 28  1  0  0  0  0
 29 31  1  1  0  0  0
 30 27  1  0  0  0  0
 30 29  1  0  0  0  0
 31 34  1  0  0  0  0
 31 33  1  0  0  0  0
 32 31  1  0  0  0  0
 35 27  1  0  0  0  0
 36 35  1  0  0  0  0
 37 42  1  0  0  0  0
 37  5  1  0  0  0  0
 38 37  2  0  0  0  0
 39 40  2  0  0  0  0
 39 38  1  0  0  0  0
 40 41  1  0  0  0  0
 41 42  2  0  0  0  0
M  END
>  <minimizedAffinity>
-3.63036084

$$$$

 OpenBabel11232419453D

 42 48  0  0  1  0  0  0  0  0999 V2000
   59.8260  -41.9790   17.0160 C   0  0  0  0  0  0  0  0  0  0  0  0
   58.6850  -42.5440   16.4850 N   0  0  0  0  0  0  0  0  0  0  0  0
   57.7240  -42.2510   17.3320 C   0  0  0  0  0  0  0  0  0  0  0  0
   58.2070  -41.5440   18.3960 N   0  0  0  0  0  0  0  0  0  0  0  0
   59.5530  -41.3240   18.2110 C   0  0  0  0  0  0  0  0  0  0  0  0
   57.3380  -41.0650   19.4540 C   0  0  0  0  0  2  0  0  0  0  0  0
   56.1180  -41.8260   19.5880 O   0  0  0  0  0  0  0  0  0  0  0  0
   55.5630  -42.3180   18.4340 C   0  0  0  0  0  0  0  0  0  0  0  0
   54.2090  -42.6340   18.4590 C   0  0  0  0  0  3  0  0  0  0  0  0
   53.5980  -43.1640   17.3180 C   0  0  0  0  0  3  0  0  0  0  0  0
   54.3380  -43.4000   16.1480 C   0  0  0  0  0  0  0  0  0  0  0  0
   55.7080  -43.1040   16.1470 C   0  0  0  0  0  3  0  0  0  0  0  0
   56.3160  -42.5660   17.2850 C   0  0  0  0  0  0  0  0  0  0  0  0
   53.7140  -43.9470   14.9550 C   0  0  0  0  0  0  0  0  0  0  0  0
   53.6670  -45.2720   14.4620 C   0  0  0  0  0  3  0  0  0  0  0  0
   53.0130  -45.3720   13.3020 N   0  0  0  0  0  0  0  0  0  0  0  0
   52.6310  -44.1110   13.0490 N   0  0  0  0  0  0  0  0  0  0  0  0
   53.0300  -43.2200   14.0040 C   0  0  0  0  0  3  0  0  0  0  0  0
   52.1040  -43.9280   12.2010 H   0  0  0  0  0  0  0  0  0  0  0  0
   63.6540  -42.4760   15.0850 C   0  0  0  0  0  0  0  0  0  0  0  0
   63.5210  -42.2850   16.4780 C   0  0  0  0  0  3  0  0  0  0  0  0
   62.2760  -42.1080   17.0920 C   0  0  0  0  0  3  0  0  0  0  0  0
   61.1020  -42.0960   16.3350 C   0  0  0  0  0  0  0  0  0  0  0  0
   61.2020  -42.2590   14.9540 C   0  0  0  0  0  3  0  0  0  0  0  0
   62.4510  -42.4460   14.3470 C   0  0  0  0  0  3  0  0  0  0  0  0
   66.1860  -45.3860   12.3830 C   0  0  0  0  0  1  0  0  0  0  0  0
   65.2140  -44.5770   13.2260 C   0  0  1  0  0  0  0  0  0  0  0  0
   65.7650  -44.1640   14.6170 C   0  0  0  0  0  2  0  0  0  0  0  0
   65.0680  -42.7840   14.4240 C   0  0  1  0  0  0  0  0  0  0  0  0
   65.1340  -43.0630   12.8900 C   0  0  0  0  0  2  0  0  0  0  0  0
   65.9640  -41.6740   14.8250 N   0  0  0  0  0  4  0  0  0  0  0  0
   65.5920  -40.7660   14.5150 H   0  0  0  0  0  0  0  0  0  0  0  0
   66.0280  -41.6150   15.8510 H   0  0  0  0  0  0  0  0  0  0  0  0
   66.9180  -41.7620   14.4590 H   0  0  0  0  0  0  0  0  0  0  0  0
   63.9430  -45.2490   13.2880 O   0  0  0  0  0  0  0  0  0  0  0  0
   63.6930  -45.4720   12.3710 H   0  0  0  0  0  0  0  0  0  0  0  0
   60.3920  -40.5960   19.1520 C   0  0  0  0  0  0  0  0  0  0  0  0
   61.7360  -40.3510   18.8550 C   0  0  0  0  0  3  0  0  0  0  0  0
   62.5450  -39.6650   19.7630 C   0  0  0  0  0  3  0  0  0  0  0  0
   62.0120  -39.2170   20.9700 C   0  0  0  0  0  3  0  0  0  0  0  0
   60.6710  -39.4510   21.2710 C   0  0  0  0  0  3  0  0  0  0  0  0
   59.8630  -40.1390   20.3660 C   0  0  0  0  0  3  0  0  0  0  0  0
  1  5  2  0  0  0  0
  2  1  1  0  0  0  0
  2  3  2  0  0  0  0
  3  4  1  0  0  0  0
  4  6  1  0  0  0  0
  5  4  1  0  0  0  0
  5 37  1  0  0  0  0
  6  7  1  0  0  0  0
  8  9  1  0  0  0  0
  8  7  1  0  0  0  0
 10  9  2  0  0  0  0
 11 10  1  0  0  0  0
 12 11  2  0  0  0  0
 12 13  1  0  0  0  0
 13  3  1  0  0  0  0
 13  8  2  0  0  0  0
 14 11  1  0  0  0  0
 15 14  1  0  0  0  0
 16 15  2  0  0  0  0
 17 16  1  0  0  0  0
 17 18  1  0  0  0  0
 18 14  2  0  0  0  0
 19 17  1  0  0  0  0
 20 21  1  0  0  0  0
 21 22  2  0  0  0  0
 23  1  1  0  0  0  0
 23 22  1  0  0  0  0
 24 23  2  0  0  0  0
 25 24  1  0  0  0  0
 25 20  2  0  0  0  0
 27 26  1  6  0  0  0
 27 35  1  0  0  0  0
 27 28  1  0  0  0  0
 29 28  1  0  0  0  0
 29 31  1  1  0  0  0
 29 20  1  0  0  0  0
 30 27  1  0  0  0  0
 30 29  1  0  0  0  0
 31 33  1  0  0  0  0
 32 31  1  0  0  0  0
 34 31  1  0  0  0  0
 36 35  1  0  0  0  0
 37 42  1  0  0  0  0
 38 37  2  0  0  0  0
 38 39  1  0  0  0  0
 39 40  2  0  0  0  0
 40 41  1  0  0  0  0
 42 41  2  0  0  0  0
M  END
>  <minimizedAffinity>
-1.59855175

$$$$
