
 OpenBabel10152419593D

 37 40  0  0  0  0  0  0  0  0999 V2000
    2.8480  -10.7880  -26.1960 C   0  0  0  0  0  0  0  0  0  0  0  0
    2.2870  -11.3470  -27.3460 C   0  0  0  0  0  3  0  0  0  0  0  0
    1.4210  -12.4270  -27.2350 C   0  0  0  0  0  3  0  0  0  0  0  0
    1.0900  -12.9270  -25.9770 C   0  0  0  0  0  3  0  0  0  0  0  0
    1.5470  -12.3140  -24.8000 C   0  0  0  0  0  0  0  0  0  0  0  0
    2.4260  -11.2280  -24.9340 C   0  0  0  0  0  3  0  0  0  0  0  0
    3.7430   -8.4580  -26.5980 C   0  0  0  0  0  0  0  0  0  0  0  0
    4.7220   -7.8220  -26.9840 O   0  0  0  0  0  0  0  0  0  0  0  0
    3.8460   -9.8150  -26.3810 N   0  0  0  0  0  0  0  0  0  0  0  0
    4.8090  -10.1230  -26.3170 H   0  0  0  0  0  0  0  0  0  0  0  0
    0.7330   -4.6880  -28.8710 C   0  0  0  0  0  1  0  0  0  0  0  0
    0.1570   -5.2460  -27.6770 N   0  0  0  0  0  0  0  0  0  0  0  0
    0.7650   -6.1630  -26.8650 C   0  0  0  0  0  0  0  0  0  0  0  0
    1.8730   -6.9030  -27.2380 C   0  0  0  0  0  3  0  0  0  0  0  0
    2.4940   -7.7220  -26.2900 C   0  0  0  0  0  0  0  0  0  0  0  0
    1.9270   -7.8770  -25.0330 C   0  0  0  0  0  3  0  0  0  0  0  0
    0.7920   -7.1450  -24.7610 C   0  0  0  0  0  3  0  0  0  0  0  0
    0.2230   -6.2880  -25.6390 N   0  0  0  0  0  0  0  0  0  0  0  0
   -0.6330   -4.7880  -27.2410 H   0  0  0  0  0  0  0  0  0  0  0  0
    1.2110  -12.8490  -23.4140 C   0  0  0  0  0  2  0  0  0  0  0  0
   -0.2060  -12.7560  -23.1130 N   0  0  0  0  0  0  0  0  0  0  0  0
   -0.8260  -13.4700  -23.4560 H   0  0  0  0  0  0  0  0  0  0  0  0
   -0.6660  -11.7580  -22.2700 C   0  0  0  0  0  0  0  0  0  0  0  0
   -0.7860  -12.0750  -20.9690 N   0  0  0  0  0  0  0  0  0  0  0  0
   -1.4990  -11.2490  -20.2100 C   0  0  0  0  0  3  0  0  0  0  0  0
   -2.1800  -10.1890  -20.6480 N   0  0  0  0  0  0  0  0  0  0  0  0
   -2.0420   -9.8450  -21.9440 C   0  0  0  0  0  0  0  0  0  0  0  0
   -2.7540   -8.7730  -22.4970 C   0  0  0  0  0  0  0  0  0  0  0  0
   -2.5670   -8.3460  -23.8210 C   0  0  0  0  0  3  0  0  0  0  0  0
   -1.6980   -9.0350  -24.6500 C   0  0  0  0  0  3  0  0  0  0  0  0
   -1.0490  -10.1610  -24.1580 C   0  0  0  0  0  3  0  0  0  0  0  0
   -1.2130  -10.5780  -22.8090 C   0  0  0  0  0  0  0  0  0  0  0  0
   -3.8320   -8.0900  -21.7440 C   0  0  0  0  0  0  0  0  0  0  0  0
   -3.5310   -7.7100  -20.4630 N   0  0  0  0  0  0  0  0  0  0  0  0
   -4.9580   -7.9740  -22.2020 O   0  0  0  0  0  0  0  0  0  0  0  0
   -4.2550   -7.2820  -19.9050 H   0  0  0  0  0  0  0  0  0  0  0  0
   -2.5940   -7.7780  -20.0870 H   0  0  0  0  0  0  0  0  0  0  0  0
  1  6  1  0  0  0  0
  2  3  1  0  0  0  0
  2  1  2  0  0  0  0
  3  4  2  0  0  0  0
  4  5  1  0  0  0  0
  5 20  1  0  0  0  0
  6  5  2  0  0  0  0
  7  9  1  0  0  0  0
  7 15  1  0  0  0  0
  8  7  2  0  0  0  0
  9 10  1  0  0  0  0
  9  1  1  0  0  0  0
 11 12  1  0  0  0  0
 12 19  1  0  0  0  0
 12 13  1  0  0  0  0
 13 18  1  0  0  0  0
 14 13  2  0  0  0  0
 14 15  1  0  0  0  0
 15 16  2  0  0  0  0
 16 17  1  0  0  0  0
 18 17  2  0  0  0  0
 20 21  1  0  0  0  0
 21 23  1  0  0  0  0
 22 21  1  0  0  0  0
 23 24  1  0  0  0  0
 24 25  2  0  0  0  0
 26 25  1  0  0  0  0
 27 26  2  0  0  0  0
 28 27  1  0  0  0  0
 28 33  1  0  0  0  0
 29 28  2  0  0  0  0
 30 31  2  0  0  0  0
 30 29  1  0  0  0  0
 31 32  1  0  0  0  0
 32 23  2  0  0  0  0
 32 27  1  0  0  0  0
 33 34  1  0  0  0  0
 34 37  1  0  0  0  0
 34 36  1  0  0  0  0
 35 33  2  0  0  0  0
M  END
>  <minimizedAffinity>
-9.12853241

$$$$
