
 OpenBabel10152419593D

 37 40  0  0  0  0  0  0  0  0999 V2000
    2.7900  -12.1600  -25.6730 C   0  0  0  0  0  0  0  0  0  0  0  0
    2.9640  -12.9540  -26.8080 C   0  0  0  0  0  3  0  0  0  0  0  0
    3.3470  -12.3680  -28.0080 C   0  0  0  0  0  3  0  0  0  0  0  0
    3.5870  -10.9950  -28.0650 C   0  0  0  0  0  3  0  0  0  0  0  0
    3.5320  -10.1910  -26.9160 C   0  0  0  0  0  0  0  0  0  0  0  0
    3.1380  -10.8020  -25.7160 C   0  0  0  0  0  3  0  0  0  0  0  0
    1.1550  -12.4270  -23.7640 C   0  0  0  0  0  0  0  0  0  0  0  0
    0.9840  -12.9590  -22.6680 O   0  0  0  0  0  0  0  0  0  0  0  0
    2.2380  -12.7800  -24.5390 N   0  0  0  0  0  0  0  0  0  0  0  0
    2.6610  -13.6500  -24.2360 H   0  0  0  0  0  0  0  0  0  0  0  0
   -1.9320   -8.5690  -21.7570 C   0  0  0  0  0  1  0  0  0  0  0  0
   -2.0060   -8.6830  -23.1880 N   0  0  0  0  0  0  0  0  0  0  0  0
   -1.3800   -9.6430  -23.9340 C   0  0  0  0  0  0  0  0  0  0  0  0
   -0.3550  -10.4400  -23.4560 C   0  0  0  0  0  3  0  0  0  0  0  0
    0.1320  -11.4760  -24.2590 C   0  0  0  0  0  0  0  0  0  0  0  0
   -0.3280  -11.6160  -25.5610 C   0  0  0  0  0  3  0  0  0  0  0  0
   -1.3120  -10.7460  -25.9770 C   0  0  0  0  0  3  0  0  0  0  0  0
   -1.8510   -9.7890  -25.1880 N   0  0  0  0  0  0  0  0  0  0  0  0
   -2.7410   -8.2020  -23.6910 H   0  0  0  0  0  0  0  0  0  0  0  0
    3.7760   -8.6890  -26.9560 C   0  0  0  0  0  2  0  0  0  0  0  0
    2.7890   -7.9470  -26.1940 N   0  0  0  0  0  0  0  0  0  0  0  0
    2.8100   -7.9940  -25.1900 H   0  0  0  0  0  0  0  0  0  0  0  0
    1.9090   -7.1010  -26.8490 C   0  0  0  0  0  0  0  0  0  0  0  0
    2.1780   -6.8330  -28.1380 N   0  0  0  0  0  0  0  0  0  0  0  0
    1.5360   -5.8060  -28.6880 C   0  0  0  0  0  3  0  0  0  0  0  0
    0.7240   -4.9660  -28.0430 N   0  0  0  0  0  0  0  0  0  0  0  0
    0.4250   -5.2440  -26.7590 C   0  0  0  0  0  0  0  0  0  0  0  0
   -0.3830   -4.3920  -25.9950 C   0  0  0  0  0  0  0  0  0  0  0  0
   -0.7750   -4.7000  -24.6820 C   0  0  0  0  0  3  0  0  0  0  0  0
   -0.3040   -5.8510  -24.0760 C   0  0  0  0  0  3  0  0  0  0  0  0
    0.5780   -6.6680  -24.7750 C   0  0  0  0  0  3  0  0  0  0  0  0
    0.9510   -6.3750  -26.1150 C   0  0  0  0  0  0  0  0  0  0  0  0
   -0.7880   -3.0570  -26.4940 C   0  0  0  0  0  0  0  0  0  0  0  0
    0.0850   -2.4370  -27.3460 N   0  0  0  0  0  0  0  0  0  0  0  0
   -1.7920   -2.4960  -26.0800 O   0  0  0  0  0  0  0  0  0  0  0  0
   -0.1370   -1.5070  -27.6710 H   0  0  0  0  0  0  0  0  0  0  0  0
    0.9020   -2.9050  -27.7150 H   0  0  0  0  0  0  0  0  0  0  0  0
  1  9  1  0  0  0  0
  2  1  2  0  0  0  0
  3  2  1  0  0  0  0
  4  3  2  0  0  0  0
  4  5  1  0  0  0  0
  5  6  2  0  0  0  0
  6  1  1  0  0  0  0
  7  8  2  0  0  0  0
  9 10  1  0  0  0  0
  9  7  1  0  0  0  0
 12 11  1  0  0  0  0
 13 14  1  0  0  0  0
 13 12  1  0  0  0  0
 15  7  1  0  0  0  0
 15 14  2  0  0  0  0
 16 15  1  0  0  0  0
 17 16  2  0  0  0  0
 17 18  1  0  0  0  0
 18 13  2  0  0  0  0
 19 12  1  0  0  0  0
 20  5  1  0  0  0  0
 20 21  1  0  0  0  0
 21 22  1  0  0  0  0
 23 21  1  0  0  0  0
 23 32  1  0  0  0  0
 24 23  2  0  0  0  0
 25 24  1  0  0  0  0
 25 26  2  0  0  0  0
 26 27  1  0  0  0  0
 27 32  2  0  0  0  0
 27 28  1  0  0  0  0
 28 29  2  0  0  0  0
 29 30  1  0  0  0  0
 31 30  2  0  0  0  0
 32 31  1  0  0  0  0
 33 35  2  0  0  0  0
 33 28  1  0  0  0  0
 34 33  1  0  0  0  0
 36 34  1  0  0  0  0
 37 34  1  0  0  0  0
M  END
>  <minimizedAffinity>
-9.1499815

$$$$

 OpenBabel10152419593D

 37 40  0  0  0  0  0  0  0  0999 V2000
    3.6580  -10.3970  -27.3650 C   0  0  0  0  0  0  0  0  0  0  0  0
    4.7220  -10.8880  -26.6080 C   0  0  0  0  0  3  0  0  0  0  0  0
    4.5290  -11.9830  -25.7750 C   0  0  0  0  0  3  0  0  0  0  0  0
    3.2830  -12.6070  -25.7260 C   0  0  0  0  0  3  0  0  0  0  0  0
    2.2280  -12.2090  -26.5610 C   0  0  0  0  0  0  0  0  0  0  0  0
    2.4420  -11.0960  -27.3890 C   0  0  0  0  0  3  0  0  0  0  0  0
    3.1910   -7.9900  -27.9790 C   0  0  0  0  0  0  0  0  0  0  0  0
    3.3700   -7.1310  -28.8410 O   0  0  0  0  0  0  0  0  0  0  0  0
    3.8670   -9.1880  -28.0520 N   0  0  0  0  0  0  0  0  0  0  0  0
    4.6570   -9.1480  -28.6860 H   0  0  0  0  0  0  0  0  0  0  0  0
   -0.8340   -4.6590  -26.9100 C   0  0  0  0  0  1  0  0  0  0  0  0
   -0.5600   -5.5940  -25.8530 N   0  0  0  0  0  0  0  0  0  0  0  0
    0.4700   -6.4930  -25.8440 C   0  0  0  0  0  0  0  0  0  0  0  0
    1.1980   -6.8360  -26.9700 C   0  0  0  0  0  3  0  0  0  0  0  0
    2.3120   -7.6700  -26.8300 C   0  0  0  0  0  0  0  0  0  0  0  0
    2.6020   -8.2360  -25.5970 C   0  0  0  0  0  3  0  0  0  0  0  0
    1.7940   -7.8840  -24.5380 C   0  0  0  0  0  3  0  0  0  0  0  0
    0.7600   -7.0180  -24.6380 N   0  0  0  0  0  0  0  0  0  0  0  0
   -0.9750   -5.4520  -24.9400 H   0  0  0  0  0  0  0  0  0  0  0  0
    0.8550  -12.8650  -26.5150 C   0  0  0  0  0  2  0  0  0  0  0  0
    0.2530  -12.7980  -25.1960 N   0  0  0  0  0  0  0  0  0  0  0  0
    0.5530  -13.4470  -24.4890 H   0  0  0  0  0  0  0  0  0  0  0  0
   -0.6360  -11.7790  -24.8970 C   0  0  0  0  0  0  0  0  0  0  0  0
   -0.9480  -10.9390  -25.8990 N   0  0  0  0  0  0  0  0  0  0  0  0
   -1.5460   -9.7980  -25.5650 C   0  0  0  0  0  3  0  0  0  0  0  0
   -1.7740   -9.3790  -24.3190 N   0  0  0  0  0  0  0  0  0  0  0  0
   -1.4920  -10.2270  -23.3110 C   0  0  0  0  0  0  0  0  0  0  0  0
   -1.6600   -9.8520  -21.9710 C   0  0  0  0  0  0  0  0  0  0  0  0
   -1.4510  -10.7430  -20.9060 C   0  0  0  0  0  3  0  0  0  0  0  0
   -0.9990  -12.0270  -21.1620 C   0  0  0  0  0  3  0  0  0  0  0  0
   -0.7320  -12.3970  -22.4750 C   0  0  0  0  0  3  0  0  0  0  0  0
   -0.9720  -11.5080  -23.5570 C   0  0  0  0  0  0  0  0  0  0  0  0
   -1.9670   -8.4530  -21.5920 C   0  0  0  0  0  0  0  0  0  0  0  0
   -1.2140   -7.4820  -22.1950 N   0  0  0  0  0  0  0  0  0  0  0  0
   -2.7690   -8.1910  -20.7090 O   0  0  0  0  0  0  0  0  0  0  0  0
   -1.3650   -6.5200  -21.9280 H   0  0  0  0  0  0  0  0  0  0  0  0
   -0.5690   -7.6890  -22.9460 H   0  0  0  0  0  0  0  0  0  0  0  0
  1  2  1  0  0  0  0
  2  3  2  0  0  0  0
  3  4  1  0  0  0  0
  5 20  1  0  0  0  0
  5  4  2  0  0  0  0
  6  1  2  0  0  0  0
  6  5  1  0  0  0  0
  7 15  1  0  0  0  0
  8  7  2  0  0  0  0
  9  7  1  0  0  0  0
  9  1  1  0  0  0  0
 10  9  1  0  0  0  0
 11 12  1  0  0  0  0
 12 13  1  0  0  0  0
 12 19  1  0  0  0  0
 13 18  1  0  0  0  0
 14 15  1  0  0  0  0
 14 13  2  0  0  0  0
 15 16  2  0  0  0  0
 16 17  1  0  0  0  0
 18 17  2  0  0  0  0
 20 21  1  0  0  0  0
 21 23  1  0  0  0  0
 21 22  1  0  0  0  0
 23 32  1  0  0  0  0
 24 25  1  0  0  0  0
 24 23  2  0  0  0  0
 25 26  2  0  0  0  0
 26 27  1  0  0  0  0
 27 28  1  0  0  0  0
 28 33  1  0  0  0  0
 28 29  2  0  0  0  0
 30 29  1  0  0  0  0
 31 30  2  0  0  0  0
 32 27  2  0  0  0  0
 32 31  1  0  0  0  0
 33 35  2  0  0  0  0
 34 36  1  0  0  0  0
 34 33  1  0  0  0  0
 37 34  1  0  0  0  0
M  END
>  <minimizedAffinity>
-9.14492893

$$$$

 OpenBabel10152419593D

 37 40  0  0  0  0  0  0  0  0999 V2000
    2.8480  -10.7880  -26.1960 C   0  0  0  0  0  0  0  0  0  0  0  0
    2.2870  -11.3470  -27.3460 C   0  0  0  0  0  3  0  0  0  0  0  0
    1.4210  -12.4270  -27.2350 C   0  0  0  0  0  3  0  0  0  0  0  0
    1.0900  -12.9270  -25.9770 C   0  0  0  0  0  3  0  0  0  0  0  0
    1.5470  -12.3140  -24.8000 C   0  0  0  0  0  0  0  0  0  0  0  0
    2.4260  -11.2280  -24.9340 C   0  0  0  0  0  3  0  0  0  0  0  0
    3.7430   -8.4580  -26.5980 C   0  0  0  0  0  0  0  0  0  0  0  0
    4.7220   -7.8220  -26.9840 O   0  0  0  0  0  0  0  0  0  0  0  0
    3.8460   -9.8150  -26.3810 N   0  0  0  0  0  0  0  0  0  0  0  0
    4.8090  -10.1230  -26.3170 H   0  0  0  0  0  0  0  0  0  0  0  0
    0.7330   -4.6880  -28.8710 C   0  0  0  0  0  1  0  0  0  0  0  0
    0.1570   -5.2460  -27.6770 N   0  0  0  0  0  0  0  0  0  0  0  0
    0.7650   -6.1630  -26.8650 C   0  0  0  0  0  0  0  0  0  0  0  0
    1.8730   -6.9030  -27.2380 C   0  0  0  0  0  3  0  0  0  0  0  0
    2.4940   -7.7220  -26.2900 C   0  0  0  0  0  0  0  0  0  0  0  0
    1.9270   -7.8770  -25.0330 C   0  0  0  0  0  3  0  0  0  0  0  0
    0.7920   -7.1450  -24.7610 C   0  0  0  0  0  3  0  0  0  0  0  0
    0.2230   -6.2880  -25.6390 N   0  0  0  0  0  0  0  0  0  0  0  0
   -0.6330   -4.7880  -27.2410 H   0  0  0  0  0  0  0  0  0  0  0  0
    1.2110  -12.8490  -23.4140 C   0  0  0  0  0  2  0  0  0  0  0  0
   -0.2060  -12.7560  -23.1130 N   0  0  0  0  0  0  0  0  0  0  0  0
   -0.8260  -13.4700  -23.4560 H   0  0  0  0  0  0  0  0  0  0  0  0
   -0.6660  -11.7580  -22.2700 C   0  0  0  0  0  0  0  0  0  0  0  0
   -0.7860  -12.0750  -20.9690 N   0  0  0  0  0  0  0  0  0  0  0  0
   -1.4990  -11.2490  -20.2100 C   0  0  0  0  0  3  0  0  0  0  0  0
   -2.1800  -10.1890  -20.6480 N   0  0  0  0  0  0  0  0  0  0  0  0
   -2.0420   -9.8450  -21.9440 C   0  0  0  0  0  0  0  0  0  0  0  0
   -2.7540   -8.7730  -22.4970 C   0  0  0  0  0  0  0  0  0  0  0  0
   -2.5670   -8.3460  -23.8210 C   0  0  0  0  0  3  0  0  0  0  0  0
   -1.6980   -9.0350  -24.6500 C   0  0  0  0  0  3  0  0  0  0  0  0
   -1.0490  -10.1610  -24.1580 C   0  0  0  0  0  3  0  0  0  0  0  0
   -1.2130  -10.5780  -22.8090 C   0  0  0  0  0  0  0  0  0  0  0  0
   -3.8320   -8.0900  -21.7440 C   0  0  0  0  0  0  0  0  0  0  0  0
   -3.5310   -7.7100  -20.4630 N   0  0  0  0  0  0  0  0  0  0  0  0
   -4.9580   -7.9740  -22.2020 O   0  0  0  0  0  0  0  0  0  0  0  0
   -4.2550   -7.2820  -19.9050 H   0  0  0  0  0  0  0  0  0  0  0  0
   -2.5940   -7.7780  -20.0870 H   0  0  0  0  0  0  0  0  0  0  0  0
  1  6  1  0  0  0  0
  2  3  1  0  0  0  0
  2  1  2  0  0  0  0
  3  4  2  0  0  0  0
  4  5  1  0  0  0  0
  5 20  1  0  0  0  0
  6  5  2  0  0  0  0
  7  9  1  0  0  0  0
  7 15  1  0  0  0  0
  8  7  2  0  0  0  0
  9 10  1  0  0  0  0
  9  1  1  0  0  0  0
 11 12  1  0  0  0  0
 12 19  1  0  0  0  0
 12 13  1  0  0  0  0
 13 18  1  0  0  0  0
 14 13  2  0  0  0  0
 14 15  1  0  0  0  0
 15 16  2  0  0  0  0
 16 17  1  0  0  0  0
 18 17  2  0  0  0  0
 20 21  1  0  0  0  0
 21 23  1  0  0  0  0
 22 21  1  0  0  0  0
 23 24  1  0  0  0  0
 24 25  2  0  0  0  0
 26 25  1  0  0  0  0
 27 26  2  0  0  0  0
 28 27  1  0  0  0  0
 28 33  1  0  0  0  0
 29 28  2  0  0  0  0
 30 31  2  0  0  0  0
 30 29  1  0  0  0  0
 31 32  1  0  0  0  0
 32 23  2  0  0  0  0
 32 27  1  0  0  0  0
 33 34  1  0  0  0  0
 34 37  1  0  0  0  0
 34 36  1  0  0  0  0
 35 33  2  0  0  0  0
M  END
>  <minimizedAffinity>
-9.12853241

$$$$

 OpenBabel10152419593D

 37 40  0  0  0  0  0  0  0  0999 V2000
    1.7610  -12.6170  -25.0150 C   0  0  0  0  0  0  0  0  0  0  0  0
    1.0510  -12.9590  -26.1670 C   0  0  0  0  0  3  0  0  0  0  0  0
    1.4910  -12.5130  -27.4070 C   0  0  0  0  0  3  0  0  0  0  0  0
    2.6570  -11.7530  -27.4980 C   0  0  0  0  0  3  0  0  0  0  0  0
    3.4530  -11.4910  -26.3720 C   0  0  0  0  0  0  0  0  0  0  0  0
    2.9870  -11.9460  -25.1290 C   0  0  0  0  0  3  0  0  0  0  0  0
    0.2860  -12.2490  -22.9950 C   0  0  0  0  0  0  0  0  0  0  0  0
    0.0850  -12.6000  -21.8340 O   0  0  0  0  0  0  0  0  0  0  0  0
    1.1740  -12.9500  -23.7820 N   0  0  0  0  0  0  0  0  0  0  0  0
    1.3920  -13.8620  -23.3980 H   0  0  0  0  0  0  0  0  0  0  0  0
   -2.1940   -7.9060  -21.1420 C   0  0  0  0  0  1  0  0  0  0  0  0
   -2.1790   -7.9960  -22.5780 N   0  0  0  0  0  0  0  0  0  0  0  0
   -1.6830   -9.0490  -23.2950 C   0  0  0  0  0  0  0  0  0  0  0  0
   -0.8580  -10.0220  -22.7590 C   0  0  0  0  0  3  0  0  0  0  0  0
   -0.5080  -11.1240  -23.5440 C   0  0  0  0  0  0  0  0  0  0  0  0
   -0.8860  -11.1710  -24.8790 C   0  0  0  0  0  3  0  0  0  0  0  0
   -1.6610  -10.1330  -25.3490 C   0  0  0  0  0  3  0  0  0  0  0  0
   -2.0760   -9.0990  -24.5820 N   0  0  0  0  0  0  0  0  0  0  0  0
   -2.7740   -7.3850  -23.1230 H   0  0  0  0  0  0  0  0  0  0  0  0
    4.7220  -10.6520  -26.4440 C   0  0  0  0  0  2  0  0  0  0  0  0
    4.4650   -9.2400  -26.2320 N   0  0  0  0  0  0  0  0  0  0  0  0
    4.9620   -8.7560  -25.5050 H   0  0  0  0  0  0  0  0  0  0  0  0
    3.6300   -8.5560  -27.1010 C   0  0  0  0  0  0  0  0  0  0  0  0
    4.0830   -8.3730  -28.3530 N   0  0  0  0  0  0  0  0  0  0  0  0
    3.4470   -7.4740  -29.1000 C   0  0  0  0  0  3  0  0  0  0  0  0
    2.4640   -6.6760  -28.6810 N   0  0  0  0  0  0  0  0  0  0  0  0
    1.9840   -6.8720  -27.4370 C   0  0  0  0  0  0  0  0  0  0  0  0
    0.9820   -6.0520  -26.9010 C   0  0  0  0  0  0  0  0  0  0  0  0
    0.4090   -6.2860  -25.6410 C   0  0  0  0  0  3  0  0  0  0  0  0
    0.8790   -7.3220  -24.8530 C   0  0  0  0  0  3  0  0  0  0  0  0
    1.9380   -8.0940  -25.3180 C   0  0  0  0  0  3  0  0  0  0  0  0
    2.4990   -7.8790  -26.6050 C   0  0  0  0  0  0  0  0  0  0  0  0
    0.5410   -4.8180  -27.5930 C   0  0  0  0  0  0  0  0  0  0  0  0
    1.4680   -4.2080  -28.3950 N   0  0  0  0  0  0  0  0  0  0  0  0
   -0.5500   -4.3140  -27.3700 O   0  0  0  0  0  0  0  0  0  0  0  0
    1.2170   -3.3400  -28.8470 H   0  0  0  0  0  0  0  0  0  0  0  0
    2.3610   -4.6320  -28.6050 H   0  0  0  0  0  0  0  0  0  0  0  0
  1  9  1  0  0  0  0
  2  1  2  0  0  0  0
  3  2  1  0  0  0  0
  4  3  2  0  0  0  0
  4  5  1  0  0  0  0
  5  6  2  0  0  0  0
  6  1  1  0  0  0  0
  7  8  2  0  0  0  0
  9 10  1  0  0  0  0
  9  7  1  0  0  0  0
 12 11  1  0  0  0  0
 13 14  1  0  0  0  0
 13 12  1  0  0  0  0
 15  7  1  0  0  0  0
 15 14  2  0  0  0  0
 16 15  1  0  0  0  0
 17 16  2  0  0  0  0
 17 18  1  0  0  0  0
 18 13  2  0  0  0  0
 19 12  1  0  0  0  0
 20  5  1  0  0  0  0
 20 21  1  0  0  0  0
 21 22  1  0  0  0  0
 23 32  1  0  0  0  0
 23 21  1  0  0  0  0
 24 23  2  0  0  0  0
 25 26  2  0  0  0  0
 25 24  1  0  0  0  0
 26 27  1  0  0  0  0
 27 28  2  0  0  0  0
 27 32  1  0  0  0  0
 28 29  1  0  0  0  0
 29 30  2  0  0  0  0
 31 30  1  0  0  0  0
 32 31  2  0  0  0  0
 33 35  2  0  0  0  0
 33 28  1  0  0  0  0
 34 33  1  0  0  0  0
 36 34  1  0  0  0  0
 37 34  1  0  0  0  0
M  END
>  <minimizedAffinity>
-8.76977253

$$$$

 OpenBabel10152419593D

 37 40  0  0  0  0  0  0  0  0999 V2000
    2.5580  -11.9760  -24.7820 C   0  0  0  0  0  0  0  0  0  0  0  0
    3.4440  -12.7320  -25.5500 C   0  0  0  0  0  3  0  0  0  0  0  0
    4.0930  -12.1480  -26.6310 C   0  0  0  0  0  3  0  0  0  0  0  0
    3.8820  -10.8010  -26.9220 C   0  0  0  0  0  3  0  0  0  0  0  0
    3.0870   -9.9870  -26.1000 C   0  0  0  0  0  0  0  0  0  0  0  0
    2.4360  -10.5990  -25.0170 C   0  0  0  0  0  3  0  0  0  0  0  0
    0.5790  -12.3680  -23.2590 C   0  0  0  0  0  0  0  0  0  0  0  0
    0.2040  -12.9590  -22.2480 O   0  0  0  0  0  0  0  0  0  0  0  0
    1.8050  -12.6630  -23.8140 N   0  0  0  0  0  0  0  0  0  0  0  0
    2.1800  -13.5410  -23.4740 H   0  0  0  0  0  0  0  0  0  0  0  0
   -2.4150   -8.2000  -21.8040 C   0  0  0  0  0  1  0  0  0  0  0  0
   -2.3900   -8.4280  -23.2240 N   0  0  0  0  0  0  0  0  0  0  0  0
   -1.7690   -9.4770  -23.8420 C   0  0  0  0  0  0  0  0  0  0  0  0
   -0.8300  -10.2850  -23.2250 C   0  0  0  0  0  3  0  0  0  0  0  0
   -0.3480  -11.4080  -23.9040 C   0  0  0  0  0  0  0  0  0  0  0  0
   -0.7180  -11.6300  -25.2230 C   0  0  0  0  0  3  0  0  0  0  0  0
   -1.6160  -10.7470  -25.7810 C   0  0  0  0  0  3  0  0  0  0  0  0
   -2.1540   -9.7000  -25.1130 N   0  0  0  0  0  0  0  0  0  0  0  0
   -3.0570   -7.9510  -23.8190 H   0  0  0  0  0  0  0  0  0  0  0  0
    2.8310   -8.5180  -26.4050 C   0  0  0  0  0  2  0  0  0  0  0  0
    1.4170   -8.1880  -26.3910 N   0  0  0  0  0  0  0  0  0  0  0  0
    0.7570   -8.8500  -26.7610 H   0  0  0  0  0  0  0  0  0  0  0  0
    0.9880   -7.0260  -25.7710 C   0  0  0  0  0  0  0  0  0  0  0  0
    0.4900   -7.1550  -24.5280 N   0  0  0  0  0  0  0  0  0  0  0  0
   -0.1950   -6.1230  -24.0430 C   0  0  0  0  0  3  0  0  0  0  0  0
   -0.5080   -5.0160  -24.7170 N   0  0  0  0  0  0  0  0  0  0  0  0
    0.0120   -4.8650  -25.9520 C   0  0  0  0  0  0  0  0  0  0  0  0
   -0.3010   -3.7540  -26.7460 C   0  0  0  0  0  0  0  0  0  0  0  0
    0.2900   -3.5340  -28.0010 C   0  0  0  0  0  3  0  0  0  0  0  0
    1.1670   -4.4680  -28.5220 C   0  0  0  0  0  3  0  0  0  0  0  0
    1.4230   -5.6280  -27.7990 C   0  0  0  0  0  3  0  0  0  0  0  0
    0.8510   -5.8390  -26.5150 C   0  0  0  0  0  0  0  0  0  0  0  0
   -1.3600   -2.7950  -26.3530 C   0  0  0  0  0  0  0  0  0  0  0  0
   -1.0660   -1.9620  -25.3070 N   0  0  0  0  0  0  0  0  0  0  0  0
   -2.4700   -2.8240  -26.8610 O   0  0  0  0  0  0  0  0  0  0  0  0
   -1.7800   -1.3250  -24.9830 H   0  0  0  0  0  0  0  0  0  0  0  0
   -0.1410   -1.9130  -24.9000 H   0  0  0  0  0  0  0  0  0  0  0  0
  1  9  1  0  0  0  0
  2  1  2  0  0  0  0
  3  2  1  0  0  0  0
  4  3  2  0  0  0  0
  4  5  1  0  0  0  0
  5  6  2  0  0  0  0
  6  1  1  0  0  0  0
  7  8  2  0  0  0  0
  9 10  1  0  0  0  0
  9  7  1  0  0  0  0
 12 11  1  0  0  0  0
 13 14  1  0  0  0  0
 13 12  1  0  0  0  0
 15  7  1  0  0  0  0
 15 14  2  0  0  0  0
 16 15  1  0  0  0  0
 17 16  2  0  0  0  0
 17 18  1  0  0  0  0
 18 13  2  0  0  0  0
 19 12  1  0  0  0  0
 20 21  1  0  0  0  0
 20  5  1  0  0  0  0
 21 23  1  0  0  0  0
 22 21  1  0  0  0  0
 23 24  1  0  0  0  0
 24 25  2  0  0  0  0
 26 25  1  0  0  0  0
 27 26  2  0  0  0  0
 28 33  1  0  0  0  0
 28 27  1  0  0  0  0
 29 28  2  0  0  0  0
 30 29  1  0  0  0  0
 30 31  2  0  0  0  0
 31 32  1  0  0  0  0
 32 27  1  0  0  0  0
 32 23  2  0  0  0  0
 33 34  1  0  0  0  0
 34 36  1  0  0  0  0
 34 37  1  0  0  0  0
 35 33  2  0  0  0  0
M  END
>  <minimizedAffinity>
-8.72927094

$$$$

 OpenBabel10152419593D

 37 40  0  0  0  0  0  0  0  0999 V2000
   -0.1000   -5.2010  -25.6980 C   0  0  0  0  0  0  0  0  0  0  0  0
   -0.7180   -4.0290  -26.1360 C   0  0  0  0  0  3  0  0  0  0  0  0
   -0.4130   -3.5150  -27.3900 C   0  0  0  0  0  3  0  0  0  0  0  0
    0.4820   -4.1900  -28.2190 C   0  0  0  0  0  3  0  0  0  0  0  0
    1.0300   -5.4290  -27.8530 C   0  0  0  0  0  0  0  0  0  0  0  0
    0.7140   -5.9270  -26.5800 C   0  0  0  0  0  3  0  0  0  0  0  0
   -0.8960   -6.7080  -23.8310 C   0  0  0  0  0  0  0  0  0  0  0  0
   -1.2170   -6.7350  -22.6440 O   0  0  0  0  0  0  0  0  0  0  0  0
   -0.3160   -5.5760  -24.3610 N   0  0  0  0  0  0  0  0  0  0  0  0
    0.0300   -4.9490  -23.6440 H   0  0  0  0  0  0  0  0  0  0  0  0
   -0.7620  -11.9820  -23.0530 C   0  0  0  0  0  1  0  0  0  0  0  0
   -1.1720  -11.6030  -24.3780 N   0  0  0  0  0  0  0  0  0  0  0  0
   -1.2060  -10.3220  -24.8550 C   0  0  0  0  0  0  0  0  0  0  0  0
   -1.1490   -9.2000  -24.0460 C   0  0  0  0  0  3  0  0  0  0  0  0
   -1.0630   -7.9380  -24.6410 C   0  0  0  0  0  0  0  0  0  0  0  0
   -1.1600   -7.8150  -26.0200 C   0  0  0  0  0  3  0  0  0  0  0  0
   -1.2690   -8.9790  -26.7480 C   0  0  0  0  0  3  0  0  0  0  0  0
   -1.2730  -10.2140  -26.1950 N   0  0  0  0  0  0  0  0  0  0  0  0
   -1.2120  -12.3030  -25.1090 H   0  0  0  0  0  0  0  0  0  0  0  0
    2.0210   -6.1780  -28.7340 C   0  0  0  0  0  2  0  0  0  0  0  0
    3.2830   -6.4270  -28.0610 N   0  0  0  0  0  0  0  0  0  0  0  0
    3.7260   -5.6760  -27.5610 H   0  0  0  0  0  0  0  0  0  0  0  0
    3.7990   -7.7120  -28.0210 C   0  0  0  0  0  0  0  0  0  0  0  0
    4.4840   -8.1190  -29.1040 N   0  0  0  0  0  0  0  0  0  0  0  0
    4.7200   -9.4240  -29.2120 C   0  0  0  0  0  3  0  0  0  0  0  0
    4.2540  -10.3660  -28.3900 N   0  0  0  0  0  0  0  0  0  0  0  0
    3.5920   -9.9640  -27.2870 C   0  0  0  0  0  0  0  0  0  0  0  0
    3.0320  -10.8870  -26.3940 C   0  0  0  0  0  0  0  0  0  0  0  0
    2.4090  -10.4960  -25.1980 C   0  0  0  0  0  3  0  0  0  0  0  0
    2.2740   -9.1520  -24.9000 C   0  0  0  0  0  3  0  0  0  0  0  0
    2.7350   -8.2100  -25.8130 C   0  0  0  0  0  3  0  0  0  0  0  0
    3.3930   -8.6030  -27.0090 C   0  0  0  0  0  0  0  0  0  0  0  0
    2.9690  -12.3330  -26.7130 C   0  0  0  0  0  0  0  0  0  0  0  0
    4.1640  -12.9500  -26.9690 N   0  0  0  0  0  0  0  0  0  0  0  0
    1.9020  -12.9120  -26.8490 O   0  0  0  0  0  0  0  0  0  0  0  0
    4.1550  -13.9250  -27.2340 H   0  0  0  0  0  0  0  0  0  0  0  0
    5.0510  -12.4850  -26.8320 H   0  0  0  0  0  0  0  0  0  0  0  0
  1  9  1  0  0  0  0
  2  1  1  0  0  0  0
  3  2  2  0  0  0  0
  4  5  2  0  0  0  0
  4  3  1  0  0  0  0
  5  6  1  0  0  0  0
  6  1  2  0  0  0  0
  7  8  2  0  0  0  0
  9  7  1  0  0  0  0
  9 10  1  0  0  0  0
 12 11  1  0  0  0  0
 13 12  1  0  0  0  0
 13 14  1  0  0  0  0
 15 14  2  0  0  0  0
 15  7  1  0  0  0  0
 16 15  1  0  0  0  0
 17 18  1  0  0  0  0
 17 16  2  0  0  0  0
 18 13  2  0  0  0  0
 19 12  1  0  0  0  0
 20 21  1  0  0  0  0
 20  5  1  0  0  0  0
 21 23  1  0  0  0  0
 21 22  1  0  0  0  0
 23 32  1  0  0  0  0
 24 23  2  0  0  0  0
 25 24  1  0  0  0  0
 25 26  2  0  0  0  0
 26 27  1  0  0  0  0
 27 32  2  0  0  0  0
 27 28  1  0  0  0  0
 28 29  2  0  0  0  0
 29 30  1  0  0  0  0
 31 30  2  0  0  0  0
 32 31  1  0  0  0  0
 33 28  1  0  0  0  0
 34 37  1  0  0  0  0
 34 33  1  0  0  0  0
 35 33  2  0  0  0  0
 36 34  1  0  0  0  0
M  END
>  <minimizedAffinity>
-8.67659569

$$$$

 OpenBabel10152419593D

 37 40  0  0  0  0  0  0  0  0999 V2000
   -0.3550  -11.9680  -24.0570 C   0  0  0  0  0  0  0  0  0  0  0  0
   -1.2980  -11.7210  -25.0550 C   0  0  0  0  0  3  0  0  0  0  0  0
   -0.9660  -10.9100  -26.1330 C   0  0  0  0  0  3  0  0  0  0  0  0
    0.3170  -10.3730  -26.2300 C   0  0  0  0  0  3  0  0  0  0  0  0
    1.3200  -10.6970  -25.3030 C   0  0  0  0  0  0  0  0  0  0  0  0
    0.9620  -11.5130  -24.2190 C   0  0  0  0  0  3  0  0  0  0  0  0
   -1.1340  -12.1760  -21.6610 C   0  0  0  0  0  0  0  0  0  0  0  0
   -1.2610  -12.9590  -20.7220 O   0  0  0  0  0  0  0  0  0  0  0  0
   -0.8010  -12.6500  -22.9120 N   0  0  0  0  0  0  0  0  0  0  0  0
   -0.9450  -13.6500  -22.9960 H   0  0  0  0  0  0  0  0  0  0  0  0
   -2.8940   -8.0240  -24.5080 C   0  0  0  0  0  1  0  0  0  0  0  0
   -2.7530   -7.7450  -23.1040 N   0  0  0  0  0  0  0  0  0  0  0  0
   -2.2420   -8.6110  -22.1770 C   0  0  0  0  0  0  0  0  0  0  0  0
   -2.0790   -9.9670  -22.4020 C   0  0  0  0  0  3  0  0  0  0  0  0
   -1.4310  -10.7420  -21.4350 C   0  0  0  0  0  0  0  0  0  0  0  0
   -1.0720  -10.1750  -20.2200 C   0  0  0  0  0  3  0  0  0  0  0  0
   -1.3200   -8.8300  -20.0570 C   0  0  0  0  0  3  0  0  0  0  0  0
   -1.8730   -8.0470  -21.0120 N   0  0  0  0  0  0  0  0  0  0  0  0
   -2.7920   -6.7870  -22.7780 H   0  0  0  0  0  0  0  0  0  0  0  0
    2.7250  -10.1130  -25.3790 C   0  0  0  0  0  2  0  0  0  0  0  0
    2.7250   -8.6630  -25.3150 N   0  0  0  0  0  0  0  0  0  0  0  0
    3.0680   -8.2110  -24.4850 H   0  0  0  0  0  0  0  0  0  0  0  0
    2.3650   -7.9260  -26.4310 C   0  0  0  0  0  0  0  0  0  0  0  0
    3.1470   -8.0550  -27.5170 N   0  0  0  0  0  0  0  0  0  0  0  0
    3.0030   -7.1450  -28.4760 C   0  0  0  0  0  3  0  0  0  0  0  0
    2.2190   -6.0680  -28.4100 N   0  0  0  0  0  0  0  0  0  0  0  0
    1.4090   -5.9460  -27.3400 C   0  0  0  0  0  0  0  0  0  0  0  0
    0.5860   -4.8260  -27.1690 C   0  0  0  0  0  0  0  0  0  0  0  0
   -0.3240   -4.7130  -26.1060 C   0  0  0  0  0  3  0  0  0  0  0  0
   -0.3820   -5.7050  -25.1420 C   0  0  0  0  0  3  0  0  0  0  0  0
    0.4900   -6.7840  -25.2320 C   0  0  0  0  0  3  0  0  0  0  0  0
    1.3900   -6.9150  -26.3240 C   0  0  0  0  0  0  0  0  0  0  0  0
    0.7050   -3.6380  -28.0460 C   0  0  0  0  0  0  0  0  0  0  0  0
    0.2700   -2.4500  -27.5220 N   0  0  0  0  0  0  0  0  0  0  0  0
    1.0650   -3.7350  -29.2090 O   0  0  0  0  0  0  0  0  0  0  0  0
    0.2940   -1.6270  -28.1080 H   0  0  0  0  0  0  0  0  0  0  0  0
   -0.0040   -2.3570  -26.5530 H   0  0  0  0  0  0  0  0  0  0  0  0
  1  9  1  0  0  0  0
  2  1  2  0  0  0  0
  3  2  1  0  0  0  0
  4  3  2  0  0  0  0
  4  5  1  0  0  0  0
  5  6  2  0  0  0  0
  6  1  1  0  0  0  0
  7 15  1  0  0  0  0
  7  8  2  0  0  0  0
  9  7  1  0  0  0  0
 10  9  1  0  0  0  0
 11 12  1  0  0  0  0
 12 19  1  0  0  0  0
 12 13  1  0  0  0  0
 13 18  1  0  0  0  0
 14 13  2  0  0  0  0
 14 15  1  0  0  0  0
 15 16  2  0  0  0  0
 16 17  1  0  0  0  0
 18 17  2  0  0  0  0
 20 21  1  0  0  0  0
 20  5  1  0  0  0  0
 21 22  1  0  0  0  0
 23 32  1  0  0  0  0
 23 21  1  0  0  0  0
 24 23  2  0  0  0  0
 25 26  2  0  0  0  0
 25 24  1  0  0  0  0
 26 27  1  0  0  0  0
 27 28  2  0  0  0  0
 27 32  1  0  0  0  0
 28 29  1  0  0  0  0
 29 30  2  0  0  0  0
 31 30  1  0  0  0  0
 32 31  2  0  0  0  0
 33 34  1  0  0  0  0
 33 28  1  0  0  0  0
 34 37  1  0  0  0  0
 35 33  2  0  0  0  0
 36 34  1  0  0  0  0
M  END
>  <minimizedAffinity>
-8.50036049

$$$$

 OpenBabel10152419593D

 37 40  0  0  0  0  0  0  0  0999 V2000
    0.0770  -12.4380  -23.3450 C   0  0  0  0  0  0  0  0  0  0  0  0
   -0.6590  -12.9590  -24.4100 C   0  0  0  0  0  3  0  0  0  0  0  0
   -0.1320  -12.9250  -25.6950 C   0  0  0  0  0  3  0  0  0  0  0  0
    1.1410  -12.4000  -25.9100 C   0  0  0  0  0  3  0  0  0  0  0  0
    1.9500  -11.9750  -24.8440 C   0  0  0  0  0  0  0  0  0  0  0  0
    1.3960  -12.0130  -23.5550 C   0  0  0  0  0  3  0  0  0  0  0  0
   -1.0970  -11.2500  -21.4470 C   0  0  0  0  0  0  0  0  0  0  0  0
   -1.4050  -11.3360  -20.2590 O   0  0  0  0  0  0  0  0  0  0  0  0
   -0.5770  -12.3440  -22.1030 N   0  0  0  0  0  0  0  0  0  0  0  0
   -0.7370  -13.2080  -21.5990 H   0  0  0  0  0  0  0  0  0  0  0  0
   -1.0950   -9.4940  -26.4830 C   0  0  0  0  0  1  0  0  0  0  0  0
   -1.6040   -8.5380  -25.5370 N   0  0  0  0  0  0  0  0  0  0  0  0
   -1.6310   -8.7110  -24.1810 C   0  0  0  0  0  0  0  0  0  0  0  0
   -1.4620   -9.9360  -23.5600 C   0  0  0  0  0  3  0  0  0  0  0  0
   -1.3810   -9.9850  -22.1650 C   0  0  0  0  0  0  0  0  0  0  0  0
   -1.5920   -8.8340  -21.4190 C   0  0  0  0  0  3  0  0  0  0  0  0
   -1.8090   -7.6650  -22.1150 C   0  0  0  0  0  3  0  0  0  0  0  0
   -1.8110   -7.5840  -23.4650 N   0  0  0  0  0  0  0  0  0  0  0  0
   -1.7340   -7.5750  -25.8200 H   0  0  0  0  0  0  0  0  0  0  0  0
    3.3380  -11.3860  -25.0540 C   0  0  0  0  0  2  0  0  0  0  0  0
    3.3830  -10.4570  -26.1690 N   0  0  0  0  0  0  0  0  0  0  0  0
    3.6640  -10.7920  -27.0740 H   0  0  0  0  0  0  0  0  0  0  0  0
    2.9310   -9.1580  -25.9990 C   0  0  0  0  0  0  0  0  0  0  0  0
    2.2760   -8.8930  -24.8550 N   0  0  0  0  0  0  0  0  0  0  0  0
    1.5820   -7.7590  -24.8060 C   0  0  0  0  0  3  0  0  0  0  0  0
    1.4040   -6.9160  -25.8240 N   0  0  0  0  0  0  0  0  0  0  0  0
    2.0800   -7.1580  -26.9650 C   0  0  0  0  0  0  0  0  0  0  0  0
    1.9180   -6.3490  -28.0970 C   0  0  0  0  0  0  0  0  0  0  0  0
    2.6700   -6.5310  -29.2690 C   0  0  0  0  0  3  0  0  0  0  0  0
    3.5640   -7.5840  -29.3550 C   0  0  0  0  0  3  0  0  0  0  0  0
    3.6770   -8.4620  -28.2830 C   0  0  0  0  0  3  0  0  0  0  0  0
    2.9400   -8.2610  -27.0840 C   0  0  0  0  0  0  0  0  0  0  0  0
    0.8620   -5.3120  -28.1620 C   0  0  0  0  0  0  0  0  0  0  0  0
   -0.3940   -5.7010  -27.7820 N   0  0  0  0  0  0  0  0  0  0  0  0
    1.0780   -4.2060  -28.6350 O   0  0  0  0  0  0  0  0  0  0  0  0
   -1.1490   -5.0330  -27.8550 H   0  0  0  0  0  0  0  0  0  0  0  0
   -0.5760   -6.6040  -27.3640 H   0  0  0  0  0  0  0  0  0  0  0  0
  1  9  1  0  0  0  0
  2  1  2  0  0  0  0
  3  2  1  0  0  0  0
  4  3  2  0  0  0  0
  4  5  1  0  0  0  0
  5  6  2  0  0  0  0
  6  1  1  0  0  0  0
  7  8  2  0  0  0  0
  9 10  1  0  0  0  0
  9  7  1  0  0  0  0
 11 12  1  0  0  0  0
 12 13  1  0  0  0  0
 13 14  2  0  0  0  0
 13 18  1  0  0  0  0
 14 15  1  0  0  0  0
 15  7  1  0  0  0  0
 15 16  2  0  0  0  0
 17 16  1  0  0  0  0
 18 17  2  0  0  0  0
 19 12  1  0  0  0  0
 20  5  1  0  0  0  0
 21 23  1  0  0  0  0
 21 20  1  0  0  0  0
 22 21  1  0  0  0  0
 23 24  1  0  0  0  0
 24 25  2  0  0  0  0
 26 25  1  0  0  0  0
 27 26  2  0  0  0  0
 28 27  1  0  0  0  0
 29 28  2  0  0  0  0
 30 29  1  0  0  0  0
 30 31  2  0  0  0  0
 31 32  1  0  0  0  0
 32 27  1  0  0  0  0
 32 23  2  0  0  0  0
 33 28  1  0  0  0  0
 33 34  1  0  0  0  0
 34 37  1  0  0  0  0
 35 33  2  0  0  0  0
 36 34  1  0  0  0  0
M  END
>  <minimizedAffinity>
-8.34901428

$$$$

 OpenBabel10152419593D

 37 40  0  0  0  0  0  0  0  0999 V2000
   -0.9630   -9.3000  -24.2430 C   0  0  0  0  0  0  0  0  0  0  0  0
   -1.8530   -9.5960  -25.2770 C   0  0  0  0  0  3  0  0  0  0  0  0
   -1.5370  -10.5890  -26.1960 C   0  0  0  0  0  3  0  0  0  0  0  0
   -0.3490  -11.3060  -26.0630 C   0  0  0  0  0  3  0  0  0  0  0  0
    0.5090  -11.1100  -24.9700 C   0  0  0  0  0  0  0  0  0  0  0  0
    0.1740  -10.0980  -24.0570 C   0  0  0  0  0  3  0  0  0  0  0  0
   -0.9010   -6.8530  -23.6100 C   0  0  0  0  0  0  0  0  0  0  0  0
   -1.0440   -6.0640  -22.6780 O   0  0  0  0  0  0  0  0  0  0  0  0
   -1.2560   -8.1760  -23.4520 N   0  0  0  0  0  0  0  0  0  0  0  0
   -1.8520   -8.3210  -22.6450 H   0  0  0  0  0  0  0  0  0  0  0  0
   -1.2180   -2.3100  -26.3850 C   0  0  0  0  0  1  0  0  0  0  0  0
   -0.3600   -3.2970  -26.9850 N   0  0  0  0  0  0  0  0  0  0  0  0
   -0.1770   -4.5690  -26.5190 C   0  0  0  0  0  0  0  0  0  0  0  0
   -0.5440   -4.9810  -25.2500 C   0  0  0  0  0  3  0  0  0  0  0  0
   -0.4290   -6.3340  -24.9150 C   0  0  0  0  0  0  0  0  0  0  0  0
    0.1610   -7.2190  -25.8060 C   0  0  0  0  0  3  0  0  0  0  0  0
    0.5480   -6.7150  -27.0290 C   0  0  0  0  0  3  0  0  0  0  0  0
    0.3720   -5.4260  -27.4000 N   0  0  0  0  0  0  0  0  0  0  0  0
   -0.0450   -3.1710  -27.9390 H   0  0  0  0  0  0  0  0  0  0  0  0
    1.8190  -11.8710  -24.8100 C   0  0  0  0  0  2  0  0  0  0  0  0
    2.5860  -11.9170  -26.0420 N   0  0  0  0  0  0  0  0  0  0  0  0
    2.5680  -12.7550  -26.5970 H   0  0  0  0  0  0  0  0  0  0  0  0
    3.2350  -10.7790  -26.4910 C   0  0  0  0  0  0  0  0  0  0  0  0
    3.2460   -9.7240  -25.6570 N   0  0  0  0  0  0  0  0  0  0  0  0
    3.5880   -8.5480  -26.1770 C   0  0  0  0  0  3  0  0  0  0  0  0
    3.8270   -8.3130  -27.4680 N   0  0  0  0  0  0  0  0  0  0  0  0
    3.8470   -9.3690  -28.3050 C   0  0  0  0  0  0  0  0  0  0  0  0
    4.0470   -9.2070  -29.6820 C   0  0  0  0  0  0  0  0  0  0  0  0
    4.1530  -10.2950  -30.5630 C   0  0  0  0  0  3  0  0  0  0  0  0
    3.9930  -11.5840  -30.0850 C   0  0  0  0  0  3  0  0  0  0  0  0
    3.6990  -11.7720  -28.7390 C   0  0  0  0  0  3  0  0  0  0  0  0
    3.6210  -10.6740  -27.8400 C   0  0  0  0  0  0  0  0  0  0  0  0
    4.0510   -7.8650  -30.3110 C   0  0  0  0  0  0  0  0  0  0  0  0
    3.1720   -6.9510  -29.7960 N   0  0  0  0  0  0  0  0  0  0  0  0
    4.7220   -7.6250  -31.3030 O   0  0  0  0  0  0  0  0  0  0  0  0
    3.1160   -6.0390  -30.2280 H   0  0  0  0  0  0  0  0  0  0  0  0
    2.6340   -7.1320  -28.9590 H   0  0  0  0  0  0  0  0  0  0  0  0
  1  6  1  0  0  0  0
  1  9  1  0  0  0  0
  2  1  2  0  0  0  0
  3  4  2  0  0  0  0
  3  2  1  0  0  0  0
  4  5  1  0  0  0  0
  5 20  1  0  0  0  0
  5  6  2  0  0  0  0
  7  9  1  0  0  0  0
  7  8  2  0  0  0  0
  9 10  1  0  0  0  0
 12 13  1  0  0  0  0
 12 11  1  0  0  0  0
 13 14  1  0  0  0  0
 14 15  2  0  0  0  0
 15  7  1  0  0  0  0
 16 15  1  0  0  0  0
 17 16  2  0  0  0  0
 18 17  1  0  0  0  0
 18 13  2  0  0  0  0
 19 12  1  0  0  0  0
 21 20  1  0  0  0  0
 22 21  1  0  0  0  0
 23 21  1  0  0  0  0
 23 24  1  0  0  0  0
 25 24  2  0  0  0  0
 26 25  1  0  0  0  0
 27 32  1  0  0  0  0
 27 26  2  0  0  0  0
 28 27  1  0  0  0  0
 29 30  1  0  0  0  0
 29 28  2  0  0  0  0
 30 31  2  0  0  0  0
 31 32  1  0  0  0  0
 32 23  2  0  0  0  0
 33 34  1  0  0  0  0
 33 28  1  0  0  0  0
 34 37  1  0  0  0  0
 35 33  2  0  0  0  0
 36 34  1  0  0  0  0
M  END
>  <minimizedAffinity>
-8.20227623

$$$$
