
 OpenBabel10152419593D

 37 40  0  0  0  0  0  0  0  0999 V2000
   -0.1000   -5.2010  -25.6980 C   0  0  0  0  0  0  0  0  0  0  0  0
   -0.7180   -4.0290  -26.1360 C   0  0  0  0  0  3  0  0  0  0  0  0
   -0.4130   -3.5150  -27.3900 C   0  0  0  0  0  3  0  0  0  0  0  0
    0.4820   -4.1900  -28.2190 C   0  0  0  0  0  3  0  0  0  0  0  0
    1.0300   -5.4290  -27.8530 C   0  0  0  0  0  0  0  0  0  0  0  0
    0.7140   -5.9270  -26.5800 C   0  0  0  0  0  3  0  0  0  0  0  0
   -0.8960   -6.7080  -23.8310 C   0  0  0  0  0  0  0  0  0  0  0  0
   -1.2170   -6.7350  -22.6440 O   0  0  0  0  0  0  0  0  0  0  0  0
   -0.3160   -5.5760  -24.3610 N   0  0  0  0  0  0  0  0  0  0  0  0
    0.0300   -4.9490  -23.6440 H   0  0  0  0  0  0  0  0  0  0  0  0
   -0.7620  -11.9820  -23.0530 C   0  0  0  0  0  1  0  0  0  0  0  0
   -1.1720  -11.6030  -24.3780 N   0  0  0  0  0  0  0  0  0  0  0  0
   -1.2060  -10.3220  -24.8550 C   0  0  0  0  0  0  0  0  0  0  0  0
   -1.1490   -9.2000  -24.0460 C   0  0  0  0  0  3  0  0  0  0  0  0
   -1.0630   -7.9380  -24.6410 C   0  0  0  0  0  0  0  0  0  0  0  0
   -1.1600   -7.8150  -26.0200 C   0  0  0  0  0  3  0  0  0  0  0  0
   -1.2690   -8.9790  -26.7480 C   0  0  0  0  0  3  0  0  0  0  0  0
   -1.2730  -10.2140  -26.1950 N   0  0  0  0  0  0  0  0  0  0  0  0
   -1.2120  -12.3030  -25.1090 H   0  0  0  0  0  0  0  0  0  0  0  0
    2.0210   -6.1780  -28.7340 C   0  0  0  0  0  2  0  0  0  0  0  0
    3.2830   -6.4270  -28.0610 N   0  0  0  0  0  0  0  0  0  0  0  0
    3.7260   -5.6760  -27.5610 H   0  0  0  0  0  0  0  0  0  0  0  0
    3.7990   -7.7120  -28.0210 C   0  0  0  0  0  0  0  0  0  0  0  0
    4.4840   -8.1190  -29.1040 N   0  0  0  0  0  0  0  0  0  0  0  0
    4.7200   -9.4240  -29.2120 C   0  0  0  0  0  3  0  0  0  0  0  0
    4.2540  -10.3660  -28.3900 N   0  0  0  0  0  0  0  0  0  0  0  0
    3.5920   -9.9640  -27.2870 C   0  0  0  0  0  0  0  0  0  0  0  0
    3.0320  -10.8870  -26.3940 C   0  0  0  0  0  0  0  0  0  0  0  0
    2.4090  -10.4960  -25.1980 C   0  0  0  0  0  3  0  0  0  0  0  0
    2.2740   -9.1520  -24.9000 C   0  0  0  0  0  3  0  0  0  0  0  0
    2.7350   -8.2100  -25.8130 C   0  0  0  0  0  3  0  0  0  0  0  0
    3.3930   -8.6030  -27.0090 C   0  0  0  0  0  0  0  0  0  0  0  0
    2.9690  -12.3330  -26.7130 C   0  0  0  0  0  0  0  0  0  0  0  0
    4.1640  -12.9500  -26.9690 N   0  0  0  0  0  0  0  0  0  0  0  0
    1.9020  -12.9120  -26.8490 O   0  0  0  0  0  0  0  0  0  0  0  0
    4.1550  -13.9250  -27.2340 H   0  0  0  0  0  0  0  0  0  0  0  0
    5.0510  -12.4850  -26.8320 H   0  0  0  0  0  0  0  0  0  0  0  0
  1  9  1  0  0  0  0
  2  1  1  0  0  0  0
  3  2  2  0  0  0  0
  4  5  2  0  0  0  0
  4  3  1  0  0  0  0
  5  6  1  0  0  0  0
  6  1  2  0  0  0  0
  7  8  2  0  0  0  0
  9  7  1  0  0  0  0
  9 10  1  0  0  0  0
 12 11  1  0  0  0  0
 13 12  1  0  0  0  0
 13 14  1  0  0  0  0
 15 14  2  0  0  0  0
 15  7  1  0  0  0  0
 16 15  1  0  0  0  0
 17 18  1  0  0  0  0
 17 16  2  0  0  0  0
 18 13  2  0  0  0  0
 19 12  1  0  0  0  0
 20 21  1  0  0  0  0
 20  5  1  0  0  0  0
 21 23  1  0  0  0  0
 21 22  1  0  0  0  0
 23 32  1  0  0  0  0
 24 23  2  0  0  0  0
 25 24  1  0  0  0  0
 25 26  2  0  0  0  0
 26 27  1  0  0  0  0
 27 32  2  0  0  0  0
 27 28  1  0  0  0  0
 28 29  2  0  0  0  0
 29 30  1  0  0  0  0
 31 30  2  0  0  0  0
 32 31  1  0  0  0  0
 33 28  1  0  0  0  0
 34 37  1  0  0  0  0
 34 33  1  0  0  0  0
 35 33  2  0  0  0  0
 36 34  1  0  0  0  0
M  END
>  <minimizedAffinity>
-8.67659569

$$$$
