
 OpenBabel10152419593D

 37 40  0  0  0  0  0  0  0  0999 V2000
    1.7610  -12.6170  -25.0150 C   0  0  0  0  0  0  0  0  0  0  0  0
    1.0510  -12.9590  -26.1670 C   0  0  0  0  0  3  0  0  0  0  0  0
    1.4910  -12.5130  -27.4070 C   0  0  0  0  0  3  0  0  0  0  0  0
    2.6570  -11.7530  -27.4980 C   0  0  0  0  0  3  0  0  0  0  0  0
    3.4530  -11.4910  -26.3720 C   0  0  0  0  0  0  0  0  0  0  0  0
    2.9870  -11.9460  -25.1290 C   0  0  0  0  0  3  0  0  0  0  0  0
    0.2860  -12.2490  -22.9950 C   0  0  0  0  0  0  0  0  0  0  0  0
    0.0850  -12.6000  -21.8340 O   0  0  0  0  0  0  0  0  0  0  0  0
    1.1740  -12.9500  -23.7820 N   0  0  0  0  0  0  0  0  0  0  0  0
    1.3920  -13.8620  -23.3980 H   0  0  0  0  0  0  0  0  0  0  0  0
   -2.1940   -7.9060  -21.1420 C   0  0  0  0  0  1  0  0  0  0  0  0
   -2.1790   -7.9960  -22.5780 N   0  0  0  0  0  0  0  0  0  0  0  0
   -1.6830   -9.0490  -23.2950 C   0  0  0  0  0  0  0  0  0  0  0  0
   -0.8580  -10.0220  -22.7590 C   0  0  0  0  0  3  0  0  0  0  0  0
   -0.5080  -11.1240  -23.5440 C   0  0  0  0  0  0  0  0  0  0  0  0
   -0.8860  -11.1710  -24.8790 C   0  0  0  0  0  3  0  0  0  0  0  0
   -1.6610  -10.1330  -25.3490 C   0  0  0  0  0  3  0  0  0  0  0  0
   -2.0760   -9.0990  -24.5820 N   0  0  0  0  0  0  0  0  0  0  0  0
   -2.7740   -7.3850  -23.1230 H   0  0  0  0  0  0  0  0  0  0  0  0
    4.7220  -10.6520  -26.4440 C   0  0  0  0  0  2  0  0  0  0  0  0
    4.4650   -9.2400  -26.2320 N   0  0  0  0  0  0  0  0  0  0  0  0
    4.9620   -8.7560  -25.5050 H   0  0  0  0  0  0  0  0  0  0  0  0
    3.6300   -8.5560  -27.1010 C   0  0  0  0  0  0  0  0  0  0  0  0
    4.0830   -8.3730  -28.3530 N   0  0  0  0  0  0  0  0  0  0  0  0
    3.4470   -7.4740  -29.1000 C   0  0  0  0  0  3  0  0  0  0  0  0
    2.4640   -6.6760  -28.6810 N   0  0  0  0  0  0  0  0  0  0  0  0
    1.9840   -6.8720  -27.4370 C   0  0  0  0  0  0  0  0  0  0  0  0
    0.9820   -6.0520  -26.9010 C   0  0  0  0  0  0  0  0  0  0  0  0
    0.4090   -6.2860  -25.6410 C   0  0  0  0  0  3  0  0  0  0  0  0
    0.8790   -7.3220  -24.8530 C   0  0  0  0  0  3  0  0  0  0  0  0
    1.9380   -8.0940  -25.3180 C   0  0  0  0  0  3  0  0  0  0  0  0
    2.4990   -7.8790  -26.6050 C   0  0  0  0  0  0  0  0  0  0  0  0
    0.5410   -4.8180  -27.5930 C   0  0  0  0  0  0  0  0  0  0  0  0
    1.4680   -4.2080  -28.3950 N   0  0  0  0  0  0  0  0  0  0  0  0
   -0.5500   -4.3140  -27.3700 O   0  0  0  0  0  0  0  0  0  0  0  0
    1.2170   -3.3400  -28.8470 H   0  0  0  0  0  0  0  0  0  0  0  0
    2.3610   -4.6320  -28.6050 H   0  0  0  0  0  0  0  0  0  0  0  0
  1  9  1  0  0  0  0
  2  1  2  0  0  0  0
  3  2  1  0  0  0  0
  4  3  2  0  0  0  0
  4  5  1  0  0  0  0
  5  6  2  0  0  0  0
  6  1  1  0  0  0  0
  7  8  2  0  0  0  0
  9 10  1  0  0  0  0
  9  7  1  0  0  0  0
 12 11  1  0  0  0  0
 13 14  1  0  0  0  0
 13 12  1  0  0  0  0
 15  7  1  0  0  0  0
 15 14  2  0  0  0  0
 16 15  1  0  0  0  0
 17 16  2  0  0  0  0
 17 18  1  0  0  0  0
 18 13  2  0  0  0  0
 19 12  1  0  0  0  0
 20  5  1  0  0  0  0
 20 21  1  0  0  0  0
 21 22  1  0  0  0  0
 23 32  1  0  0  0  0
 23 21  1  0  0  0  0
 24 23  2  0  0  0  0
 25 26  2  0  0  0  0
 25 24  1  0  0  0  0
 26 27  1  0  0  0  0
 27 28  2  0  0  0  0
 27 32  1  0  0  0  0
 28 29  1  0  0  0  0
 29 30  2  0  0  0  0
 31 30  1  0  0  0  0
 32 31  2  0  0  0  0
 33 35  2  0  0  0  0
 33 28  1  0  0  0  0
 34 33  1  0  0  0  0
 36 34  1  0  0  0  0
 37 34  1  0  0  0  0
M  END
>  <minimizedAffinity>
-8.76977253

$$$$
