
 OpenBabel10152419593D

 37 40  0  0  0  0  0  0  0  0999 V2000
    3.6580  -10.3970  -27.3650 C   0  0  0  0  0  0  0  0  0  0  0  0
    4.7220  -10.8880  -26.6080 C   0  0  0  0  0  3  0  0  0  0  0  0
    4.5290  -11.9830  -25.7750 C   0  0  0  0  0  3  0  0  0  0  0  0
    3.2830  -12.6070  -25.7260 C   0  0  0  0  0  3  0  0  0  0  0  0
    2.2280  -12.2090  -26.5610 C   0  0  0  0  0  0  0  0  0  0  0  0
    2.4420  -11.0960  -27.3890 C   0  0  0  0  0  3  0  0  0  0  0  0
    3.1910   -7.9900  -27.9790 C   0  0  0  0  0  0  0  0  0  0  0  0
    3.3700   -7.1310  -28.8410 O   0  0  0  0  0  0  0  0  0  0  0  0
    3.8670   -9.1880  -28.0520 N   0  0  0  0  0  0  0  0  0  0  0  0
    4.6570   -9.1480  -28.6860 H   0  0  0  0  0  0  0  0  0  0  0  0
   -0.8340   -4.6590  -26.9100 C   0  0  0  0  0  1  0  0  0  0  0  0
   -0.5600   -5.5940  -25.8530 N   0  0  0  0  0  0  0  0  0  0  0  0
    0.4700   -6.4930  -25.8440 C   0  0  0  0  0  0  0  0  0  0  0  0
    1.1980   -6.8360  -26.9700 C   0  0  0  0  0  3  0  0  0  0  0  0
    2.3120   -7.6700  -26.8300 C   0  0  0  0  0  0  0  0  0  0  0  0
    2.6020   -8.2360  -25.5970 C   0  0  0  0  0  3  0  0  0  0  0  0
    1.7940   -7.8840  -24.5380 C   0  0  0  0  0  3  0  0  0  0  0  0
    0.7600   -7.0180  -24.6380 N   0  0  0  0  0  0  0  0  0  0  0  0
   -0.9750   -5.4520  -24.9400 H   0  0  0  0  0  0  0  0  0  0  0  0
    0.8550  -12.8650  -26.5150 C   0  0  0  0  0  2  0  0  0  0  0  0
    0.2530  -12.7980  -25.1960 N   0  0  0  0  0  0  0  0  0  0  0  0
    0.5530  -13.4470  -24.4890 H   0  0  0  0  0  0  0  0  0  0  0  0
   -0.6360  -11.7790  -24.8970 C   0  0  0  0  0  0  0  0  0  0  0  0
   -0.9480  -10.9390  -25.8990 N   0  0  0  0  0  0  0  0  0  0  0  0
   -1.5460   -9.7980  -25.5650 C   0  0  0  0  0  3  0  0  0  0  0  0
   -1.7740   -9.3790  -24.3190 N   0  0  0  0  0  0  0  0  0  0  0  0
   -1.4920  -10.2270  -23.3110 C   0  0  0  0  0  0  0  0  0  0  0  0
   -1.6600   -9.8520  -21.9710 C   0  0  0  0  0  0  0  0  0  0  0  0
   -1.4510  -10.7430  -20.9060 C   0  0  0  0  0  3  0  0  0  0  0  0
   -0.9990  -12.0270  -21.1620 C   0  0  0  0  0  3  0  0  0  0  0  0
   -0.7320  -12.3970  -22.4750 C   0  0  0  0  0  3  0  0  0  0  0  0
   -0.9720  -11.5080  -23.5570 C   0  0  0  0  0  0  0  0  0  0  0  0
   -1.9670   -8.4530  -21.5920 C   0  0  0  0  0  0  0  0  0  0  0  0
   -1.2140   -7.4820  -22.1950 N   0  0  0  0  0  0  0  0  0  0  0  0
   -2.7690   -8.1910  -20.7090 O   0  0  0  0  0  0  0  0  0  0  0  0
   -1.3650   -6.5200  -21.9280 H   0  0  0  0  0  0  0  0  0  0  0  0
   -0.5690   -7.6890  -22.9460 H   0  0  0  0  0  0  0  0  0  0  0  0
  1  2  1  0  0  0  0
  2  3  2  0  0  0  0
  3  4  1  0  0  0  0
  5 20  1  0  0  0  0
  5  4  2  0  0  0  0
  6  1  2  0  0  0  0
  6  5  1  0  0  0  0
  7 15  1  0  0  0  0
  8  7  2  0  0  0  0
  9  7  1  0  0  0  0
  9  1  1  0  0  0  0
 10  9  1  0  0  0  0
 11 12  1  0  0  0  0
 12 13  1  0  0  0  0
 12 19  1  0  0  0  0
 13 18  1  0  0  0  0
 14 15  1  0  0  0  0
 14 13  2  0  0  0  0
 15 16  2  0  0  0  0
 16 17  1  0  0  0  0
 18 17  2  0  0  0  0
 20 21  1  0  0  0  0
 21 23  1  0  0  0  0
 21 22  1  0  0  0  0
 23 32  1  0  0  0  0
 24 25  1  0  0  0  0
 24 23  2  0  0  0  0
 25 26  2  0  0  0  0
 26 27  1  0  0  0  0
 27 28  1  0  0  0  0
 28 33  1  0  0  0  0
 28 29  2  0  0  0  0
 30 29  1  0  0  0  0
 31 30  2  0  0  0  0
 32 27  2  0  0  0  0
 32 31  1  0  0  0  0
 33 35  2  0  0  0  0
 34 36  1  0  0  0  0
 34 33  1  0  0  0  0
 37 34  1  0  0  0  0
M  END
>  <minimizedAffinity>
-9.14492893

$$$$
