
 OpenBabel10152419593D

 37 40  0  0  0  0  0  0  0  0999 V2000
    0.0770  -12.4380  -23.3450 C   0  0  0  0  0  0  0  0  0  0  0  0
   -0.6590  -12.9590  -24.4100 C   0  0  0  0  0  3  0  0  0  0  0  0
   -0.1320  -12.9250  -25.6950 C   0  0  0  0  0  3  0  0  0  0  0  0
    1.1410  -12.4000  -25.9100 C   0  0  0  0  0  3  0  0  0  0  0  0
    1.9500  -11.9750  -24.8440 C   0  0  0  0  0  0  0  0  0  0  0  0
    1.3960  -12.0130  -23.5550 C   0  0  0  0  0  3  0  0  0  0  0  0
   -1.0970  -11.2500  -21.4470 C   0  0  0  0  0  0  0  0  0  0  0  0
   -1.4050  -11.3360  -20.2590 O   0  0  0  0  0  0  0  0  0  0  0  0
   -0.5770  -12.3440  -22.1030 N   0  0  0  0  0  0  0  0  0  0  0  0
   -0.7370  -13.2080  -21.5990 H   0  0  0  0  0  0  0  0  0  0  0  0
   -1.0950   -9.4940  -26.4830 C   0  0  0  0  0  1  0  0  0  0  0  0
   -1.6040   -8.5380  -25.5370 N   0  0  0  0  0  0  0  0  0  0  0  0
   -1.6310   -8.7110  -24.1810 C   0  0  0  0  0  0  0  0  0  0  0  0
   -1.4620   -9.9360  -23.5600 C   0  0  0  0  0  3  0  0  0  0  0  0
   -1.3810   -9.9850  -22.1650 C   0  0  0  0  0  0  0  0  0  0  0  0
   -1.5920   -8.8340  -21.4190 C   0  0  0  0  0  3  0  0  0  0  0  0
   -1.8090   -7.6650  -22.1150 C   0  0  0  0  0  3  0  0  0  0  0  0
   -1.8110   -7.5840  -23.4650 N   0  0  0  0  0  0  0  0  0  0  0  0
   -1.7340   -7.5750  -25.8200 H   0  0  0  0  0  0  0  0  0  0  0  0
    3.3380  -11.3860  -25.0540 C   0  0  0  0  0  2  0  0  0  0  0  0
    3.3830  -10.4570  -26.1690 N   0  0  0  0  0  0  0  0  0  0  0  0
    3.6640  -10.7920  -27.0740 H   0  0  0  0  0  0  0  0  0  0  0  0
    2.9310   -9.1580  -25.9990 C   0  0  0  0  0  0  0  0  0  0  0  0
    2.2760   -8.8930  -24.8550 N   0  0  0  0  0  0  0  0  0  0  0  0
    1.5820   -7.7590  -24.8060 C   0  0  0  0  0  3  0  0  0  0  0  0
    1.4040   -6.9160  -25.8240 N   0  0  0  0  0  0  0  0  0  0  0  0
    2.0800   -7.1580  -26.9650 C   0  0  0  0  0  0  0  0  0  0  0  0
    1.9180   -6.3490  -28.0970 C   0  0  0  0  0  0  0  0  0  0  0  0
    2.6700   -6.5310  -29.2690 C   0  0  0  0  0  3  0  0  0  0  0  0
    3.5640   -7.5840  -29.3550 C   0  0  0  0  0  3  0  0  0  0  0  0
    3.6770   -8.4620  -28.2830 C   0  0  0  0  0  3  0  0  0  0  0  0
    2.9400   -8.2610  -27.0840 C   0  0  0  0  0  0  0  0  0  0  0  0
    0.8620   -5.3120  -28.1620 C   0  0  0  0  0  0  0  0  0  0  0  0
   -0.3940   -5.7010  -27.7820 N   0  0  0  0  0  0  0  0  0  0  0  0
    1.0780   -4.2060  -28.6350 O   0  0  0  0  0  0  0  0  0  0  0  0
   -1.1490   -5.0330  -27.8550 H   0  0  0  0  0  0  0  0  0  0  0  0
   -0.5760   -6.6040  -27.3640 H   0  0  0  0  0  0  0  0  0  0  0  0
  1  9  1  0  0  0  0
  2  1  2  0  0  0  0
  3  2  1  0  0  0  0
  4  3  2  0  0  0  0
  4  5  1  0  0  0  0
  5  6  2  0  0  0  0
  6  1  1  0  0  0  0
  7  8  2  0  0  0  0
  9 10  1  0  0  0  0
  9  7  1  0  0  0  0
 11 12  1  0  0  0  0
 12 13  1  0  0  0  0
 13 14  2  0  0  0  0
 13 18  1  0  0  0  0
 14 15  1  0  0  0  0
 15  7  1  0  0  0  0
 15 16  2  0  0  0  0
 17 16  1  0  0  0  0
 18 17  2  0  0  0  0
 19 12  1  0  0  0  0
 20  5  1  0  0  0  0
 21 23  1  0  0  0  0
 21 20  1  0  0  0  0
 22 21  1  0  0  0  0
 23 24  1  0  0  0  0
 24 25  2  0  0  0  0
 26 25  1  0  0  0  0
 27 26  2  0  0  0  0
 28 27  1  0  0  0  0
 29 28  2  0  0  0  0
 30 29  1  0  0  0  0
 30 31  2  0  0  0  0
 31 32  1  0  0  0  0
 32 27  1  0  0  0  0
 32 23  2  0  0  0  0
 33 28  1  0  0  0  0
 33 34  1  0  0  0  0
 34 37  1  0  0  0  0
 35 33  2  0  0  0  0
 36 34  1  0  0  0  0
M  END
>  <minimizedAffinity>
-8.34901428

$$$$
