
 OpenBabel10152419593D

 37 40  0  0  0  0  0  0  0  0999 V2000
   -0.9630   -9.3000  -24.2430 C   0  0  0  0  0  0  0  0  0  0  0  0
   -1.8530   -9.5960  -25.2770 C   0  0  0  0  0  3  0  0  0  0  0  0
   -1.5370  -10.5890  -26.1960 C   0  0  0  0  0  3  0  0  0  0  0  0
   -0.3490  -11.3060  -26.0630 C   0  0  0  0  0  3  0  0  0  0  0  0
    0.5090  -11.1100  -24.9700 C   0  0  0  0  0  0  0  0  0  0  0  0
    0.1740  -10.0980  -24.0570 C   0  0  0  0  0  3  0  0  0  0  0  0
   -0.9010   -6.8530  -23.6100 C   0  0  0  0  0  0  0  0  0  0  0  0
   -1.0440   -6.0640  -22.6780 O   0  0  0  0  0  0  0  0  0  0  0  0
   -1.2560   -8.1760  -23.4520 N   0  0  0  0  0  0  0  0  0  0  0  0
   -1.8520   -8.3210  -22.6450 H   0  0  0  0  0  0  0  0  0  0  0  0
   -1.2180   -2.3100  -26.3850 C   0  0  0  0  0  1  0  0  0  0  0  0
   -0.3600   -3.2970  -26.9850 N   0  0  0  0  0  0  0  0  0  0  0  0
   -0.1770   -4.5690  -26.5190 C   0  0  0  0  0  0  0  0  0  0  0  0
   -0.5440   -4.9810  -25.2500 C   0  0  0  0  0  3  0  0  0  0  0  0
   -0.4290   -6.3340  -24.9150 C   0  0  0  0  0  0  0  0  0  0  0  0
    0.1610   -7.2190  -25.8060 C   0  0  0  0  0  3  0  0  0  0  0  0
    0.5480   -6.7150  -27.0290 C   0  0  0  0  0  3  0  0  0  0  0  0
    0.3720   -5.4260  -27.4000 N   0  0  0  0  0  0  0  0  0  0  0  0
   -0.0450   -3.1710  -27.9390 H   0  0  0  0  0  0  0  0  0  0  0  0
    1.8190  -11.8710  -24.8100 C   0  0  0  0  0  2  0  0  0  0  0  0
    2.5860  -11.9170  -26.0420 N   0  0  0  0  0  0  0  0  0  0  0  0
    2.5680  -12.7550  -26.5970 H   0  0  0  0  0  0  0  0  0  0  0  0
    3.2350  -10.7790  -26.4910 C   0  0  0  0  0  0  0  0  0  0  0  0
    3.2460   -9.7240  -25.6570 N   0  0  0  0  0  0  0  0  0  0  0  0
    3.5880   -8.5480  -26.1770 C   0  0  0  0  0  3  0  0  0  0  0  0
    3.8270   -8.3130  -27.4680 N   0  0  0  0  0  0  0  0  0  0  0  0
    3.8470   -9.3690  -28.3050 C   0  0  0  0  0  0  0  0  0  0  0  0
    4.0470   -9.2070  -29.6820 C   0  0  0  0  0  0  0  0  0  0  0  0
    4.1530  -10.2950  -30.5630 C   0  0  0  0  0  3  0  0  0  0  0  0
    3.9930  -11.5840  -30.0850 C   0  0  0  0  0  3  0  0  0  0  0  0
    3.6990  -11.7720  -28.7390 C   0  0  0  0  0  3  0  0  0  0  0  0
    3.6210  -10.6740  -27.8400 C   0  0  0  0  0  0  0  0  0  0  0  0
    4.0510   -7.8650  -30.3110 C   0  0  0  0  0  0  0  0  0  0  0  0
    3.1720   -6.9510  -29.7960 N   0  0  0  0  0  0  0  0  0  0  0  0
    4.7220   -7.6250  -31.3030 O   0  0  0  0  0  0  0  0  0  0  0  0
    3.1160   -6.0390  -30.2280 H   0  0  0  0  0  0  0  0  0  0  0  0
    2.6340   -7.1320  -28.9590 H   0  0  0  0  0  0  0  0  0  0  0  0
  1  6  1  0  0  0  0
  1  9  1  0  0  0  0
  2  1  2  0  0  0  0
  3  4  2  0  0  0  0
  3  2  1  0  0  0  0
  4  5  1  0  0  0  0
  5 20  1  0  0  0  0
  5  6  2  0  0  0  0
  7  9  1  0  0  0  0
  7  8  2  0  0  0  0
  9 10  1  0  0  0  0
 12 13  1  0  0  0  0
 12 11  1  0  0  0  0
 13 14  1  0  0  0  0
 14 15  2  0  0  0  0
 15  7  1  0  0  0  0
 16 15  1  0  0  0  0
 17 16  2  0  0  0  0
 18 17  1  0  0  0  0
 18 13  2  0  0  0  0
 19 12  1  0  0  0  0
 21 20  1  0  0  0  0
 22 21  1  0  0  0  0
 23 21  1  0  0  0  0
 23 24  1  0  0  0  0
 25 24  2  0  0  0  0
 26 25  1  0  0  0  0
 27 32  1  0  0  0  0
 27 26  2  0  0  0  0
 28 27  1  0  0  0  0
 29 30  1  0  0  0  0
 29 28  2  0  0  0  0
 30 31  2  0  0  0  0
 31 32  1  0  0  0  0
 32 23  2  0  0  0  0
 33 34  1  0  0  0  0
 33 28  1  0  0  0  0
 34 37  1  0  0  0  0
 35 33  2  0  0  0  0
 36 34  1  0  0  0  0
M  END
>  <minimizedAffinity>
-8.20227623

$$$$
