
 OpenBabel11232420243D

 40 46  0  0  1  0  0  0  0  0999 V2000
   -1.6210    0.3570  -23.0140 C   0  0  0  0  0  0  0  0  0  0  0  0
   -1.1600    0.8640  -24.2330 C   0  0  0  0  0  3  0  0  0  0  0  0
   -0.2870    1.9520  -24.2560 C   0  0  0  0  0  3  0  0  0  0  0  0
    0.1080    2.5500  -23.0600 C   0  0  0  0  0  3  0  0  0  0  0  0
   -0.3900    2.0730  -21.8480 C   0  0  0  0  0  0  0  0  0  0  0  0
   -1.2510    0.9640  -21.8080 C   0  0  0  0  0  0  0  0  0  0  0  0
   -1.6740    0.5190  -20.4930 C   0  0  0  0  0  0  0  0  0  0  0  0
   -2.2590   -0.5950  -20.1090 N   0  0  0  0  0  0  0  0  0  0  0  0
   -2.4200   -0.4870  -18.7430 C   0  0  0  0  0  0  0  0  0  0  0  0
   -1.9090    0.7170  -18.2750 C   0  0  0  0  0  0  0  0  0  0  0  0
   -1.4270    1.3220  -19.4130 N   0  0  0  0  0  0  0  0  0  0  0  0
   -0.8080    2.6240  -19.5630 C   0  0  0  0  0  2  0  0  0  0  0  0
    0.0590    2.7020  -20.7120 O   0  0  0  0  0  0  0  0  0  0  0  0
   -1.7910    1.2930  -16.9420 C   0  0  0  0  0  0  0  0  0  0  0  0
   -2.8730    1.9700  -16.3640 C   0  0  0  0  0  3  0  0  0  0  0  0
   -2.7530    2.5250  -15.0880 C   0  0  0  0  0  3  0  0  0  0  0  0
   -1.5550    2.4070  -14.3860 C   0  0  0  0  0  3  0  0  0  0  0  0
   -0.4750    1.7320  -14.9550 C   0  0  0  0  0  3  0  0  0  0  0  0
   -0.5930    1.1760  -16.2300 C   0  0  0  0  0  3  0  0  0  0  0  0
   -3.0500   -1.5540  -17.9810 C   0  0  0  0  0  0  0  0  0  0  0  0
   -3.8070   -1.3180  -16.8330 C   0  0  0  0  0  3  0  0  0  0  0  0
   -4.4290   -2.3770  -16.1580 C   0  0  0  0  0  3  0  0  0  0  0  0
   -4.3300   -3.7150  -16.5990 C   0  0  0  0  0  0  0  0  0  0  0  0
   -3.5610   -3.9240  -17.7610 C   0  0  0  0  0  3  0  0  0  0  0  0
   -2.9380   -2.8700  -18.4380 C   0  0  0  0  0  3  0  0  0  0  0  0
   -5.0930   -4.9040  -15.8710 C   0  0  1  0  0  0  0  0  0  0  0  0
   -6.6400   -4.9220  -15.9060 C   0  0  0  0  0  2  0  0  0  0  0  0
   -6.6350   -6.4330  -16.3060 C   0  0  1  0  0  0  0  0  0  0  0  0
   -5.0920   -6.3020  -16.5330 C   0  0  0  0  0  2  0  0  0  0  0  0
   -4.5630   -4.9370  -14.4880 N   0  0  0  0  0  4  0  0  0  0  0  0
   -3.5440   -5.0850  -14.4840 H   0  0  0  0  0  0  0  0  0  0  0  0
   -4.7160   -4.0360  -14.0110 H   0  0  0  0  0  0  0  0  0  0  0  0
   -4.9820   -5.6680  -13.9040 H   0  0  0  0  0  0  0  0  0  0  0  0
   -7.1110   -7.4450  -15.2550 C   0  0  0  0  0  3  0  0  0  0  0  0
   -7.0270   -7.3010  -13.7570 C   0  0  0  0  0  2  0  0  0  0  0  0
   -8.3680   -7.3650  -14.4260 C   0  0  0  0  0  2  0  0  0  0  0  0
   -7.3470   -6.6680  -17.5490 O   0  0  0  0  0  0  0  0  0  0  0  0
   -7.0470   -6.0160  -18.2040 H   0  0  0  0  0  0  0  0  0  0  0  0
   -3.6330   -0.3490  -23.8540 C   0  0  0  0  0  1  0  0  0  0  0  0
   -2.5040   -0.6920  -23.0510 O   0  0  0  0  0  0  0  0  0  0  0  0
  1  6  1  0  0  0  0
  2  1  2  0  0  0  0
  3  2  1  0  0  0  0
  3  4  2  0  0  0  0
  4  5  1  0  0  0  0
  5  6  2  0  0  0  0
  5 13  1  0  0  0  0
  6  7  1  0  0  0  0
  7  8  2  0  0  0  0
  7 11  1  0  0  0  0
  8  9  1  0  0  0  0
  9 10  2  0  0  0  0
  9 20  1  0  0  0  0
 10 14  1  0  0  0  0
 11 10  1  0  0  0  0
 12 11  1  0  0  0  0
 13 12  1  0  0  0  0
 14 15  2  0  0  0  0
 14 19  1  0  0  0  0
 15 16  1  0  0  0  0
 16 17  2  0  0  0  0
 18 17  1  0  0  0  0
 19 18  2  0  0  0  0
 20 21  1  0  0  0  0
 21 22  2  0  0  0  0
 23 22  1  0  0  0  0
 23 26  1  0  0  0  0
 24 23  2  0  0  0  0
 25 20  2  0  0  0  0
 25 24  1  0  0  0  0
 26 30  1  1  0  0  0
 27 26  1  0  0  0  0
 28 37  1  6  0  0  0
 28 27  1  0  0  0  0
 28 34  1  0  0  0  0
 29 28  1  0  0  0  0
 29 26  1  0  0  0  0
 30 31  1  0  0  0  0
 30 32  1  0  0  0  0
 30 33  1  0  0  0  0
 34 36  1  0  0  0  0
 34 35  1  0  0  0  0
 36 35  1  0  0  0  0
 38 37  1  0  0  0  0
 39 40  1  0  0  0  0
 40  1  1  0  0  0  0
M  END
>  <minimizedAffinity>
4.66254044

$$$$
