
 OpenBabel11232419393D

 37 41  0  0  1  0  0  0  0  0999 V2000
   58.1180  -42.7550   18.2570 C   0  0  1  0  0  3  0  0  0  0  0  0
   57.4520  -43.5740   19.0560 N   0  0  0  0  0  2  0  0  0  0  0  0
   56.5380  -42.8220   19.7460 C   0  0  2  0  0  3  0  0  0  0  0  0
   56.7520  -41.4940   19.4770 C   0  0  0  0  0  2  0  0  0  0  0  0
   57.8470  -41.4570   18.6410 N   0  0  0  0  0  0  0  0  0  0  0  0
   55.5480  -43.3860   20.6490 C   0  0  0  0  0  0  0  0  0  0  0  0
   55.5230  -44.7720   20.8620 C   0  0  0  0  0  3  0  0  0  0  0  0
   54.5960  -45.3430   21.7350 C   0  0  0  0  0  3  0  0  0  0  0  0
   53.6790  -44.5300   22.3910 C   0  0  0  0  0  0  0  0  0  0  0  0
   52.8040  -45.0900   23.2360 F   0  0  0  0  0  0  0  0  0  0  0  0
   53.6570  -43.1500   22.1810 C   0  0  0  0  0  0  0  0  0  0  0  0
   52.6640  -42.2930   22.9050 C   0  0  0  0  0  1  0  0  0  0  0  0
   54.6060  -42.5820   21.3150 C   0  0  0  0  0  3  0  0  0  0  0  0
   61.0940  -43.2090   15.1400 N   0  0  0  0  0  0  0  0  0  0  0  0
   59.7280  -42.8760   14.7470 C   0  0  0  0  0  2  0  0  0  0  0  0
   58.9090  -42.3640   15.9300 C   0  0  0  0  0  2  0  0  0  0  0  0
   59.0090  -43.3010   17.1540 C   0  0  1  0  0  3  0  0  0  0  0  0
   60.4760  -43.5580   17.4940 C   0  0  0  0  0  2  0  0  0  0  0  0
   61.2480  -44.0900   16.2840 C   0  0  0  0  0  2  0  0  0  0  0  0
   62.9940  -42.1820   14.0480 C   0  0  0  0  0  0  0  0  0  0  0  0
   63.8770  -41.1080   14.0510 C   0  0  0  0  0  0  0  0  0  0  0  0
   64.8730  -40.9650   13.1030 N   0  0  0  0  0  0  0  0  0  0  0  0
   63.7920  -40.0980   14.9230 N   0  0  0  0  0  0  0  0  0  0  0  0
   62.8150  -40.1810   15.8270 C   0  0  0  0  0  3  0  0  0  0  0  0
   61.9330  -41.1780   15.9500 N   0  0  0  0  0  0  0  0  0  0  0  0
   62.0200  -42.1690   15.0470 C   0  0  0  0  0  0  0  0  0  0  0  0
   65.4050  -40.1110   13.2270 H   0  0  0  0  0  0  0  0  0  0  0  0
   65.3910  -41.7810   12.8180 H   0  0  0  0  0  0  0  0  0  0  0  0
   64.0330  -44.3950   13.4410 C   0  0  0  0  0  1  0  0  0  0  0  0
   63.0810  -43.2830   13.0240 C   0  0  0  0  0  2  0  0  0  0  0  0
   58.6000  -40.2320   18.4350 C   0  0  0  0  0  2  0  0  0  0  0  0
   59.5650  -39.8970   19.5680 C   0  0  0  0  0  3  0  0  0  0  0  0
   60.8180  -40.7800   19.7750 C   0  0  0  0  0  2  0  0  0  0  0  0
   61.5630  -39.5600   20.1430 N   0  0  0  0  0  4  0  0  0  0  0  0
   62.8820  -39.5050   19.4600 C   0  0  0  0  0  1  0  0  0  0  0  0
   60.5660  -38.7240   19.4470 C   0  0  0  0  0  2  0  0  0  0  0  0
   61.6210  -39.3930   21.1560 H   0  0  0  0  0  0  0  0  0  0  0  0
  1  5  1  0  0  0  0
  1  2  1  1  0  0  0
  2  3  1  0  0  0  0
  3  6  1  1  0  0  0
  4  3  1  0  0  0  0
  5  4  1  0  0  0  0
  6  7  2  0  0  0  0
  6 13  1  0  0  0  0
  7  8  1  0  0  0  0
  8  9  2  0  0  0  0
  9 10  1  0  0  0  0
 11  9  1  0  0  0  0
 11 12  1  0  0  0  0
 13 11  2  0  0  0  0
 14 19  1  0  0  0  0
 15 14  1  0  0  0  0
 15 16  1  0  0  0  0
 17 16  1  6  0  0  0
 17 18  1  0  0  0  0
 17  1  1  0  0  0  0
 19 18  1  0  0  0  0
 20 21  2  0  0  0  0
 20 26  1  0  0  0  0
 21 23  1  0  0  0  0
 22 27  1  0  0  0  0
 22 21  1  0  0  0  0
 23 24  2  0  0  0  0
 24 25  1  0  0  0  0
 26 14  1  0  0  0  0
 26 25  2  0  0  0  0
 28 22  1  0  0  0  0
 30 29  1  0  0  0  0
 30 20  1  0  0  0  0
 31  5  1  0  0  0  0
 31 32  1  0  0  0  0
 32 33  1  0  0  0  0
 33 34  1  0  0  0  0
 34 37  1  0  0  0  0
 35 34  1  0  0  0  0
 36 32  1  0  0  0  0
 36 34  1  0  0  0  0
M  END
>  <minimizedAffinity>
-5.03828526

$$$$
