
 OpenBabel11232419393D

 37 41  0  0  1  0  0  0  0  0999 V2000
   57.4070  -41.0650   19.0200 C   0  0  1  0  0  3  0  0  0  0  0  0
   57.0210  -40.1810   18.1140 N   0  0  0  0  0  2  0  0  0  0  0  0
   55.6680  -40.0120   18.2530 C   0  0  2  0  0  3  0  0  0  0  0  0
   55.1920  -40.9240   19.1610 C   0  0  0  0  0  2  0  0  0  0  0  0
   56.2810  -41.6800   19.5340 N   0  0  0  0  0  0  0  0  0  0  0  0
   54.8960  -39.0390   17.4990 C   0  0  0  0  0  0  0  0  0  0  0  0
   54.1190  -39.4710   16.4130 C   0  0  0  0  0  3  0  0  0  0  0  0
   53.3530  -38.5640   15.6800 C   0  0  0  0  0  3  0  0  0  0  0  0
   53.3700  -37.2160   16.0210 C   0  0  0  0  0  0  0  0  0  0  0  0
   52.6190  -36.3600   15.3150 F   0  0  0  0  0  0  0  0  0  0  0  0
   54.1530  -36.7480   17.0770 C   0  0  0  0  0  0  0  0  0  0  0  0
   54.1490  -35.2920   17.4310 C   0  0  0  0  0  1  0  0  0  0  0  0
   54.9060  -37.6700   17.8210 C   0  0  0  0  0  3  0  0  0  0  0  0
   61.7010  -41.5540   18.7110 N   0  0  0  0  0  0  0  0  0  0  0  0
   60.8700  -42.7540   18.7420 C   0  0  0  0  0  2  0  0  0  0  0  0
   59.4060  -42.4340   18.4510 C   0  0  0  0  0  2  0  0  0  0  0  0
   58.8800  -41.2730   19.3240 C   0  0  1  0  0  3  0  0  0  0  0  0
   59.8060  -40.0640   19.1950 C   0  0  0  0  0  2  0  0  0  0  0  0
   61.2570  -40.4310   19.5160 C   0  0  0  0  0  2  0  0  0  0  0  0
   63.6300  -41.2680   17.2760 C   0  0  0  0  0  0  0  0  0  0  0  0
   64.0740  -40.9130   16.0080 C   0  0  0  0  0  0  0  0  0  0  0  0
   65.4100  -40.9370   15.6570 N   0  0  0  0  0  0  0  0  0  0  0  0
   63.2440  -40.5870   15.0110 N   0  0  0  0  0  0  0  0  0  0  0  0
   61.9420  -40.5950   15.3020 C   0  0  0  0  0  3  0  0  0  0  0  0
   61.3980  -40.8790   16.4890 N   0  0  0  0  0  0  0  0  0  0  0  0
   62.2480  -41.2280   17.4690 C   0  0  0  0  0  0  0  0  0  0  0  0
   65.5600  -40.6840   14.6870 H   0  0  0  0  0  0  0  0  0  0  0  0
   66.0910  -40.6020   16.3200 H   0  0  0  0  0  0  0  0  0  0  0  0
   64.6190  -43.1870   18.5750 C   0  0  0  0  0  1  0  0  0  0  0  0
   64.5820  -41.6780   18.3690 C   0  0  0  0  0  2  0  0  0  0  0  0
   56.1220  -42.9670   20.1880 C   0  0  0  0  0  2  0  0  0  0  0  0
   55.8620  -44.1240   19.2280 C   0  0  0  0  0  3  0  0  0  0  0  0
   55.8400  -43.8490   17.7060 C   0  0  0  0  0  2  0  0  0  0  0  0
   56.4850  -45.1610   17.5040 N   0  0  0  0  0  4  0  0  0  0  0  0
   57.6160  -45.0650   16.5430 C   0  0  0  0  0  1  0  0  0  0  0  0
   56.9660  -45.1550   18.8980 C   0  0  0  0  0  2  0  0  0  0  0  0
   55.8290  -45.9220   17.2870 H   0  0  0  0  0  0  0  0  0  0  0  0
  1  2  1  6  0  0  0
  1 17  1  0  0  0  0
  1  5  1  0  0  0  0
  2  3  1  0  0  0  0
  3  6  1  6  0  0  0
  3  4  1  0  0  0  0
  4  5  1  0  0  0  0
  5 31  1  0  0  0  0
  6 13  1  0  0  0  0
  7  6  2  0  0  0  0
  8  9  2  0  0  0  0
  8  7  1  0  0  0  0
  9 11  1  0  0  0  0
 10  9  1  0  0  0  0
 11 12  1  0  0  0  0
 11 13  2  0  0  0  0
 14 15  1  0  0  0  0
 14 19  1  0  0  0  0
 16 15  1  0  0  0  0
 17 16  1  6  0  0  0
 18 17  1  0  0  0  0
 18 19  1  0  0  0  0
 20 26  1  0  0  0  0
 20 30  1  0  0  0  0
 21 20  2  0  0  0  0
 22 21  1  0  0  0  0
 22 28  1  0  0  0  0
 23 24  2  0  0  0  0
 23 21  1  0  0  0  0
 24 25  1  0  0  0  0
 25 26  2  0  0  0  0
 26 14  1  0  0  0  0
 27 22  1  0  0  0  0
 30 29  1  0  0  0  0
 32 31  1  0  0  0  0
 33 32  1  0  0  0  0
 34 33  1  0  0  0  0
 34 36  1  0  0  0  0
 35 34  1  0  0  0  0
 36 32  1  0  0  0  0
 37 34  1  0  0  0  0
M  END
>  <minimizedAffinity>
-5.19182968

$$$$
