
 OpenBabel11232419393D

 37 41  0  0  1  0  0  0  0  0999 V2000
   59.6670  -42.4520   17.4820 C   0  0  1  0  0  3  0  0  0  0  0  0
   58.3490  -42.4090   17.3640 N   0  0  0  0  0  2  0  0  0  0  0  0
   57.9100  -41.3080   18.0520 C   0  0  2  0  0  3  0  0  0  0  0  0
   58.9640  -40.7520   18.7320 C   0  0  0  0  0  2  0  0  0  0  0  0
   60.0430  -41.5690   18.4760 N   0  0  0  0  0  0  0  0  0  0  0  0
   56.5250  -40.8670   18.0680 C   0  0  0  0  0  0  0  0  0  0  0  0
   56.2430  -39.4950   18.1560 C   0  0  0  0  0  3  0  0  0  0  0  0
   54.9240  -39.0380   18.1560 C   0  0  0  0  0  3  0  0  0  0  0  0
   53.8800  -39.9530   18.0810 C   0  0  0  0  0  0  0  0  0  0  0  0
   52.6200  -39.4980   18.0690 F   0  0  0  0  0  0  0  0  0  0  0  0
   54.1240  -41.3260   18.0200 C   0  0  0  0  0  0  0  0  0  0  0  0
   52.9820  -42.2920   17.9320 C   0  0  0  0  0  1  0  0  0  0  0  0
   55.4540  -41.7760   18.0020 C   0  0  0  0  0  3  0  0  0  0  0  0
   62.8090  -44.2190   15.0780 N   0  0  0  0  0  0  0  0  0  0  0  0
   61.7460  -43.4870   14.3950 C   0  0  0  0  0  2  0  0  0  0  0  0
   60.9580  -42.6050   15.3600 C   0  0  0  0  0  2  0  0  0  0  0  0
   60.4940  -43.3820   16.6120 C   0  0  1  0  0  3  0  0  0  0  0  0
   61.6870  -44.0830   17.2610 C   0  0  0  0  0  2  0  0  0  0  0  0
   62.4300  -44.9710   16.2600 C   0  0  0  0  0  2  0  0  0  0  0  0
   64.5960  -42.9920   14.0000 C   0  0  0  0  0  0  0  0  0  0  0  0
   65.8350  -42.3840   14.1680 C   0  0  0  0  0  0  0  0  0  0  0  0
   66.4910  -41.7400   13.1360 N   0  0  0  0  0  0  0  0  0  0  0  0
   66.4560  -42.3120   15.3500 N   0  0  0  0  0  0  0  0  0  0  0  0
   65.8310  -42.8860   16.3800 C   0  0  0  0  0  3  0  0  0  0  0  0
   64.6620  -43.5330   16.3360 N   0  0  0  0  0  0  0  0  0  0  0  0
   64.0430  -43.5700   15.1440 C   0  0  0  0  0  0  0  0  0  0  0  0
   67.3640  -41.3200   13.4350 H   0  0  0  0  0  0  0  0  0  0  0  0
   66.4830  -42.1610   12.2210 H   0  0  0  0  0  0  0  0  0  0  0  0
   63.1750  -41.7100   12.3630 C   0  0  0  0  0  1  0  0  0  0  0  0
   63.8940  -43.0170   12.6680 C   0  0  0  0  0  2  0  0  0  0  0  0
   61.2370  -41.5270   19.3010 C   0  0  0  0  0  2  0  0  0  0  0  0
   62.2060  -40.4050   18.9370 C   0  0  0  0  0  3  0  0  0  0  0  0
   63.5470  -40.7600   18.2540 C   0  0  0  0  0  2  0  0  0  0  0  0
   63.4130  -39.5300   17.4510 N   0  0  0  0  0  4  0  0  0  0  0  0
   63.7060  -39.7860   16.0160 C   0  0  0  0  0  1  0  0  0  0  0  0
   61.9600  -39.5050   17.7040 C   0  0  0  0  0  2  0  0  0  0  0  0
   63.9220  -38.7220   17.8330 H   0  0  0  0  0  0  0  0  0  0  0  0
  1  2  1  1  0  0  0
  1  5  1  0  0  0  0
  2  3  1  0  0  0  0
  3  6  1  1  0  0  0
  3  4  1  0  0  0  0
  5  4  1  0  0  0  0
  5 31  1  0  0  0  0
  6  7  1  0  0  0  0
  7  8  2  0  0  0  0
  9  8  1  0  0  0  0
 10  9  1  0  0  0  0
 11  9  2  0  0  0  0
 12 11  1  0  0  0  0
 13 11  1  0  0  0  0
 13  6  2  0  0  0  0
 14 26  1  0  0  0  0
 14 19  1  0  0  0  0
 15 14  1  0  0  0  0
 15 16  1  0  0  0  0
 17 16  1  6  0  0  0
 17 18  1  0  0  0  0
 17  1  1  0  0  0  0
 19 18  1  0  0  0  0
 20 21  2  0  0  0  0
 20 26  1  0  0  0  0
 21 23  1  0  0  0  0
 22 27  1  0  0  0  0
 22 21  1  0  0  0  0
 23 24  2  0  0  0  0
 25 24  1  0  0  0  0
 26 25  2  0  0  0  0
 28 22  1  0  0  0  0
 29 30  1  0  0  0  0
 30 20  1  0  0  0  0
 32 31  1  0  0  0  0
 33 32  1  0  0  0  0
 34 36  1  0  0  0  0
 34 37  1  0  0  0  0
 34 33  1  0  0  0  0
 35 34  1  0  0  0  0
 36 32  1  0  0  0  0
M  END
>  <minimizedAffinity>
-4.49501801

$$$$
