
 OpenBabel11232419393D

 37 41  0  0  1  0  0  0  0  0999 V2000
   57.4070  -41.0650   19.0200 C   0  0  1  0  0  3  0  0  0  0  0  0
   57.0210  -40.1810   18.1140 N   0  0  0  0  0  2  0  0  0  0  0  0
   55.6680  -40.0120   18.2530 C   0  0  2  0  0  3  0  0  0  0  0  0
   55.1920  -40.9240   19.1610 C   0  0  0  0  0  2  0  0  0  0  0  0
   56.2810  -41.6800   19.5340 N   0  0  0  0  0  0  0  0  0  0  0  0
   54.8960  -39.0390   17.4990 C   0  0  0  0  0  0  0  0  0  0  0  0
   54.1190  -39.4710   16.4130 C   0  0  0  0  0  3  0  0  0  0  0  0
   53.3530  -38.5640   15.6800 C   0  0  0  0  0  3  0  0  0  0  0  0
   53.3700  -37.2160   16.0210 C   0  0  0  0  0  0  0  0  0  0  0  0
   52.6190  -36.3600   15.3150 F   0  0  0  0  0  0  0  0  0  0  0  0
   54.1530  -36.7480   17.0770 C   0  0  0  0  0  0  0  0  0  0  0  0
   54.1490  -35.2920   17.4310 C   0  0  0  0  0  1  0  0  0  0  0  0
   54.9060  -37.6700   17.8210 C   0  0  0  0  0  3  0  0  0  0  0  0
   61.7010  -41.5540   18.7110 N   0  0  0  0  0  0  0  0  0  0  0  0
   60.8700  -42.7540   18.7420 C   0  0  0  0  0  2  0  0  0  0  0  0
   59.4060  -42.4340   18.4510 C   0  0  0  0  0  2  0  0  0  0  0  0
   58.8800  -41.2730   19.3240 C   0  0  1  0  0  3  0  0  0  0  0  0
   59.8060  -40.0640   19.1950 C   0  0  0  0  0  2  0  0  0  0  0  0
   61.2570  -40.4310   19.5160 C   0  0  0  0  0  2  0  0  0  0  0  0
   63.6300  -41.2680   17.2760 C   0  0  0  0  0  0  0  0  0  0  0  0
   64.0740  -40.9130   16.0080 C   0  0  0  0  0  0  0  0  0  0  0  0
   65.4100  -40.9370   15.6570 N   0  0  0  0  0  0  0  0  0  0  0  0
   63.2440  -40.5870   15.0110 N   0  0  0  0  0  0  0  0  0  0  0  0
   61.9420  -40.5950   15.3020 C   0  0  0  0  0  3  0  0  0  0  0  0
   61.3980  -40.8790   16.4890 N   0  0  0  0  0  0  0  0  0  0  0  0
   62.2480  -41.2280   17.4690 C   0  0  0  0  0  0  0  0  0  0  0  0
   65.5600  -40.6840   14.6870 H   0  0  0  0  0  0  0  0  0  0  0  0
   66.0910  -40.6020   16.3200 H   0  0  0  0  0  0  0  0  0  0  0  0
   64.6190  -43.1870   18.5750 C   0  0  0  0  0  1  0  0  0  0  0  0
   64.5820  -41.6780   18.3690 C   0  0  0  0  0  2  0  0  0  0  0  0
   56.1220  -42.9670   20.1880 C   0  0  0  0  0  2  0  0  0  0  0  0
   55.8620  -44.1240   19.2280 C   0  0  0  0  0  3  0  0  0  0  0  0
   55.8400  -43.8490   17.7060 C   0  0  0  0  0  2  0  0  0  0  0  0
   56.4850  -45.1610   17.5040 N   0  0  0  0  0  4  0  0  0  0  0  0
   57.6160  -45.0650   16.5430 C   0  0  0  0  0  1  0  0  0  0  0  0
   56.9660  -45.1550   18.8980 C   0  0  0  0  0  2  0  0  0  0  0  0
   55.8290  -45.9220   17.2870 H   0  0  0  0  0  0  0  0  0  0  0  0
  1  2  1  6  0  0  0
  1 17  1  0  0  0  0
  1  5  1  0  0  0  0
  2  3  1  0  0  0  0
  3  6  1  6  0  0  0
  3  4  1  0  0  0  0
  4  5  1  0  0  0  0
  5 31  1  0  0  0  0
  6 13  1  0  0  0  0
  7  6  2  0  0  0  0
  8  9  2  0  0  0  0
  8  7  1  0  0  0  0
  9 11  1  0  0  0  0
 10  9  1  0  0  0  0
 11 12  1  0  0  0  0
 11 13  2  0  0  0  0
 14 15  1  0  0  0  0
 14 19  1  0  0  0  0
 16 15  1  0  0  0  0
 17 16  1  6  0  0  0
 18 17  1  0  0  0  0
 18 19  1  0  0  0  0
 20 26  1  0  0  0  0
 20 30  1  0  0  0  0
 21 20  2  0  0  0  0
 22 21  1  0  0  0  0
 22 28  1  0  0  0  0
 23 24  2  0  0  0  0
 23 21  1  0  0  0  0
 24 25  1  0  0  0  0
 25 26  2  0  0  0  0
 26 14  1  0  0  0  0
 27 22  1  0  0  0  0
 30 29  1  0  0  0  0
 32 31  1  0  0  0  0
 33 32  1  0  0  0  0
 34 33  1  0  0  0  0
 34 36  1  0  0  0  0
 35 34  1  0  0  0  0
 36 32  1  0  0  0  0
 37 34  1  0  0  0  0
M  END
>  <minimizedAffinity>
-5.19182968

$$$$

 OpenBabel11232419393D

 37 41  0  0  1  0  0  0  0  0999 V2000
   58.1180  -42.7550   18.2570 C   0  0  1  0  0  3  0  0  0  0  0  0
   57.4520  -43.5740   19.0560 N   0  0  0  0  0  2  0  0  0  0  0  0
   56.5380  -42.8220   19.7460 C   0  0  2  0  0  3  0  0  0  0  0  0
   56.7520  -41.4940   19.4770 C   0  0  0  0  0  2  0  0  0  0  0  0
   57.8470  -41.4570   18.6410 N   0  0  0  0  0  0  0  0  0  0  0  0
   55.5480  -43.3860   20.6490 C   0  0  0  0  0  0  0  0  0  0  0  0
   55.5230  -44.7720   20.8620 C   0  0  0  0  0  3  0  0  0  0  0  0
   54.5960  -45.3430   21.7350 C   0  0  0  0  0  3  0  0  0  0  0  0
   53.6790  -44.5300   22.3910 C   0  0  0  0  0  0  0  0  0  0  0  0
   52.8040  -45.0900   23.2360 F   0  0  0  0  0  0  0  0  0  0  0  0
   53.6570  -43.1500   22.1810 C   0  0  0  0  0  0  0  0  0  0  0  0
   52.6640  -42.2930   22.9050 C   0  0  0  0  0  1  0  0  0  0  0  0
   54.6060  -42.5820   21.3150 C   0  0  0  0  0  3  0  0  0  0  0  0
   61.0940  -43.2090   15.1400 N   0  0  0  0  0  0  0  0  0  0  0  0
   59.7280  -42.8760   14.7470 C   0  0  0  0  0  2  0  0  0  0  0  0
   58.9090  -42.3640   15.9300 C   0  0  0  0  0  2  0  0  0  0  0  0
   59.0090  -43.3010   17.1540 C   0  0  1  0  0  3  0  0  0  0  0  0
   60.4760  -43.5580   17.4940 C   0  0  0  0  0  2  0  0  0  0  0  0
   61.2480  -44.0900   16.2840 C   0  0  0  0  0  2  0  0  0  0  0  0
   62.9940  -42.1820   14.0480 C   0  0  0  0  0  0  0  0  0  0  0  0
   63.8770  -41.1080   14.0510 C   0  0  0  0  0  0  0  0  0  0  0  0
   64.8730  -40.9650   13.1030 N   0  0  0  0  0  0  0  0  0  0  0  0
   63.7920  -40.0980   14.9230 N   0  0  0  0  0  0  0  0  0  0  0  0
   62.8150  -40.1810   15.8270 C   0  0  0  0  0  3  0  0  0  0  0  0
   61.9330  -41.1780   15.9500 N   0  0  0  0  0  0  0  0  0  0  0  0
   62.0200  -42.1690   15.0470 C   0  0  0  0  0  0  0  0  0  0  0  0
   65.4050  -40.1110   13.2270 H   0  0  0  0  0  0  0  0  0  0  0  0
   65.3910  -41.7810   12.8180 H   0  0  0  0  0  0  0  0  0  0  0  0
   64.0330  -44.3950   13.4410 C   0  0  0  0  0  1  0  0  0  0  0  0
   63.0810  -43.2830   13.0240 C   0  0  0  0  0  2  0  0  0  0  0  0
   58.6000  -40.2320   18.4350 C   0  0  0  0  0  2  0  0  0  0  0  0
   59.5650  -39.8970   19.5680 C   0  0  0  0  0  3  0  0  0  0  0  0
   60.8180  -40.7800   19.7750 C   0  0  0  0  0  2  0  0  0  0  0  0
   61.5630  -39.5600   20.1430 N   0  0  0  0  0  4  0  0  0  0  0  0
   62.8820  -39.5050   19.4600 C   0  0  0  0  0  1  0  0  0  0  0  0
   60.5660  -38.7240   19.4470 C   0  0  0  0  0  2  0  0  0  0  0  0
   61.6210  -39.3930   21.1560 H   0  0  0  0  0  0  0  0  0  0  0  0
  1  5  1  0  0  0  0
  1  2  1  1  0  0  0
  2  3  1  0  0  0  0
  3  6  1  1  0  0  0
  4  3  1  0  0  0  0
  5  4  1  0  0  0  0
  6  7  2  0  0  0  0
  6 13  1  0  0  0  0
  7  8  1  0  0  0  0
  8  9  2  0  0  0  0
  9 10  1  0  0  0  0
 11  9  1  0  0  0  0
 11 12  1  0  0  0  0
 13 11  2  0  0  0  0
 14 19  1  0  0  0  0
 15 14  1  0  0  0  0
 15 16  1  0  0  0  0
 17 16  1  6  0  0  0
 17 18  1  0  0  0  0
 17  1  1  0  0  0  0
 19 18  1  0  0  0  0
 20 21  2  0  0  0  0
 20 26  1  0  0  0  0
 21 23  1  0  0  0  0
 22 27  1  0  0  0  0
 22 21  1  0  0  0  0
 23 24  2  0  0  0  0
 24 25  1  0  0  0  0
 26 14  1  0  0  0  0
 26 25  2  0  0  0  0
 28 22  1  0  0  0  0
 30 29  1  0  0  0  0
 30 20  1  0  0  0  0
 31  5  1  0  0  0  0
 31 32  1  0  0  0  0
 32 33  1  0  0  0  0
 33 34  1  0  0  0  0
 34 37  1  0  0  0  0
 35 34  1  0  0  0  0
 36 32  1  0  0  0  0
 36 34  1  0  0  0  0
M  END
>  <minimizedAffinity>
-5.03828526

$$$$

 OpenBabel11232419393D

 37 41  0  0  1  0  0  0  0  0999 V2000
   57.1390  -42.2410   18.1930 C   0  0  1  0  0  3  0  0  0  0  0  0
   56.8210  -41.0830   17.6380 N   0  0  0  0  0  2  0  0  0  0  0  0
   55.4680  -40.9150   17.7800 C   0  0  2  0  0  3  0  0  0  0  0  0
   54.9240  -42.0640   18.2980 C   0  0  0  0  0  2  0  0  0  0  0  0
   55.9740  -42.9480   18.4230 N   0  0  0  0  0  0  0  0  0  0  0  0
   54.7590  -39.7100   17.3850 C   0  0  0  0  0  0  0  0  0  0  0  0
   54.0330  -39.7030   16.1850 C   0  0  0  0  0  3  0  0  0  0  0  0
   53.3280  -38.5660   15.7860 C   0  0  0  0  0  3  0  0  0  0  0  0
   53.3550  -37.4260   16.5800 C   0  0  0  0  0  0  0  0  0  0  0  0
   52.6630  -36.3480   16.1900 F   0  0  0  0  0  0  0  0  0  0  0  0
   54.0900  -37.3890   17.7660 C   0  0  0  0  0  0  0  0  0  0  0  0
   54.0990  -36.1500   18.6090 C   0  0  0  0  0  1  0  0  0  0  0  0
   54.7820  -38.5430   18.1690 C   0  0  0  0  0  3  0  0  0  0  0  0
   61.4300  -42.7620   17.8880 N   0  0  0  0  0  0  0  0  0  0  0  0
   60.5690  -43.8590   17.4570 C   0  0  0  0  0  2  0  0  0  0  0  0
   59.1290  -43.3980   17.2470 C   0  0  0  0  0  2  0  0  0  0  0  0
   58.5900  -42.6030   18.4570 C   0  0  1  0  0  3  0  0  0  0  0  0
   59.5510  -41.4660   18.8020 C   0  0  0  0  0  2  0  0  0  0  0  0
   60.9750  -41.9820   19.0250 C   0  0  0  0  0  2  0  0  0  0  0  0
   63.4350  -41.9310   16.8160 C   0  0  0  0  0  0  0  0  0  0  0  0
   63.9470  -41.1780   15.7660 C   0  0  0  0  0  0  0  0  0  0  0  0
   65.3040  -41.0100   15.5670 N   0  0  0  0  0  0  0  0  0  0  0  0
   63.1760  -40.6140   14.8310 N   0  0  0  0  0  0  0  0  0  0  0  0
   61.8600  -40.7910   14.9670 C   0  0  0  0  0  3  0  0  0  0  0  0
   61.2490  -41.4580   15.9510 N   0  0  0  0  0  0  0  0  0  0  0  0
   62.0450  -42.0380   16.8650 C   0  0  0  0  0  0  0  0  0  0  0  0
   65.5100  -40.4640   14.7380 H   0  0  0  0  0  0  0  0  0  0  0  0
   65.8950  -40.8540   16.3680 H   0  0  0  0  0  0  0  0  0  0  0  0
   64.6310  -41.6990   19.0210 C   0  0  0  0  0  1  0  0  0  0  0  0
   64.3280  -42.5980   17.8290 C   0  0  0  0  0  2  0  0  0  0  0  0
   55.7480  -44.3730   18.5840 C   0  0  0  0  0  2  0  0  0  0  0  0
   55.3180  -44.7800   19.9910 C   0  0  0  0  0  3  0  0  0  0  0  0
   55.7150  -43.8840   21.1870 C   0  0  0  0  0  2  0  0  0  0  0  0
   54.4060  -44.1920   21.7950 N   0  0  0  0  0  4  0  0  0  0  0  0
   53.7510  -42.9640   22.3170 C   0  0  0  0  0  1  0  0  0  0  0  0
   53.8650  -44.5670   20.4750 C   0  0  0  0  0  2  0  0  0  0  0  0
   54.4300  -44.9620   22.4760 H   0  0  0  0  0  0  0  0  0  0  0  0
  1  2  1  6  0  0  0
  1  5  1  0  0  0  0
  1 17  1  0  0  0  0
  2  3  1  0  0  0  0
  3  6  1  6  0  0  0
  3  4  1  0  0  0  0
  4  5  1  0  0  0  0
  5 31  1  0  0  0  0
  6 13  1  0  0  0  0
  7  6  2  0  0  0  0
  8  7  1  0  0  0  0
  8  9  2  0  0  0  0
  9 11  1  0  0  0  0
 10  9  1  0  0  0  0
 11 13  2  0  0  0  0
 11 12  1  0  0  0  0
 14 19  1  0  0  0  0
 15 14  1  0  0  0  0
 16 15  1  0  0  0  0
 17 16  1  6  0  0  0
 17 18  1  0  0  0  0
 18 19  1  0  0  0  0
 20 26  1  0  0  0  0
 20 30  1  0  0  0  0
 21 20  2  0  0  0  0
 22 21  1  0  0  0  0
 22 28  1  0  0  0  0
 23 24  2  0  0  0  0
 23 21  1  0  0  0  0
 24 25  1  0  0  0  0
 25 26  2  0  0  0  0
 26 14  1  0  0  0  0
 27 22  1  0  0  0  0
 30 29  1  0  0  0  0
 31 32  1  0  0  0  0
 32 36  1  0  0  0  0
 32 33  1  0  0  0  0
 33 34  1  0  0  0  0
 34 35  1  0  0  0  0
 34 37  1  0  0  0  0
 36 34  1  0  0  0  0
M  END
>  <minimizedAffinity>
-4.76686621

$$$$

 OpenBabel11232419393D

 37 41  0  0  1  0  0  0  0  0999 V2000
   59.6670  -42.4520   17.4820 C   0  0  1  0  0  3  0  0  0  0  0  0
   58.3490  -42.4090   17.3640 N   0  0  0  0  0  2  0  0  0  0  0  0
   57.9100  -41.3080   18.0520 C   0  0  2  0  0  3  0  0  0  0  0  0
   58.9640  -40.7520   18.7320 C   0  0  0  0  0  2  0  0  0  0  0  0
   60.0430  -41.5690   18.4760 N   0  0  0  0  0  0  0  0  0  0  0  0
   56.5250  -40.8670   18.0680 C   0  0  0  0  0  0  0  0  0  0  0  0
   56.2430  -39.4950   18.1560 C   0  0  0  0  0  3  0  0  0  0  0  0
   54.9240  -39.0380   18.1560 C   0  0  0  0  0  3  0  0  0  0  0  0
   53.8800  -39.9530   18.0810 C   0  0  0  0  0  0  0  0  0  0  0  0
   52.6200  -39.4980   18.0690 F   0  0  0  0  0  0  0  0  0  0  0  0
   54.1240  -41.3260   18.0200 C   0  0  0  0  0  0  0  0  0  0  0  0
   52.9820  -42.2920   17.9320 C   0  0  0  0  0  1  0  0  0  0  0  0
   55.4540  -41.7760   18.0020 C   0  0  0  0  0  3  0  0  0  0  0  0
   62.8090  -44.2190   15.0780 N   0  0  0  0  0  0  0  0  0  0  0  0
   61.7460  -43.4870   14.3950 C   0  0  0  0  0  2  0  0  0  0  0  0
   60.9580  -42.6050   15.3600 C   0  0  0  0  0  2  0  0  0  0  0  0
   60.4940  -43.3820   16.6120 C   0  0  1  0  0  3  0  0  0  0  0  0
   61.6870  -44.0830   17.2610 C   0  0  0  0  0  2  0  0  0  0  0  0
   62.4300  -44.9710   16.2600 C   0  0  0  0  0  2  0  0  0  0  0  0
   64.5960  -42.9920   14.0000 C   0  0  0  0  0  0  0  0  0  0  0  0
   65.8350  -42.3840   14.1680 C   0  0  0  0  0  0  0  0  0  0  0  0
   66.4910  -41.7400   13.1360 N   0  0  0  0  0  0  0  0  0  0  0  0
   66.4560  -42.3120   15.3500 N   0  0  0  0  0  0  0  0  0  0  0  0
   65.8310  -42.8860   16.3800 C   0  0  0  0  0  3  0  0  0  0  0  0
   64.6620  -43.5330   16.3360 N   0  0  0  0  0  0  0  0  0  0  0  0
   64.0430  -43.5700   15.1440 C   0  0  0  0  0  0  0  0  0  0  0  0
   67.3640  -41.3200   13.4350 H   0  0  0  0  0  0  0  0  0  0  0  0
   66.4830  -42.1610   12.2210 H   0  0  0  0  0  0  0  0  0  0  0  0
   63.1750  -41.7100   12.3630 C   0  0  0  0  0  1  0  0  0  0  0  0
   63.8940  -43.0170   12.6680 C   0  0  0  0  0  2  0  0  0  0  0  0
   61.2370  -41.5270   19.3010 C   0  0  0  0  0  2  0  0  0  0  0  0
   62.2060  -40.4050   18.9370 C   0  0  0  0  0  3  0  0  0  0  0  0
   63.5470  -40.7600   18.2540 C   0  0  0  0  0  2  0  0  0  0  0  0
   63.4130  -39.5300   17.4510 N   0  0  0  0  0  4  0  0  0  0  0  0
   63.7060  -39.7860   16.0160 C   0  0  0  0  0  1  0  0  0  0  0  0
   61.9600  -39.5050   17.7040 C   0  0  0  0  0  2  0  0  0  0  0  0
   63.9220  -38.7220   17.8330 H   0  0  0  0  0  0  0  0  0  0  0  0
  1  2  1  1  0  0  0
  1  5  1  0  0  0  0
  2  3  1  0  0  0  0
  3  6  1  1  0  0  0
  3  4  1  0  0  0  0
  5  4  1  0  0  0  0
  5 31  1  0  0  0  0
  6  7  1  0  0  0  0
  7  8  2  0  0  0  0
  9  8  1  0  0  0  0
 10  9  1  0  0  0  0
 11  9  2  0  0  0  0
 12 11  1  0  0  0  0
 13 11  1  0  0  0  0
 13  6  2  0  0  0  0
 14 26  1  0  0  0  0
 14 19  1  0  0  0  0
 15 14  1  0  0  0  0
 15 16  1  0  0  0  0
 17 16  1  6  0  0  0
 17 18  1  0  0  0  0
 17  1  1  0  0  0  0
 19 18  1  0  0  0  0
 20 21  2  0  0  0  0
 20 26  1  0  0  0  0
 21 23  1  0  0  0  0
 22 27  1  0  0  0  0
 22 21  1  0  0  0  0
 23 24  2  0  0  0  0
 25 24  1  0  0  0  0
 26 25  2  0  0  0  0
 28 22  1  0  0  0  0
 29 30  1  0  0  0  0
 30 20  1  0  0  0  0
 32 31  1  0  0  0  0
 33 32  1  0  0  0  0
 34 36  1  0  0  0  0
 34 37  1  0  0  0  0
 34 33  1  0  0  0  0
 35 34  1  0  0  0  0
 36 32  1  0  0  0  0
M  END
>  <minimizedAffinity>
-4.49501801

$$$$

 OpenBabel11232419393D

 37 41  0  0  1  0  0  0  0  0999 V2000
   57.6040  -43.0220   16.3290 C   0  0  1  0  0  3  0  0  0  0  0  0
   57.1550  -41.9580   16.9750 N   0  0  0  0  0  2  0  0  0  0  0  0
   55.8100  -42.1330   17.1710 C   0  0  2  0  0  3  0  0  0  0  0  0
   55.3990  -43.2570   16.4970 C   0  0  0  0  0  2  0  0  0  0  0  0
   56.5200  -43.7320   15.8520 N   0  0  0  0  0  0  0  0  0  0  0  0
   54.9810  -41.2190   17.9390 C   0  0  0  0  0  0  0  0  0  0  0  0
   54.1740  -41.7250   18.9690 C   0  0  0  0  0  3  0  0  0  0  0  0
   53.3790  -40.8710   19.7360 C   0  0  0  0  0  3  0  0  0  0  0  0
   53.3790  -39.5070   19.4680 C   0  0  0  0  0  0  0  0  0  0  0  0
   52.6210  -38.6990   20.2210 F   0  0  0  0  0  0  0  0  0  0  0  0
   54.1480  -38.9740   18.4320 C   0  0  0  0  0  0  0  0  0  0  0  0
   54.1360  -37.4990   18.1670 C   0  0  0  0  0  1  0  0  0  0  0  0
   54.9580  -39.8380   17.6780 C   0  0  0  0  0  3  0  0  0  0  0  0
   61.9220  -42.7370   16.5680 N   0  0  0  0  0  0  0  0  0  0  0  0
   61.2600  -42.2170   15.3750 C   0  0  0  0  0  2  0  0  0  0  0  0
   59.7630  -42.0210   15.5990 C   0  0  0  0  0  2  0  0  0  0  0  0
   59.0960  -43.2780   16.2000 C   0  0  1  0  0  3  0  0  0  0  0  0
   59.8490  -43.7170   17.4550 C   0  0  0  0  0  2  0  0  0  0  0  0
   61.3400  -43.9210   17.1730 C   0  0  0  0  0  2  0  0  0  0  0  0
   63.5010  -42.0630   18.2730 C   0  0  0  0  0  0  0  0  0  0  0  0
   63.8950  -41.0460   19.1350 C   0  0  0  0  0  0  0  0  0  0  0  0
   64.9840  -41.1680   19.9780 N   0  0  0  0  0  0  0  0  0  0  0  0
   63.3000  -39.8490   19.1680 N   0  0  0  0  0  0  0  0  0  0  0  0
   62.2710  -39.6790   18.3370 C   0  0  0  0  0  3  0  0  0  0  0  0
   61.7750  -40.5910   17.4940 N   0  0  0  0  0  0  0  0  0  0  0  0
   62.4050  -41.7770   17.4580 C   0  0  0  0  0  0  0  0  0  0  0  0
   65.1560  -40.3240   20.5120 H   0  0  0  0  0  0  0  0  0  0  0  0
   65.1290  -42.0430   20.4560 H   0  0  0  0  0  0  0  0  0  0  0  0
   65.3760  -43.3820   17.2290 C   0  0  0  0  0  1  0  0  0  0  0  0
   64.2200  -43.3860   18.2200 C   0  0  0  0  0  2  0  0  0  0  0  0
   56.4170  -44.6780   14.7550 C   0  0  0  0  0  2  0  0  0  0  0  0
   56.1330  -44.0320   13.4010 C   0  0  0  0  0  3  0  0  0  0  0  0
   54.6880  -43.5970   13.0640 C   0  0  0  0  0  2  0  0  0  0  0  0
   55.2510  -42.4260   12.3630 N   0  0  0  0  0  4  0  0  0  0  0  0
   54.5290  -41.1790   12.7260 C   0  0  0  0  0  1  0  0  0  0  0  0
   56.5080  -42.5580   13.1230 C   0  0  0  0  0  2  0  0  0  0  0  0
   55.3570  -42.5550   11.3480 H   0  0  0  0  0  0  0  0  0  0  0  0
  1  2  1  6  0  0  0
  2  3  1  0  0  0  0
  3  6  1  6  0  0  0
  4  3  1  0  0  0  0
  5  1  1  0  0  0  0
  5  4  1  0  0  0  0
  6  7  1  0  0  0  0
  7  8  2  0  0  0  0
  9  8  1  0  0  0  0
  9 10  1  0  0  0  0
 11  9  2  0  0  0  0
 12 11  1  0  0  0  0
 13  6  2  0  0  0  0
 13 11  1  0  0  0  0
 14 19  1  0  0  0  0
 14 26  1  0  0  0  0
 15 16  1  0  0  0  0
 15 14  1  0  0  0  0
 17 16  1  1  0  0  0
 17  1  1  0  0  0  0
 17 18  1  0  0  0  0
 19 18  1  0  0  0  0
 20 21  1  0  0  0  0
 21 23  2  0  0  0  0
 21 22  1  0  0  0  0
 22 28  1  0  0  0  0
 22 27  1  0  0  0  0
 24 23  1  0  0  0  0
 25 24  2  0  0  0  0
 26 25  1  0  0  0  0
 26 20  2  0  0  0  0
 29 30  1  0  0  0  0
 30 20  1  0  0  0  0
 31  5  1  0  0  0  0
 32 31  1  0  0  0  0
 33 32  1  0  0  0  0
 34 35  1  0  0  0  0
 34 33  1  0  0  0  0
 34 36  1  0  0  0  0
 36 32  1  0  0  0  0
 37 34  1  0  0  0  0
M  END
>  <minimizedAffinity>
-4.4663415

$$$$

 OpenBabel11232419393D

 37 41  0  0  1  0  0  0  0  0999 V2000
   56.6660  -42.8690   16.9370 C   0  0  1  0  0  3  0  0  0  0  0  0
   56.3580  -41.6010   17.1540 N   0  0  0  0  0  2  0  0  0  0  0  0
   55.1070  -41.5710   17.7140 C   0  0  2  0  0  3  0  0  0  0  0  0
   54.5770  -42.8370   17.6990 C   0  0  0  0  0  2  0  0  0  0  0  0
   55.5190  -43.6260   17.0750 N   0  0  0  0  0  0  0  0  0  0  0  0
   54.4650  -40.3570   18.1890 C   0  0  0  0  0  0  0  0  0  0  0  0
   53.5550  -40.4340   19.2540 C   0  0  0  0  0  3  0  0  0  0  0  0
   52.9350  -39.2840   19.7450 C   0  0  0  0  0  3  0  0  0  0  0  0
   53.2120  -38.0520   19.1650 C   0  0  0  0  0  0  0  0  0  0  0  0
   52.6190  -36.9560   19.6560 F   0  0  0  0  0  0  0  0  0  0  0  0
   54.0910  -37.9430   18.0860 C   0  0  0  0  0  0  0  0  0  0  0  0
   54.3800  -36.6030   17.4810 C   0  0  0  0  0  1  0  0  0  0  0  0
   54.7250  -39.1030   17.6100 C   0  0  0  0  0  3  0  0  0  0  0  0
   60.9100  -42.8570   16.0600 N   0  0  0  0  0  0  0  0  0  0  0  0
   59.9740  -42.7860   14.9430 C   0  0  0  0  0  2  0  0  0  0  0  0
   58.5710  -42.4010   15.4050 C   0  0  0  0  0  2  0  0  0  0  0  0
   58.0880  -43.2730   16.5850 C   0  0  1  0  0  3  0  0  0  0  0  0
   59.1260  -43.2520   17.7060 C   0  0  0  0  0  2  0  0  0  0  0  0
   60.5100  -43.6660   17.1970 C   0  0  0  0  0  2  0  0  0  0  0  0
   62.7950  -41.3690   15.7580 C   0  0  0  0  0  0  0  0  0  0  0  0
   63.3840  -40.1700   16.1420 C   0  0  0  0  0  0  0  0  0  0  0  0
   64.5740  -39.7220   15.6000 N   0  0  0  0  0  0  0  0  0  0  0  0
   62.8180  -39.3270   17.0110 N   0  0  0  0  0  0  0  0  0  0  0  0
   61.6460  -39.7070   17.5230 C   0  0  0  0  0  3  0  0  0  0  0  0
   61.0020  -40.8490   17.2630 N   0  0  0  0  0  0  0  0  0  0  0  0
   61.5770  -41.6700   16.3670 C   0  0  0  0  0  0  0  0  0  0  0  0
   64.8470  -38.8150   15.9620 H   0  0  0  0  0  0  0  0  0  0  0  0
   65.3150  -40.3860   15.4430 H   0  0  0  0  0  0  0  0  0  0  0  0
   63.1110  -41.8680   13.3090 C   0  0  0  0  0  1  0  0  0  0  0  0
   63.4310  -42.2790   14.7390 C   0  0  0  0  0  2  0  0  0  0  0  0
   55.1790  -44.9340   16.5430 C   0  0  0  0  0  2  0  0  0  0  0  0
   54.8970  -44.9400   15.0430 C   0  0  0  0  0  3  0  0  0  0  0  0
   54.6000  -43.6020   14.3270 C   0  0  0  0  0  2  0  0  0  0  0  0
   55.3460  -44.1110   13.1600 N   0  0  0  0  0  4  0  0  0  0  0  0
   56.2890  -43.0900   12.6330 C   0  0  0  0  0  1  0  0  0  0  0  0
   56.0420  -45.0920   14.0140 C   0  0  0  0  0  2  0  0  0  0  0  0
   54.7520  -44.5320   12.4330 H   0  0  0  0  0  0  0  0  0  0  0  0
  1  5  1  0  0  0  0
  1  2  1  6  0  0  0
  2  3  1  0  0  0  0
  3  6  1  6  0  0  0
  4  3  1  0  0  0  0
  5  4  1  0  0  0  0
  6  7  1  0  0  0  0
  7  8  2  0  0  0  0
  9 10  1  0  0  0  0
  9  8  1  0  0  0  0
 11  9  2  0  0  0  0
 12 11  1  0  0  0  0
 13 11  1  0  0  0  0
 13  6  2  0  0  0  0
 14 26  1  0  0  0  0
 14 19  1  0  0  0  0
 15 16  1  0  0  0  0
 15 14  1  0  0  0  0
 17 16  1  6  0  0  0
 17  1  1  0  0  0  0
 17 18  1  0  0  0  0
 19 18  1  0  0  0  0
 20 21  2  0  0  0  0
 20 26  1  0  0  0  0
 21 23  1  0  0  0  0
 22 27  1  0  0  0  0
 22 21  1  0  0  0  0
 23 24  2  0  0  0  0
 25 24  1  0  0  0  0
 26 25  2  0  0  0  0
 28 22  1  0  0  0  0
 29 30  1  0  0  0  0
 30 20  1  0  0  0  0
 31  5  1  0  0  0  0
 32 31  1  0  0  0  0
 33 32  1  0  0  0  0
 34 36  1  0  0  0  0
 34 33  1  0  0  0  0
 35 34  1  0  0  0  0
 36 32  1  0  0  0  0
 37 34  1  0  0  0  0
M  END
>  <minimizedAffinity>
-4.45259666

$$$$

 OpenBabel11232419393D

 37 41  0  0  1  0  0  0  0  0999 V2000
   56.7460  -41.3400   18.2510 C   0  0  1  0  0  3  0  0  0  0  0  0
   57.8020  -40.5450   18.1790 N   0  0  0  0  0  2  0  0  0  0  0  0
   58.8920  -41.3320   17.9140 C   0  0  2  0  0  3  0  0  0  0  0  0
   58.5210  -42.6520   17.9770 C   0  0  0  0  0  2  0  0  0  0  0  0
   57.1890  -42.6450   18.3300 N   0  0  0  0  0  0  0  0  0  0  0  0
   60.2240  -40.8060   17.6620 C   0  0  0  0  0  0  0  0  0  0  0  0
   61.0200  -41.4010   16.6720 C   0  0  0  0  0  3  0  0  0  0  0  0
   62.2970  -40.9100   16.3940 C   0  0  0  0  0  3  0  0  0  0  0  0
   62.7880  -39.8270   17.1140 C   0  0  0  0  0  0  0  0  0  0  0  0
   64.0100  -39.3580   16.8260 F   0  0  0  0  0  0  0  0  0  0  0  0
   62.0330  -39.2290   18.1240 C   0  0  0  0  0  0  0  0  0  0  0  0
   62.5820  -38.0580   18.8820 C   0  0  0  0  0  1  0  0  0  0  0  0
   60.7430  -39.7180   18.3850 C   0  0  0  0  0  3  0  0  0  0  0  0
   53.1410  -39.1310   17.3000 N   0  0  0  0  0  0  0  0  0  0  0  0
   54.0650  -38.5580   18.2740 C   0  0  0  0  0  2  0  0  0  0  0  0
   55.4380  -39.2230   18.2090 C   0  0  0  0  0  2  0  0  0  0  0  0
   55.3400  -40.7640   18.2540 C   0  0  1  0  0  3  0  0  0  0  0  0
   54.3730  -41.2550   17.1780 C   0  0  0  0  0  2  0  0  0  0  0  0
   53.0060  -40.5760   17.2980 C   0  0  0  0  0  2  0  0  0  0  0  0
   52.9780  -37.1380   15.9350 C   0  0  0  0  0  0  0  0  0  0  0  0
   52.9670  -36.6320   14.6410 C   0  0  0  0  0  0  0  0  0  0  0  0
   52.8570  -35.2800   14.3750 N   0  0  0  0  0  0  0  0  0  0  0  0
   53.1310  -37.3980   13.5580 N   0  0  0  0  0  0  0  0  0  0  0  0
   53.2840  -38.7050   13.7790 C   0  0  0  0  0  3  0  0  0  0  0  0
   53.2720  -39.3140   14.9690 N   0  0  0  0  0  0  0  0  0  0  0  0
   53.1320  -38.5210   16.0450 C   0  0  0  0  0  0  0  0  0  0  0  0
   52.9020  -35.0750   13.3830 H   0  0  0  0  0  0  0  0  0  0  0  0
   52.2120  -34.7310   14.9200 H   0  0  0  0  0  0  0  0  0  0  0  0
   54.0930  -35.4220   17.4040 C   0  0  0  0  0  1  0  0  0  0  0  0
   52.8400  -36.2470   17.1420 C   0  0  0  0  0  2  0  0  0  0  0  0
   56.5390  -43.8350   18.8510 C   0  0  0  0  0  2  0  0  0  0  0  0
   56.4990  -43.9040   20.3750 C   0  0  0  0  0  3  0  0  0  0  0  0
   55.2500  -43.3770   21.1190 C   0  0  0  0  0  2  0  0  0  0  0  0
   55.4160  -44.4780   22.0870 N   0  0  0  0  0  4  0  0  0  0  0  0
   54.1220  -45.1560   22.3620 C   0  0  0  0  0  1  0  0  0  0  0  0
   56.2190  -45.2360   21.1090 C   0  0  0  0  0  2  0  0  0  0  0  0
   55.9270  -44.2150   22.9400 H   0  0  0  0  0  0  0  0  0  0  0  0
  1  2  1  1  0  0  0
  1 17  1  0  0  0  0
  1  5  1  0  0  0  0
  3  6  1  1  0  0  0
  3  4  1  0  0  0  0
  3  2  1  0  0  0  0
  4  5  1  0  0  0  0
  5 31  1  0  0  0  0
  6 13  1  0  0  0  0
  7  6  2  0  0  0  0
  8  7  1  0  0  0  0
  8  9  2  0  0  0  0
  9 11  1  0  0  0  0
 10  9  1  0  0  0  0
 11 13  2  0  0  0  0
 11 12  1  0  0  0  0
 14 15  1  0  0  0  0
 16 17  1  0  0  0  0
 16 15  1  0  0  0  0
 17 18  1  6  0  0  0
 18 19  1  0  0  0  0
 19 14  1  0  0  0  0
 20 26  1  0  0  0  0
 20 30  1  0  0  0  0
 21 20  2  0  0  0  0
 22 21  1  0  0  0  0
 22 28  1  0  0  0  0
 23 24  2  0  0  0  0
 23 21  1  0  0  0  0
 24 25  1  0  0  0  0
 25 26  2  0  0  0  0
 26 14  1  0  0  0  0
 27 22  1  0  0  0  0
 30 29  1  0  0  0  0
 31 32  1  0  0  0  0
 32 36  1  0  0  0  0
 32 33  1  0  0  0  0
 33 34  1  0  0  0  0
 34 35  1  0  0  0  0
 34 37  1  0  0  0  0
 36 34  1  0  0  0  0
M  END
>  <minimizedAffinity>
-4.43988895

$$$$

 OpenBabel11232419393D

 37 41  0  0  1  0  0  0  0  0999 V2000
   59.9440  -42.4470   16.8330 C   0  0  1  0  0  3  0  0  0  0  0  0
   60.7140  -42.3200   15.7650 N   0  0  0  0  0  2  0  0  0  0  0  0
   62.0130  -42.2590   16.1980 C   0  0  2  0  0  3  0  0  0  0  0  0
   62.0270  -42.1940   17.5690 C   0  0  0  0  0  2  0  0  0  0  0  0
   60.7040  -42.1720   17.9530 N   0  0  0  0  0  0  0  0  0  0  0  0
   63.1600  -42.2220   15.3060 C   0  0  0  0  0  0  0  0  0  0  0  0
   63.1950  -41.2740   14.2730 C   0  0  0  0  0  3  0  0  0  0  0  0
   64.2890  -41.2010   13.4100 C   0  0  0  0  0  3  0  0  0  0  0  0
   65.3500  -42.0860   13.5680 C   0  0  0  0  0  0  0  0  0  0  0  0
   66.3990  -41.9950   12.7400 F   0  0  0  0  0  0  0  0  0  0  0  0
   65.3350  -43.0590   14.5680 C   0  0  0  0  0  0  0  0  0  0  0  0
   66.4930  -43.9980   14.7240 C   0  0  0  0  0  1  0  0  0  0  0  0
   64.2380  -43.1140   15.4430 C   0  0  0  0  0  3  0  0  0  0  0  0
   55.8890  -43.7780   17.5830 N   0  0  0  0  0  0  0  0  0  0  0  0
   56.8460  -44.7450   17.0540 C   0  0  0  0  0  2  0  0  0  0  0  0
   58.2850  -44.2620   17.2180 C   0  0  0  0  0  2  0  0  0  0  0  0
   58.4780  -42.8220   16.6940 C   0  0  1  0  0  3  0  0  0  0  0  0
   57.4470  -41.8930   17.3320 C   0  0  0  0  0  2  0  0  0  0  0  0
   56.0210  -42.4080   17.1220 C   0  0  0  0  0  2  0  0  0  0  0  0
   54.2290  -43.7930   19.3460 C   0  0  0  0  0  0  0  0  0  0  0  0
   54.0040  -43.9530   20.7080 C   0  0  0  0  0  0  0  0  0  0  0  0
   52.7410  -43.8760   21.2640 N   0  0  0  0  0  0  0  0  0  0  0  0
   54.9740  -44.2590   21.5760 N   0  0  0  0  0  0  0  0  0  0  0  0
   56.2010  -44.3830   21.0680 C   0  0  0  0  0  3  0  0  0  0  0  0
   56.5490  -44.2150   19.7880 N   0  0  0  0  0  0  0  0  0  0  0  0
   55.5540  -43.9340   18.9300 C   0  0  0  0  0  0  0  0  0  0  0  0
   52.7460  -44.0510   22.2630 H   0  0  0  0  0  0  0  0  0  0  0  0
   52.1090  -43.1640   20.9350 H   0  0  0  0  0  0  0  0  0  0  0  0
   52.6530  -42.0460   18.4480 C   0  0  0  0  0  1  0  0  0  0  0  0
   53.1110  -43.4960   18.3820 C   0  0  0  0  0  2  0  0  0  0  0  0
   60.3090  -41.7390   19.2820 C   0  0  0  0  0  2  0  0  0  0  0  0
   60.1300  -40.2290   19.4160 C   0  0  0  0  0  3  0  0  0  0  0  0
   61.1350  -39.4250   20.2730 C   0  0  0  0  0  2  0  0  0  0  0  0
   61.0270  -38.3280   19.2920 N   0  0  0  0  0  4  0  0  0  0  0  0
   62.3660  -37.7930   18.9280 C   0  0  0  0  0  1  0  0  0  0  0  0
   60.5320  -39.2700   18.2710 C   0  0  0  0  0  2  0  0  0  0  0  0
   60.3530  -37.5960   19.5530 H   0  0  0  0  0  0  0  0  0  0  0  0
  1  2  1  6  0  0  0
  1  5  1  0  0  0  0
  2  3  1  0  0  0  0
  3  6  1  6  0  0  0
  3  4  1  0  0  0  0
  4  5  1  0  0  0  0
  5 31  1  0  0  0  0
  6 13  1  0  0  0  0
  7  6  2  0  0  0  0
  8  9  2  0  0  0  0
  8  7  1  0  0  0  0
  9 11  1  0  0  0  0
 10  9  1  0  0  0  0
 11 12  1  0  0  0  0
 11 13  2  0  0  0  0
 14 26  1  0  0  0  0
 15 16  1  0  0  0  0
 15 14  1  0  0  0  0
 17  1  1  0  0  0  0
 17 16  1  1  0  0  0
 17 18  1  0  0  0  0
 19 18  1  0  0  0  0
 19 14  1  0  0  0  0
 20 21  1  0  0  0  0
 21 22  1  0  0  0  0
 21 23  2  0  0  0  0
 22 27  1  0  0  0  0
 24 23  1  0  0  0  0
 25 24  2  0  0  0  0
 26 20  2  0  0  0  0
 26 25  1  0  0  0  0
 28 22  1  0  0  0  0
 30 29  1  0  0  0  0
 30 20  1  0  0  0  0
 31 32  1  0  0  0  0
 32 33  1  0  0  0  0
 34 37  1  0  0  0  0
 34 33  1  0  0  0  0
 35 34  1  0  0  0  0
 36 34  1  0  0  0  0
 36 32  1  0  0  0  0
M  END
>  <minimizedAffinity>
-4.19664383

$$$$

 OpenBabel11232419393D

 37 41  0  0  1  0  0  0  0  0999 V2000
   59.4630  -42.6310   17.7100 C   0  0  1  0  0  3  0  0  0  0  0  0
   60.3420  -42.9100   16.7600 N   0  0  0  0  0  2  0  0  0  0  0  0
   61.5900  -42.8410   17.3210 C   0  0  2  0  0  3  0  0  0  0  0  0
   61.4820  -42.3600   18.6020 C   0  0  0  0  0  2  0  0  0  0  0  0
   60.1430  -42.0970   18.7870 N   0  0  0  0  0  0  0  0  0  0  0  0
   62.8120  -43.1860   16.6130 C   0  0  0  0  0  0  0  0  0  0  0  0
   62.9260  -44.4510   16.0160 C   0  0  0  0  0  3  0  0  0  0  0  0
   64.0790  -44.8070   15.3160 C   0  0  0  0  0  3  0  0  0  0  0  0
   65.1310  -43.9030   15.2190 C   0  0  0  0  0  0  0  0  0  0  0  0
   66.2260  -44.2550   14.5330 F   0  0  0  0  0  0  0  0  0  0  0  0
   65.0630  -42.6470   15.8250 C   0  0  0  0  0  0  0  0  0  0  0  0
   66.2070  -41.6880   15.7010 C   0  0  0  0  0  1  0  0  0  0  0  0
   63.8910  -42.2910   16.5120 C   0  0  0  0  0  3  0  0  0  0  0  0
   55.4130  -42.6690   16.1700 N   0  0  0  0  0  0  0  0  0  0  0  0
   55.7460  -41.7040   17.2140 C   0  0  0  0  0  2  0  0  0  0  0  0
   57.2550  -41.5350   17.3660 C   0  0  0  0  0  2  0  0  0  0  0  0
   57.9820  -42.8920   17.4980 C   0  0  1  0  0  3  0  0  0  0  0  0
   57.5840  -43.8090   16.3430 C   0  0  0  0  0  2  0  0  0  0  0  0
   56.0640  -43.9640   16.2460 C   0  0  0  0  0  2  0  0  0  0  0  0
   54.0700  -41.5120   14.5210 C   0  0  0  0  0  0  0  0  0  0  0  0
   54.0140  -41.0360   13.2170 C   0  0  0  0  0  0  0  0  0  0  0  0
   52.9150  -40.3600   12.7220 N   0  0  0  0  0  0  0  0  0  0  0  0
   55.0380  -41.1310   12.3630 N   0  0  0  0  0  0  0  0  0  0  0  0
   56.1320  -41.7410   12.8200 C   0  0  0  0  0  3  0  0  0  0  0  0
   56.2920  -42.2740   14.0360 N   0  0  0  0  0  0  0  0  0  0  0  0
   55.2600  -42.1430   14.8870 C   0  0  0  0  0  0  0  0  0  0  0  0
   53.0490  -40.0500   11.7660 H   0  0  0  0  0  0  0  0  0  0  0  0
   51.9940  -40.6910   12.9630 H   0  0  0  0  0  0  0  0  0  0  0  0
   52.8970  -39.9740   16.1340 C   0  0  0  0  0  1  0  0  0  0  0  0
   52.9200  -41.3490   15.4810 C   0  0  0  0  0  2  0  0  0  0  0  0
   59.6820  -41.2420   19.8670 C   0  0  0  0  0  2  0  0  0  0  0  0
   60.0320  -39.7680   19.6850 C   0  0  0  0  0  3  0  0  0  0  0  0
   61.4140  -39.2590   20.1540 C   0  0  0  0  0  2  0  0  0  0  0  0
   61.4320  -38.3600   18.9840 N   0  0  0  0  0  4  0  0  0  0  0  0
   62.7440  -38.4060   18.2860 C   0  0  0  0  0  1  0  0  0  0  0  0
   60.4340  -39.2060   18.3020 C   0  0  0  0  0  2  0  0  0  0  0  0
   61.1090  -37.4040   19.1830 H   0  0  0  0  0  0  0  0  0  0  0  0
  1  2  1  6  0  0  0
  1  5  1  0  0  0  0
  2  3  1  0  0  0  0
  3  6  1  6  0  0  0
  3  4  1  0  0  0  0
  4  5  1  0  0  0  0
  5 31  1  0  0  0  0
  7  6  2  0  0  0  0
  8  7  1  0  0  0  0
  9  8  2  0  0  0  0
  9 11  1  0  0  0  0
 10  9  1  0  0  0  0
 11 13  2  0  0  0  0
 12 11  1  0  0  0  0
 13  6  1  0  0  0  0
 14 19  1  0  0  0  0
 14 15  1  0  0  0  0
 15 16  1  0  0  0  0
 16 17  1  0  0  0  0
 17 18  1  6  0  0  0
 17  1  1  0  0  0  0
 19 18  1  0  0  0  0
 20 26  1  0  0  0  0
 20 30  1  0  0  0  0
 21 20  2  0  0  0  0
 22 28  1  0  0  0  0
 22 21  1  0  0  0  0
 23 24  2  0  0  0  0
 23 21  1  0  0  0  0
 24 25  1  0  0  0  0
 25 26  2  0  0  0  0
 26 14  1  0  0  0  0
 27 22  1  0  0  0  0
 30 29  1  0  0  0  0
 32 31  1  0  0  0  0
 32 33  1  0  0  0  0
 34 37  1  0  0  0  0
 34 33  1  0  0  0  0
 35 34  1  0  0  0  0
 36 34  1  0  0  0  0
 36 32  1  0  0  0  0
M  END
>  <minimizedAffinity>
-4.11309814

$$$$
