
 OpenBabel11232419393D

 37 41  0  0  1  0  0  0  0  0999 V2000
   59.9440  -42.4470   16.8330 C   0  0  1  0  0  3  0  0  0  0  0  0
   60.7140  -42.3200   15.7650 N   0  0  0  0  0  2  0  0  0  0  0  0
   62.0130  -42.2590   16.1980 C   0  0  2  0  0  3  0  0  0  0  0  0
   62.0270  -42.1940   17.5690 C   0  0  0  0  0  2  0  0  0  0  0  0
   60.7040  -42.1720   17.9530 N   0  0  0  0  0  0  0  0  0  0  0  0
   63.1600  -42.2220   15.3060 C   0  0  0  0  0  0  0  0  0  0  0  0
   63.1950  -41.2740   14.2730 C   0  0  0  0  0  3  0  0  0  0  0  0
   64.2890  -41.2010   13.4100 C   0  0  0  0  0  3  0  0  0  0  0  0
   65.3500  -42.0860   13.5680 C   0  0  0  0  0  0  0  0  0  0  0  0
   66.3990  -41.9950   12.7400 F   0  0  0  0  0  0  0  0  0  0  0  0
   65.3350  -43.0590   14.5680 C   0  0  0  0  0  0  0  0  0  0  0  0
   66.4930  -43.9980   14.7240 C   0  0  0  0  0  1  0  0  0  0  0  0
   64.2380  -43.1140   15.4430 C   0  0  0  0  0  3  0  0  0  0  0  0
   55.8890  -43.7780   17.5830 N   0  0  0  0  0  0  0  0  0  0  0  0
   56.8460  -44.7450   17.0540 C   0  0  0  0  0  2  0  0  0  0  0  0
   58.2850  -44.2620   17.2180 C   0  0  0  0  0  2  0  0  0  0  0  0
   58.4780  -42.8220   16.6940 C   0  0  1  0  0  3  0  0  0  0  0  0
   57.4470  -41.8930   17.3320 C   0  0  0  0  0  2  0  0  0  0  0  0
   56.0210  -42.4080   17.1220 C   0  0  0  0  0  2  0  0  0  0  0  0
   54.2290  -43.7930   19.3460 C   0  0  0  0  0  0  0  0  0  0  0  0
   54.0040  -43.9530   20.7080 C   0  0  0  0  0  0  0  0  0  0  0  0
   52.7410  -43.8760   21.2640 N   0  0  0  0  0  0  0  0  0  0  0  0
   54.9740  -44.2590   21.5760 N   0  0  0  0  0  0  0  0  0  0  0  0
   56.2010  -44.3830   21.0680 C   0  0  0  0  0  3  0  0  0  0  0  0
   56.5490  -44.2150   19.7880 N   0  0  0  0  0  0  0  0  0  0  0  0
   55.5540  -43.9340   18.9300 C   0  0  0  0  0  0  0  0  0  0  0  0
   52.7460  -44.0510   22.2630 H   0  0  0  0  0  0  0  0  0  0  0  0
   52.1090  -43.1640   20.9350 H   0  0  0  0  0  0  0  0  0  0  0  0
   52.6530  -42.0460   18.4480 C   0  0  0  0  0  1  0  0  0  0  0  0
   53.1110  -43.4960   18.3820 C   0  0  0  0  0  2  0  0  0  0  0  0
   60.3090  -41.7390   19.2820 C   0  0  0  0  0  2  0  0  0  0  0  0
   60.1300  -40.2290   19.4160 C   0  0  0  0  0  3  0  0  0  0  0  0
   61.1350  -39.4250   20.2730 C   0  0  0  0  0  2  0  0  0  0  0  0
   61.0270  -38.3280   19.2920 N   0  0  0  0  0  4  0  0  0  0  0  0
   62.3660  -37.7930   18.9280 C   0  0  0  0  0  1  0  0  0  0  0  0
   60.5320  -39.2700   18.2710 C   0  0  0  0  0  2  0  0  0  0  0  0
   60.3530  -37.5960   19.5530 H   0  0  0  0  0  0  0  0  0  0  0  0
  1  2  1  6  0  0  0
  1  5  1  0  0  0  0
  2  3  1  0  0  0  0
  3  6  1  6  0  0  0
  3  4  1  0  0  0  0
  4  5  1  0  0  0  0
  5 31  1  0  0  0  0
  6 13  1  0  0  0  0
  7  6  2  0  0  0  0
  8  9  2  0  0  0  0
  8  7  1  0  0  0  0
  9 11  1  0  0  0  0
 10  9  1  0  0  0  0
 11 12  1  0  0  0  0
 11 13  2  0  0  0  0
 14 26  1  0  0  0  0
 15 16  1  0  0  0  0
 15 14  1  0  0  0  0
 17  1  1  0  0  0  0
 17 16  1  1  0  0  0
 17 18  1  0  0  0  0
 19 18  1  0  0  0  0
 19 14  1  0  0  0  0
 20 21  1  0  0  0  0
 21 22  1  0  0  0  0
 21 23  2  0  0  0  0
 22 27  1  0  0  0  0
 24 23  1  0  0  0  0
 25 24  2  0  0  0  0
 26 20  2  0  0  0  0
 26 25  1  0  0  0  0
 28 22  1  0  0  0  0
 30 29  1  0  0  0  0
 30 20  1  0  0  0  0
 31 32  1  0  0  0  0
 32 33  1  0  0  0  0
 34 37  1  0  0  0  0
 34 33  1  0  0  0  0
 35 34  1  0  0  0  0
 36 34  1  0  0  0  0
 36 32  1  0  0  0  0
M  END
>  <minimizedAffinity>
-4.19664383

$$$$
