
 OpenBabel11232419393D

 37 41  0  0  1  0  0  0  0  0999 V2000
   57.1390  -42.2410   18.1930 C   0  0  1  0  0  3  0  0  0  0  0  0
   56.8210  -41.0830   17.6380 N   0  0  0  0  0  2  0  0  0  0  0  0
   55.4680  -40.9150   17.7800 C   0  0  2  0  0  3  0  0  0  0  0  0
   54.9240  -42.0640   18.2980 C   0  0  0  0  0  2  0  0  0  0  0  0
   55.9740  -42.9480   18.4230 N   0  0  0  0  0  0  0  0  0  0  0  0
   54.7590  -39.7100   17.3850 C   0  0  0  0  0  0  0  0  0  0  0  0
   54.0330  -39.7030   16.1850 C   0  0  0  0  0  3  0  0  0  0  0  0
   53.3280  -38.5660   15.7860 C   0  0  0  0  0  3  0  0  0  0  0  0
   53.3550  -37.4260   16.5800 C   0  0  0  0  0  0  0  0  0  0  0  0
   52.6630  -36.3480   16.1900 F   0  0  0  0  0  0  0  0  0  0  0  0
   54.0900  -37.3890   17.7660 C   0  0  0  0  0  0  0  0  0  0  0  0
   54.0990  -36.1500   18.6090 C   0  0  0  0  0  1  0  0  0  0  0  0
   54.7820  -38.5430   18.1690 C   0  0  0  0  0  3  0  0  0  0  0  0
   61.4300  -42.7620   17.8880 N   0  0  0  0  0  0  0  0  0  0  0  0
   60.5690  -43.8590   17.4570 C   0  0  0  0  0  2  0  0  0  0  0  0
   59.1290  -43.3980   17.2470 C   0  0  0  0  0  2  0  0  0  0  0  0
   58.5900  -42.6030   18.4570 C   0  0  1  0  0  3  0  0  0  0  0  0
   59.5510  -41.4660   18.8020 C   0  0  0  0  0  2  0  0  0  0  0  0
   60.9750  -41.9820   19.0250 C   0  0  0  0  0  2  0  0  0  0  0  0
   63.4350  -41.9310   16.8160 C   0  0  0  0  0  0  0  0  0  0  0  0
   63.9470  -41.1780   15.7660 C   0  0  0  0  0  0  0  0  0  0  0  0
   65.3040  -41.0100   15.5670 N   0  0  0  0  0  0  0  0  0  0  0  0
   63.1760  -40.6140   14.8310 N   0  0  0  0  0  0  0  0  0  0  0  0
   61.8600  -40.7910   14.9670 C   0  0  0  0  0  3  0  0  0  0  0  0
   61.2490  -41.4580   15.9510 N   0  0  0  0  0  0  0  0  0  0  0  0
   62.0450  -42.0380   16.8650 C   0  0  0  0  0  0  0  0  0  0  0  0
   65.5100  -40.4640   14.7380 H   0  0  0  0  0  0  0  0  0  0  0  0
   65.8950  -40.8540   16.3680 H   0  0  0  0  0  0  0  0  0  0  0  0
   64.6310  -41.6990   19.0210 C   0  0  0  0  0  1  0  0  0  0  0  0
   64.3280  -42.5980   17.8290 C   0  0  0  0  0  2  0  0  0  0  0  0
   55.7480  -44.3730   18.5840 C   0  0  0  0  0  2  0  0  0  0  0  0
   55.3180  -44.7800   19.9910 C   0  0  0  0  0  3  0  0  0  0  0  0
   55.7150  -43.8840   21.1870 C   0  0  0  0  0  2  0  0  0  0  0  0
   54.4060  -44.1920   21.7950 N   0  0  0  0  0  4  0  0  0  0  0  0
   53.7510  -42.9640   22.3170 C   0  0  0  0  0  1  0  0  0  0  0  0
   53.8650  -44.5670   20.4750 C   0  0  0  0  0  2  0  0  0  0  0  0
   54.4300  -44.9620   22.4760 H   0  0  0  0  0  0  0  0  0  0  0  0
  1  2  1  6  0  0  0
  1  5  1  0  0  0  0
  1 17  1  0  0  0  0
  2  3  1  0  0  0  0
  3  6  1  6  0  0  0
  3  4  1  0  0  0  0
  4  5  1  0  0  0  0
  5 31  1  0  0  0  0
  6 13  1  0  0  0  0
  7  6  2  0  0  0  0
  8  7  1  0  0  0  0
  8  9  2  0  0  0  0
  9 11  1  0  0  0  0
 10  9  1  0  0  0  0
 11 13  2  0  0  0  0
 11 12  1  0  0  0  0
 14 19  1  0  0  0  0
 15 14  1  0  0  0  0
 16 15  1  0  0  0  0
 17 16  1  6  0  0  0
 17 18  1  0  0  0  0
 18 19  1  0  0  0  0
 20 26  1  0  0  0  0
 20 30  1  0  0  0  0
 21 20  2  0  0  0  0
 22 21  1  0  0  0  0
 22 28  1  0  0  0  0
 23 24  2  0  0  0  0
 23 21  1  0  0  0  0
 24 25  1  0  0  0  0
 25 26  2  0  0  0  0
 26 14  1  0  0  0  0
 27 22  1  0  0  0  0
 30 29  1  0  0  0  0
 31 32  1  0  0  0  0
 32 36  1  0  0  0  0
 32 33  1  0  0  0  0
 33 34  1  0  0  0  0
 34 35  1  0  0  0  0
 34 37  1  0  0  0  0
 36 34  1  0  0  0  0
M  END
>  <minimizedAffinity>
-4.76686621

$$$$
