
 OpenBabel11232420393D

 37 41  0  0  1  0  0  0  0  0999 V2000
  -19.3100   21.9760   10.7650 C   0  0  0  0  0  0  0  0  0  0  0  0
  -18.6200   21.5280    9.6630 C   0  0  0  0  0  3  0  0  0  0  0  0
  -17.7410   22.5330    9.3530 N   0  0  0  0  0  0  0  0  0  0  0  0
  -17.8590   23.5100   10.3180 C   0  0  0  0  0  0  0  0  0  0  0  0
  -18.8830   23.2360   11.0970 N   0  0  0  0  0  0  0  0  0  0  0  0
  -21.1610   19.3210   12.6540 C   0  0  0  0  0  0  0  0  0  0  0  0
  -20.1690   19.9340   11.8900 C   0  0  0  0  0  3  0  0  0  0  0  0
  -20.3340   21.2690   11.5060 C   0  0  0  0  0  0  0  0  0  0  0  0
  -21.4840   21.9460   11.9060 C   0  0  0  0  0  3  0  0  0  0  0  0
  -22.4240   21.2610   12.6520 C   0  0  0  0  0  3  0  0  0  0  0  0
  -22.2870   19.9730   13.0280 N   0  0  0  0  0  0  0  0  0  0  0  0
  -22.3170   17.2630   13.4680 C   0  0  0  0  0  1  0  0  0  0  0  0
  -20.9620   17.9090   13.1710 C   0  0  0  0  0  3  0  0  0  0  0  0
  -20.1580   17.0540   12.1890 C   0  0  0  0  0  1  0  0  0  0  0  0
  -16.9450   24.6940   10.5020 C   0  0  2  0  0  3  0  0  0  0  0  0
  -17.1800   25.3610   11.8660 C   0  0  0  0  0  2  0  0  0  0  0  0
  -18.4150   26.2620   11.8800 C   0  0  0  0  0  2  0  0  0  0  0  0
  -18.3970   27.1890   10.7530 N   0  0  0  0  0  0  0  0  0  0  0  0
  -18.3130   26.5840    9.4280 C   0  0  0  0  0  2  0  0  0  0  0  0
  -17.0660   25.6970    9.3410 C   0  0  0  0  0  2  0  0  0  0  0  0
  -17.8140   28.4390   10.9340 C   0  0  0  0  0  0  0  0  0  0  0  0
  -16.5410   28.4590   11.3830 N   0  0  0  0  0  0  0  0  0  0  0  0
  -15.9680   29.6590   11.5380 C   0  0  0  0  0  3  0  0  0  0  0  0
  -16.5310   30.8440   11.2840 N   0  0  0  0  0  0  0  0  0  0  0  0
  -17.8060   30.8160   10.8720 C   0  0  0  0  0  0  0  0  0  0  0  0
  -18.3540   32.0580   10.5990 N   0  0  0  0  0  0  0  0  0  0  0  0
  -18.4990   29.6270   10.6700 C   0  0  0  0  0  0  0  0  0  0  0  0
  -20.3360   29.6650   10.1680 Br  0  0  0  0  0  0  0  0  0  0  0  0
  -17.7350   32.8300   10.8100 H   0  0  0  0  0  0  0  0  0  0  0  0
  -19.3390   32.1850   10.7910 H   0  0  0  0  0  0  0  0  0  0  0  0
  -16.8960   22.5360    8.1740 C   0  0  0  0  0  2  0  0  0  0  0  0
  -17.1110   21.2850    7.3090 C   0  0  0  0  0  2  0  0  0  0  0  0
  -15.9550   20.3360    7.3790 N   0  0  0  0  0  4  0  0  0  0  0  0
  -16.3690   18.9190    7.4560 C   0  0  0  0  0  2  0  0  0  0  0  0
  -15.2800   18.6030    6.4220 C   0  0  0  0  0  2  0  0  0  0  0  0
  -15.3920   20.0820    6.0290 C   0  0  0  0  0  2  0  0  0  0  0  0
  -15.2190   20.6090    8.0520 H   0  0  0  0  0  0  0  0  0  0  0  0
  1  5  1  0  0  0  0
  1  8  1  0  0  0  0
  2  1  2  0  0  0  0
  3  2  1  0  0  0  0
  3  4  1  0  0  0  0
  4  5  2  0  0  0  0
  6 11  1  0  0  0  0
  6 13  1  0  0  0  0
  7  6  2  0  0  0  0
  8  7  1  0  0  0  0
  8  9  2  0  0  0  0
  9 10  1  0  0  0  0
 10 11  2  0  0  0  0
 13 12  1  0  0  0  0
 14 13  1  0  0  0  0
 15  4  1  6  0  0  0
 15 16  1  0  0  0  0
 16 17  1  0  0  0  0
 18 21  1  0  0  0  0
 18 17  1  0  0  0  0
 19 18  1  0  0  0  0
 20 19  1  0  0  0  0
 20 15  1  0  0  0  0
 21 22  1  0  0  0  0
 22 23  2  0  0  0  0
 24 23  1  0  0  0  0
 25 24  2  0  0  0  0
 26 30  1  0  0  0  0
 26 29  1  0  0  0  0
 26 25  1  0  0  0  0
 27 25  1  0  0  0  0
 27 21  2  0  0  0  0
 28 27  1  0  0  0  0
 31  3  1  0  0  0  0
 32 33  1  0  0  0  0
 32 31  1  0  0  0  0
 33 34  1  0  0  0  0
 33 37  1  0  0  0  0
 35 34  1  0  0  0  0
 36 35  1  0  0  0  0
 36 33  1  0  0  0  0
M  END
>  <minimizedAffinity>
-8.88680363

$$$$
