
 OpenBabel11232420393D

 37 41  0  0  1  0  0  0  0  0999 V2000
  -21.5930   18.4420   13.5520 C   0  0  0  0  0  0  0  0  0  0  0  0
  -22.2140   19.0290   14.6300 C   0  0  0  0  0  3  0  0  0  0  0  0
  -22.7750   17.9930   15.3320 N   0  0  0  0  0  0  0  0  0  0  0  0
  -22.4050   16.8170   14.7160 C   0  0  0  0  0  0  0  0  0  0  0  0
  -21.7990   17.0870   13.5800 N   0  0  0  0  0  0  0  0  0  0  0  0
  -19.5650   19.0790   10.4660 C   0  0  0  0  0  0  0  0  0  0  0  0
  -20.2460   18.3850   11.4650 C   0  0  0  0  0  3  0  0  0  0  0  0
  -20.8210   19.1020   12.5190 C   0  0  0  0  0  0  0  0  0  0  0  0
  -20.6990   20.4900   12.5340 C   0  0  0  0  0  3  0  0  0  0  0  0
  -19.9970   21.0990   11.5110 C   0  0  0  0  0  3  0  0  0  0  0  0
  -19.4310   20.4260   10.4880 N   0  0  0  0  0  0  0  0  0  0  0  0
  -17.8470   19.1110    8.6550 C   0  0  0  0  0  1  0  0  0  0  0  0
  -19.0220   18.3380    9.2590 C   0  0  0  0  0  3  0  0  0  0  0  0
  -18.6060   16.9090    9.6100 C   0  0  0  0  0  1  0  0  0  0  0  0
  -22.6130   15.4260   15.2590 C   0  0  2  0  0  3  0  0  0  0  0  0
  -22.1050   15.3220   16.7050 C   0  0  0  0  0  2  0  0  0  0  0  0
  -20.5850   15.1720   16.7910 C   0  0  0  0  0  2  0  0  0  0  0  0
  -20.1160   14.1060   15.9100 N   0  0  0  0  0  0  0  0  0  0  0  0
  -20.4640   14.2410   14.5000 C   0  0  0  0  0  2  0  0  0  0  0  0
  -21.9850   14.3560   14.3490 C   0  0  0  0  0  2  0  0  0  0  0  0
  -20.0040   12.8210   16.4310 C   0  0  0  0  0  0  0  0  0  0  0  0
  -21.1280   12.2640   16.9300 N   0  0  0  0  0  0  0  0  0  0  0  0
  -21.0290   11.0180   17.4130 C   0  0  0  0  0  3  0  0  0  0  0  0
  -19.9260   10.2660   17.4410 N   0  0  0  0  0  0  0  0  0  0  0  0
  -18.8070   10.8390   16.9750 C   0  0  0  0  0  0  0  0  0  0  0  0
  -17.6860   10.0270   17.0000 N   0  0  0  0  0  0  0  0  0  0  0  0
  -18.7930   12.1250   16.4450 C   0  0  0  0  0  0  0  0  0  0  0  0
  -17.1500   12.9080   15.8810 Br  0  0  0  0  0  0  0  0  0  0  0  0
  -17.8480    9.1250   17.4300 H   0  0  0  0  0  0  0  0  0  0  0  0
  -16.7930   10.4710   17.1710 H   0  0  0  0  0  0  0  0  0  0  0  0
  -23.6390   18.1690   16.4830 C   0  0  0  0  0  2  0  0  0  0  0  0
  -23.1850   19.3360   17.3720 C   0  0  0  0  0  2  0  0  0  0  0  0
  -22.8060   18.8910   18.7510 N   0  0  0  0  0  4  0  0  0  0  0  0
  -22.9020   17.4290   18.9380 C   0  0  0  0  0  2  0  0  0  0  0  0
  -21.5520   17.4890   19.6640 C   0  0  0  0  0  2  0  0  0  0  0  0
  -21.3320   18.7970   18.8940 C   0  0  0  0  0  2  0  0  0  0  0  0
  -23.2260   19.4540   19.5110 H   0  0  0  0  0  0  0  0  0  0  0  0
  1  5  1  0  0  0  0
  1  2  2  0  0  0  0
  2  3  1  0  0  0  0
  3 31  1  0  0  0  0
  4  3  1  0  0  0  0
  5  4  2  0  0  0  0
  6 11  2  0  0  0  0
  6  7  1  0  0  0  0
  7  8  2  0  0  0  0
  8  9  1  0  0  0  0
  8  1  1  0  0  0  0
 10  9  2  0  0  0  0
 11 10  1  0  0  0  0
 12 13  1  0  0  0  0
 13 14  1  0  0  0  0
 13  6  1  0  0  0  0
 15  4  1  6  0  0  0
 15 16  1  0  0  0  0
 16 17  1  0  0  0  0
 18 21  1  0  0  0  0
 18 17  1  0  0  0  0
 19 18  1  0  0  0  0
 20 19  1  0  0  0  0
 20 15  1  0  0  0  0
 21 27  2  0  0  0  0
 21 22  1  0  0  0  0
 22 23  2  0  0  0  0
 23 24  1  0  0  0  0
 25 26  1  0  0  0  0
 25 24  2  0  0  0  0
 26 30  1  0  0  0  0
 26 29  1  0  0  0  0
 27 25  1  0  0  0  0
 28 27  1  0  0  0  0
 31 32  1  0  0  0  0
 32 33  1  0  0  0  0
 33 36  1  0  0  0  0
 33 34  1  0  0  0  0
 33 37  1  0  0  0  0
 34 35  1  0  0  0  0
 36 35  1  0  0  0  0
M  END
>  <minimizedAffinity>
-8.79265022

$$$$
