
 OpenBabel11232420393D

 37 41  0  0  1  0  0  0  0  0999 V2000
  -17.6000   28.0550   11.8390 C   0  0  0  0  0  0  0  0  0  0  0  0
  -16.4760   28.6100   11.2730 C   0  0  0  0  0  3  0  0  0  0  0  0
  -16.2370   29.7540   11.9900 N   0  0  0  0  0  0  0  0  0  0  0  0
  -17.1590   29.8110   13.0130 C   0  0  0  0  0  0  0  0  0  0  0  0
  -18.0520   28.8590   12.8530 N   0  0  0  0  0  0  0  0  0  0  0  0
  -18.1950   24.5700   10.5960 C   0  0  0  0  0  0  0  0  0  0  0  0
  -17.5350   25.7660   10.8770 C   0  0  0  0  0  3  0  0  0  0  0  0
  -18.2470   26.8130   11.4680 C   0  0  0  0  0  0  0  0  0  0  0  0
  -19.5960   26.6270   11.7630 C   0  0  0  0  0  3  0  0  0  0  0  0
  -20.1780   25.4160   11.4410 C   0  0  0  0  0  3  0  0  0  0  0  0
  -19.5100   24.3940   10.8670 N   0  0  0  0  0  0  0  0  0  0  0  0
  -17.1090   22.4000   11.1810 C   0  0  0  0  0  1  0  0  0  0  0  0
  -17.4240   23.3830   10.0510 C   0  0  0  0  0  3  0  0  0  0  0  0
  -18.1820   22.6840    8.9220 C   0  0  0  0  0  1  0  0  0  0  0  0
  -17.1420   30.7770   14.1700 C   0  0  2  0  0  3  0  0  0  0  0  0
  -17.9430   30.2200   15.3580 C   0  0  0  0  0  2  0  0  0  0  0  0
  -19.4530   30.3890   15.1860 C   0  0  0  0  0  2  0  0  0  0  0  0
  -19.7870   31.7640   14.8280 N   0  0  0  0  0  0  0  0  0  0  0  0
  -19.1490   32.2840   13.6240 C   0  0  0  0  0  2  0  0  0  0  0  0
  -17.6260   32.1770   13.7550 C   0  0  0  0  0  2  0  0  0  0  0  0
  -20.0730   32.6620   15.8510 C   0  0  0  0  0  0  0  0  0  0  0  0
  -19.1190   33.5680   16.1520 N   0  0  0  0  0  0  0  0  0  0  0  0
  -19.3980   34.4490   17.1220 C   0  0  0  0  0  3  0  0  0  0  0  0
  -20.5360   34.5260   17.8170 N   0  0  0  0  0  0  0  0  0  0  0  0
  -21.4640   33.6010   17.5350 C   0  0  0  0  0  0  0  0  0  0  0  0
  -22.6390   33.7190   18.2590 N   0  0  0  0  0  0  0  0  0  0  0  0
  -21.2850   32.6410   16.5440 C   0  0  0  0  0  0  0  0  0  0  0  0
  -22.6120   31.3040   16.2570 Br  0  0  0  0  0  0  0  0  0  0  0  0
  -22.6150   34.4550   18.9550 H   0  0  0  0  0  0  0  0  0  0  0  0
  -23.1260   32.8660   18.5000 H   0  0  0  0  0  0  0  0  0  0  0  0
  -15.2130   30.7230   11.6510 C   0  0  0  0  0  2  0  0  0  0  0  0
  -15.4860   31.4040   10.3010 C   0  0  0  0  0  2  0  0  0  0  0  0
  -16.4050   32.5790   10.4290 N   0  0  0  0  0  4  0  0  0  0  0  0
  -16.3330   33.5020    9.2770 C   0  0  0  0  0  2  0  0  0  0  0  0
  -17.8660   33.5650    9.3030 C   0  0  0  0  0  2  0  0  0  0  0  0
  -17.7890   32.2180   10.0320 C   0  0  0  0  0  2  0  0  0  0  0  0
  -16.3820   33.0390   11.3540 H   0  0  0  0  0  0  0  0  0  0  0  0
  1  5  1  0  0  0  0
  2  1  2  0  0  0  0
  2  3  1  0  0  0  0
  3  4  1  0  0  0  0
  5  4  2  0  0  0  0
  6 11  2  0  0  0  0
  6  7  1  0  0  0  0
  7  8  2  0  0  0  0
  8  9  1  0  0  0  0
  8  1  1  0  0  0  0
 10  9  2  0  0  0  0
 11 10  1  0  0  0  0
 13  6  1  0  0  0  0
 13 12  1  0  0  0  0
 14 13  1  0  0  0  0
 15  4  1  6  0  0  0
 15 16  1  0  0  0  0
 17 16  1  0  0  0  0
 18 17  1  0  0  0  0
 18 21  1  0  0  0  0
 19 20  1  0  0  0  0
 19 18  1  0  0  0  0
 20 15  1  0  0  0  0
 21 22  2  0  0  0  0
 21 27  1  0  0  0  0
 22 23  1  0  0  0  0
 23 24  2  0  0  0  0
 25 24  1  0  0  0  0
 25 26  1  0  0  0  0
 26 30  1  0  0  0  0
 26 29  1  0  0  0  0
 27 25  2  0  0  0  0
 28 27  1  0  0  0  0
 31  3  1  0  0  0  0
 32 33  1  0  0  0  0
 32 31  1  0  0  0  0
 33 37  1  0  0  0  0
 34 35  1  0  0  0  0
 34 33  1  0  0  0  0
 35 36  1  0  0  0  0
 36 33  1  0  0  0  0
M  END
>  <minimizedAffinity>
-9.00540352

$$$$
