
 OpenBabel11232420393D

 37 41  0  0  1  0  0  0  0  0999 V2000
  -20.2130   17.7150   12.4130 C   0  0  0  0  0  0  0  0  0  0  0  0
  -21.4000   18.2120   12.9000 C   0  0  0  0  0  3  0  0  0  0  0  0
  -21.4900   17.7400   14.1840 N   0  0  0  0  0  0  0  0  0  0  0  0
  -20.3270   17.0550   14.4650 C   0  0  0  0  0  0  0  0  0  0  0  0
  -19.6130   16.9350   13.3660 N   0  0  0  0  0  0  0  0  0  0  0  0
  -18.7590   19.4120    9.4050 C   0  0  0  0  0  0  0  0  0  0  0  0
  -19.3740   19.2450   10.6450 C   0  0  0  0  0  3  0  0  0  0  0  0
  -19.6340   17.9520   11.1070 C   0  0  0  0  0  0  0  0  0  0  0  0
  -19.2640   16.8670   10.3130 C   0  0  0  0  0  3  0  0  0  0  0  0
  -18.6700   17.1200    9.0910 C   0  0  0  0  0  3  0  0  0  0  0  0
  -18.4150   18.3600    8.6250 N   0  0  0  0  0  0  0  0  0  0  0  0
  -16.9130   20.8060    8.4670 C   0  0  0  0  0  1  0  0  0  0  0  0
  -18.3730   20.7990    8.9260 C   0  0  0  0  0  3  0  0  0  0  0  0
  -19.2940   21.2900    7.8080 C   0  0  0  0  0  1  0  0  0  0  0  0
  -19.8970   16.5520   15.8180 C   0  0  2  0  0  3  0  0  0  0  0  0
  -18.7810   15.5040   15.6830 C   0  0  0  0  0  2  0  0  0  0  0  0
  -19.3080   14.1230   15.2920 C   0  0  0  0  0  2  0  0  0  0  0  0
  -20.4090   13.7200   16.1620 N   0  0  0  0  0  0  0  0  0  0  0  0
  -21.5510   14.6260   16.2110 C   0  0  0  0  0  2  0  0  0  0  0  0
  -21.0870   16.0230   16.6380 C   0  0  0  0  0  2  0  0  0  0  0  0
  -20.1130   12.9880   17.3070 C   0  0  0  0  0  0  0  0  0  0  0  0
  -18.9680   13.2980   17.9510 N   0  0  0  0  0  0  0  0  0  0  0  0
  -18.6890   12.6100   19.0660 C   0  0  0  0  0  3  0  0  0  0  0  0
  -19.4390   11.6490   19.6110 N   0  0  0  0  0  0  0  0  0  0  0  0
  -20.5570   11.3230   18.9470 C   0  0  0  0  0  0  0  0  0  0  0  0
  -21.3220   10.3370   19.5470 N   0  0  0  0  0  0  0  0  0  0  0  0
  -20.9490   11.9740   17.7810 C   0  0  0  0  0  0  0  0  0  0  0  0
  -22.5040   11.4000   16.8430 Br  0  0  0  0  0  0  0  0  0  0  0  0
  -20.8990    9.9460   20.3800 H   0  0  0  0  0  0  0  0  0  0  0  0
  -21.8270    9.7050   18.9400 H   0  0  0  0  0  0  0  0  0  0  0  0
  -22.6520   17.9180   15.0330 C   0  0  0  0  0  2  0  0  0  0  0  0
  -22.7830   19.3640   15.5350 C   0  0  0  0  0  2  0  0  0  0  0  0
  -23.4880   19.4500   16.8540 N   0  0  0  0  0  4  0  0  0  0  0  0
  -24.1080   18.1740   17.2660 C   0  0  0  0  0  2  0  0  0  0  0  0
  -23.5510   18.4220   18.6740 C   0  0  0  0  0  2  0  0  0  0  0  0
  -22.5270   19.3280   17.9790 C   0  0  0  0  0  2  0  0  0  0  0  0
  -24.0940   20.2810   16.9590 H   0  0  0  0  0  0  0  0  0  0  0  0
  1  2  2  0  0  0  0
  1  5  1  0  0  0  0
  2  3  1  0  0  0  0
  3  4  1  0  0  0  0
  3 31  1  0  0  0  0
  5  4  2  0  0  0  0
  6  7  1  0  0  0  0
  7  8  2  0  0  0  0
  8  1  1  0  0  0  0
  9  8  1  0  0  0  0
 10  9  2  0  0  0  0
 11 10  1  0  0  0  0
 11  6  2  0  0  0  0
 12 13  1  0  0  0  0
 13  6  1  0  0  0  0
 14 13  1  0  0  0  0
 15  4  1  6  0  0  0
 15 20  1  0  0  0  0
 16 15  1  0  0  0  0
 17 16  1  0  0  0  0
 17 18  1  0  0  0  0
 18 19  1  0  0  0  0
 18 21  1  0  0  0  0
 19 20  1  0  0  0  0
 21 27  2  0  0  0  0
 21 22  1  0  0  0  0
 22 23  2  0  0  0  0
 23 24  1  0  0  0  0
 25 26  1  0  0  0  0
 25 24  2  0  0  0  0
 26 29  1  0  0  0  0
 27 25  1  0  0  0  0
 28 27  1  0  0  0  0
 30 26  1  0  0  0  0
 31 32  1  0  0  0  0
 32 33  1  0  0  0  0
 33 37  1  0  0  0  0
 33 34  1  0  0  0  0
 33 36  1  0  0  0  0
 34 35  1  0  0  0  0
 36 35  1  0  0  0  0
M  END
>  <minimizedAffinity>
-8.94622517

$$$$
