
 OpenBabel11232420393D

 37 41  0  0  1  0  0  0  0  0999 V2000
  -20.2270   21.2190   11.6040 C   0  0  0  0  0  0  0  0  0  0  0  0
  -18.8910   21.1100   11.2960 C   0  0  0  0  0  3  0  0  0  0  0  0
  -18.6090   22.2000   10.5120 N   0  0  0  0  0  0  0  0  0  0  0  0
  -19.7460   22.9750   10.4450 C   0  0  0  0  0  0  0  0  0  0  0  0
  -20.7520   22.3300   10.9970 N   0  0  0  0  0  0  0  0  0  0  0  0
  -21.3950   18.2080   13.5040 C   0  0  0  0  0  0  0  0  0  0  0  0
  -20.6390   19.0000   12.6400 C   0  0  0  0  0  3  0  0  0  0  0  0
  -21.0090   20.3330   12.4410 C   0  0  0  0  0  0  0  0  0  0  0  0
  -22.1210   20.8310   13.1170 C   0  0  0  0  0  3  0  0  0  0  0  0
  -22.8220   19.9760   13.9460 C   0  0  0  0  0  3  0  0  0  0  0  0
  -22.4850   18.6860   14.1490 N   0  0  0  0  0  0  0  0  0  0  0  0
  -21.9770   15.7920   13.2680 C   0  0  0  0  0  1  0  0  0  0  0  0
  -20.9570   16.7910   13.8190 C   0  0  0  0  0  3  0  0  0  0  0  0
  -19.5600   16.4940   13.2730 C   0  0  0  0  0  1  0  0  0  0  0  0
  -19.8400   24.3670    9.8730 C   0  0  2  0  0  3  0  0  0  0  0  0
  -18.4700   25.0610    9.8980 C   0  0  0  0  0  2  0  0  0  0  0  0
  -18.1080   25.6100   11.2790 C   0  0  0  0  0  2  0  0  0  0  0  0
  -19.1990   26.4120   11.8230 N   0  0  0  0  0  0  0  0  0  0  0  0
  -20.4880   25.7420   11.9430 C   0  0  0  0  0  2  0  0  0  0  0  0
  -20.9230   25.2030   10.5760 C   0  0  0  0  0  2  0  0  0  0  0  0
  -19.2000   27.7810   11.5760 C   0  0  0  0  0  0  0  0  0  0  0  0
  -20.3990   28.4000   11.5710 N   0  0  0  0  0  0  0  0  0  0  0  0
  -20.4040   29.7220   11.3540 C   0  0  0  0  0  3  0  0  0  0  0  0
  -19.3320   30.4930   11.1500 N   0  0  0  0  0  0  0  0  0  0  0  0
  -18.1490   29.8660   11.1220 C   0  0  0  0  0  0  0  0  0  0  0  0
  -17.0570   30.6950   10.9270 N   0  0  0  0  0  0  0  0  0  0  0  0
  -18.0240   28.4970   11.3390 C   0  0  0  0  0  0  0  0  0  0  0  0
  -16.3190   27.6580   11.1980 Br  0  0  0  0  0  0  0  0  0  0  0  0
  -17.3060   31.6630   10.7670 H   0  0  0  0  0  0  0  0  0  0  0  0
  -16.2760   30.3220   10.4030 H   0  0  0  0  0  0  0  0  0  0  0  0
  -17.3350   22.4170    9.8540 C   0  0  0  0  0  2  0  0  0  0  0  0
  -16.9650   21.2580    8.9170 C   0  0  0  0  0  2  0  0  0  0  0  0
  -17.1650   21.6030    7.4730 N   0  0  0  0  0  4  0  0  0  0  0  0
  -15.9050   21.6370    6.7030 C   0  0  0  0  0  2  0  0  0  0  0  0
  -16.6290   20.8680    5.5900 C   0  0  0  0  0  2  0  0  0  0  0  0
  -17.5900   20.4120    6.6960 C   0  0  0  0  0  2  0  0  0  0  0  0
  -17.7940   22.4070    7.3110 H   0  0  0  0  0  0  0  0  0  0  0  0
  1  8  1  0  0  0  0
  2  1  2  0  0  0  0
  3  2  1  0  0  0  0
  4  3  1  0  0  0  0
  4  5  2  0  0  0  0
  5  1  1  0  0  0  0
  6 13  1  0  0  0  0
  6 11  1  0  0  0  0
  7  6  2  0  0  0  0
  8  7  1  0  0  0  0
  8  9  2  0  0  0  0
  9 10  1  0  0  0  0
 10 11  2  0  0  0  0
 12 13  1  0  0  0  0
 14 13  1  0  0  0  0
 15 16  1  0  0  0  0
 15  4  1  1  0  0  0
 15 20  1  0  0  0  0
 16 17  1  0  0  0  0
 17 18  1  0  0  0  0
 18 19  1  0  0  0  0
 20 19  1  0  0  0  0
 21 18  1  0  0  0  0
 22 21  1  0  0  0  0
 23 22  2  0  0  0  0
 24 23  1  0  0  0  0
 25 24  2  0  0  0  0
 25 27  1  0  0  0  0
 26 25  1  0  0  0  0
 27 21  2  0  0  0  0
 28 27  1  0  0  0  0
 29 26  1  0  0  0  0
 30 26  1  0  0  0  0
 31  3  1  0  0  0  0
 32 31  1  0  0  0  0
 33 32  1  0  0  0  0
 34 33  1  0  0  0  0
 35 36  1  0  0  0  0
 35 34  1  0  0  0  0
 36 33  1  0  0  0  0
 37 33  1  0  0  0  0
M  END
>  <minimizedAffinity>
-9.05897045

$$$$
