
 OpenBabel11232420393D

 37 41  0  0  1  0  0  0  0  0999 V2000
  -18.8430   21.4230   10.8620 C   0  0  0  0  0  0  0  0  0  0  0  0
  -18.3920   20.7450    9.7540 C   0  0  0  0  0  3  0  0  0  0  0  0
  -18.9620   19.5000    9.8350 N   0  0  0  0  0  0  0  0  0  0  0  0
  -19.8030   19.4910   10.9270 C   0  0  0  0  0  0  0  0  0  0  0  0
  -19.6420   20.6020   11.6140 N   0  0  0  0  0  0  0  0  0  0  0  0
  -17.5800   24.9500   10.7830 C   0  0  0  0  0  0  0  0  0  0  0  0
  -17.7710   23.6190   10.4150 C   0  0  0  0  0  3  0  0  0  0  0  0
  -18.5590   22.7960   11.2260 C   0  0  0  0  0  0  0  0  0  0  0  0
  -19.1330   23.3350   12.3760 C   0  0  0  0  0  3  0  0  0  0  0  0
  -18.8830   24.6610   12.6740 C   0  0  0  0  0  3  0  0  0  0  0  0
  -18.1230   25.4710   11.9090 N   0  0  0  0  0  0  0  0  0  0  0  0
  -16.1820   27.0170   10.6900 C   0  0  0  0  0  1  0  0  0  0  0  0
  -16.8170   25.8920    9.8700 C   0  0  0  0  0  3  0  0  0  0  0  0
  -15.7560   25.1530    9.0520 C   0  0  0  0  0  1  0  0  0  0  0  0
  -20.7940   18.4110   11.2770 C   0  0  2  0  0  3  0  0  0  0  0  0
  -21.5070   18.7310   12.5990 C   0  0  0  0  0  2  0  0  0  0  0  0
  -20.6560   18.4040   13.8270 C   0  0  0  0  0  2  0  0  0  0  0  0
  -20.1220   17.0480   13.7440 N   0  0  0  0  0  0  0  0  0  0  0  0
  -19.3210   16.7460   12.5640 C   0  0  0  0  0  2  0  0  0  0  0  0
  -20.1390   17.0180   11.2970 C   0  0  0  0  0  2  0  0  0  0  0  0
  -20.8580   16.0120   14.3110 C   0  0  0  0  0  0  0  0  0  0  0  0
  -22.1950   16.0450   14.1330 N   0  0  0  0  0  0  0  0  0  0  0  0
  -22.9060   15.0390   14.6590 C   0  0  0  0  0  3  0  0  0  0  0  0
  -22.4190   13.9960   15.3360 N   0  0  0  0  0  0  0  0  0  0  0  0
  -21.0940   13.9880   15.5380 C   0  0  0  0  0  0  0  0  0  0  0  0
  -20.6180   12.8850   16.2270 N   0  0  0  0  0  0  0  0  0  0  0  0
  -20.2570   14.9790   15.0340 C   0  0  0  0  0  0  0  0  0  0  0  0
  -18.3950   14.9510   15.4340 Br  0  0  0  0  0  0  0  0  0  0  0  0
  -21.3480   12.2600   16.5450 H   0  0  0  0  0  0  0  0  0  0  0  0
  -19.8250   13.0250   16.8390 H   0  0  0  0  0  0  0  0  0  0  0  0
  -18.6550   18.4080    8.9310 C   0  0  0  0  0  2  0  0  0  0  0  0
  -17.2100   18.4770    8.4140 C   0  0  0  0  0  2  0  0  0  0  0  0
  -17.1370   18.8540    6.9670 N   0  0  0  0  0  4  0  0  0  0  0  0
  -16.9100   20.2990    6.7530 C   0  0  0  0  0  2  0  0  0  0  0  0
  -15.8810   19.9210    5.6790 C   0  0  0  0  0  2  0  0  0  0  0  0
  -15.7890   18.5760    6.4110 C   0  0  0  0  0  2  0  0  0  0  0  0
  -17.8830   18.4420    6.3810 H   0  0  0  0  0  0  0  0  0  0  0  0
  1  8  1  0  0  0  0
  1  5  1  0  0  0  0
  2  3  1  0  0  0  0
  2  1  2  0  0  0  0
  3  4  1  0  0  0  0
  4  5  2  0  0  0  0
  6 11  1  0  0  0  0
  7  6  2  0  0  0  0
  7  8  1  0  0  0  0
  8  9  2  0  0  0  0
  9 10  1  0  0  0  0
 11 10  2  0  0  0  0
 13 12  1  0  0  0  0
 13  6  1  0  0  0  0
 14 13  1  0  0  0  0
 15  4  1  1  0  0  0
 15 20  1  0  0  0  0
 15 16  1  0  0  0  0
 16 17  1  0  0  0  0
 18 17  1  0  0  0  0
 18 21  1  0  0  0  0
 19 18  1  0  0  0  0
 20 19  1  0  0  0  0
 21 27  1  0  0  0  0
 22 21  2  0  0  0  0
 22 23  1  0  0  0  0
 23 24  2  0  0  0  0
 24 25  1  0  0  0  0
 25 26  1  0  0  0  0
 26 29  1  0  0  0  0
 26 30  1  0  0  0  0
 27 28  1  0  0  0  0
 27 25  2  0  0  0  0
 31  3  1  0  0  0  0
 32 31  1  0  0  0  0
 33 32  1  0  0  0  0
 34 33  1  0  0  0  0
 35 36  1  0  0  0  0
 35 34  1  0  0  0  0
 36 33  1  0  0  0  0
 37 33  1  0  0  0  0
M  END
>  <minimizedAffinity>
-9.33100128

$$$$
