
 OpenBabel10152418583D

 35 38  0  0  1  0  0  0  0  0999 V2000
   10.7310   -9.2620   13.6270 C   0  0  0  0  0  1  0  0  0  0  0  0
    9.5250  -10.1680   13.9080 C   0  0  2  0  0  3  0  0  0  0  0  0
    9.7200  -11.5230   13.2450 C   0  0  0  0  0  0  0  0  0  0  0  0
   10.7530  -11.7530   12.3250 C   0  0  0  0  0  3  0  0  0  0  0  0
   10.7770  -12.9260   11.5760 C   0  0  0  0  0  3  0  0  0  0  0  0
    9.7730  -13.8810   11.7400 C   0  0  0  0  0  3  0  0  0  0  0  0
    8.7510  -13.7030   12.6790 C   0  0  0  0  0  0  0  0  0  0  0  0
    8.7750  -12.5450   13.4670 C   0  0  0  0  0  3  0  0  0  0  0  0
    7.6760  -14.6020   12.8370 N   0  0  0  0  0  0  0  0  0  0  0  0
    6.3020  -14.3580   12.8020 C   0  0  0  0  0  0  0  0  0  0  0  0
    5.7140  -13.6240   11.7830 C   0  0  0  0  0  3  0  0  0  0  0  0
    4.3630  -13.3030   11.8770 C   0  0  0  0  0  0  0  0  0  0  0  0
    3.6290  -13.7320   12.9770 C   0  0  0  0  0  3  0  0  0  0  0  0
    4.2820  -14.5030   13.9200 C   0  0  0  0  0  3  0  0  0  0  0  0
    5.5870  -14.8380   13.8400 N   0  0  0  0  0  0  0  0  0  0  0  0
    7.8590  -15.3090   13.5440 H   0  0  0  0  0  0  0  0  0  0  0  0
    3.7470  -12.5130   10.8550 C   0  0  0  0  0  0  0  0  0  0  0  0
    3.2520  -11.8670   10.0290 N   0  0  0  0  0  0  0  0  0  0  0  0
    8.2850   -9.4560   13.5440 N   0  0  0  0  0  0  0  0  0  0  0  0
    8.3990   -8.4460   13.5300 H   0  0  0  0  0  0  0  0  0  0  0  0
    7.4350   -9.7800   12.5050 C   0  0  0  0  0  0  0  0  0  0  0  0
    6.1830  -10.0060   12.9320 N   0  0  0  0  0  0  0  0  0  0  0  0
    5.2510  -10.1430   11.9910 C   0  0  0  0  0  3  0  0  0  0  0  0
    5.4450  -10.0480   10.6720 N   0  0  0  0  0  0  0  0  0  0  0  0
    6.7110   -9.8730   10.2290 C   0  0  0  0  0  0  0  0  0  0  0  0
    7.0180   -9.7380    8.8570 C   0  0  0  0  0  0  0  0  0  0  0  0
    8.3470   -9.6120    8.4120 C   0  0  0  0  0  3  0  0  0  0  0  0
    9.3970   -9.6620    9.3130 C   0  0  0  0  0  3  0  0  0  0  0  0
    9.1140   -9.7760   10.6670 C   0  0  0  0  0  3  0  0  0  0  0  0
    7.7800   -9.8110   11.1420 C   0  0  0  0  0  0  0  0  0  0  0  0
    5.9740   -9.7020    7.7850 C   0  0  0  0  0  0  0  0  0  0  0  0
    4.7650  -10.2810    8.0320 N   0  0  0  0  0  0  0  0  0  0  0  0
    6.1840   -9.1700    6.6980 O   0  0  0  0  0  0  0  0  0  0  0  0
    4.0560  -10.2650    7.3150 H   0  0  0  0  0  0  0  0  0  0  0  0
    4.5710  -10.7110    8.9310 H   0  0  0  0  0  0  0  0  0  0  0  0
  2  1  1  6  0  0  0
  3  8  1  0  0  0  0
  3  2  1  0  0  0  0
  4  3  2  0  0  0  0
  5  6  2  0  0  0  0
  5  4  1  0  0  0  0
  6  7  1  0  0  0  0
  7  9  1  0  0  0  0
  7  8  2  0  0  0  0
  9 16  1  0  0  0  0
 10  9  1  0  0  0  0
 10 15  1  0  0  0  0
 11 12  1  0  0  0  0
 11 10  2  0  0  0  0
 12 13  2  0  0  0  0
 13 14  1  0  0  0  0
 15 14  2  0  0  0  0
 17 12  1  0  0  0  0
 18 17  3  0  0  0  0
 19  2  1  0  0  0  0
 20 19  1  0  0  0  0
 21 22  1  0  0  0  0
 21 19  1  0  0  0  0
 23 22  2  0  0  0  0
 24 23  1  0  0  0  0
 25 24  2  0  0  0  0
 25 30  1  0  0  0  0
 26 25  1  0  0  0  0
 27 26  2  0  0  0  0
 27 28  1  0  0  0  0
 28 29  2  0  0  0  0
 29 30  1  0  0  0  0
 30 21  2  0  0  0  0
 31 32  1  0  0  0  0
 31 26  1  0  0  0  0
 32 35  1  0  0  0  0
 33 31  2  0  0  0  0
 34 32  1  0  0  0  0
M  END
>  <minimizedAffinity>
13.7323189

$$$$
