
 OpenBabel10152418413D

 36 39  0  0  0  0  0  0  0  0999 V2000
   -1.3880   -7.0360  -26.4860 C   0  0  0  0  0  2  0  0  0  0  0  0
   -1.6460  -10.1120  -21.2170 C   0  0  0  0  0  0  0  0  0  0  0  0
   -1.7420   -9.0360  -20.3220 C   0  0  0  0  0  3  0  0  0  0  0  0
   -1.7260   -7.7420  -20.8110 C   0  0  0  0  0  3  0  0  0  0  0  0
   -1.5990   -7.5400  -22.1830 C   0  0  0  0  0  3  0  0  0  0  0  0
   -1.4910   -8.6310  -23.0890 C   0  0  0  0  0  0  0  0  0  0  0  0
   -1.3540   -8.4880  -24.4850 C   0  0  0  0  0  0  0  0  0  0  0  0
   -1.2820   -7.2170  -25.0490 N   0  0  0  0  0  0  0  0  0  0  0  0
   -1.3250   -9.5470  -25.3090 N   0  0  0  0  0  0  0  0  0  0  0  0
   -1.3890  -10.7530  -24.7430 C   0  0  0  0  0  3  0  0  0  0  0  0
   -1.4900  -11.0030  -23.4350 N   0  0  0  0  0  0  0  0  0  0  0  0
   -1.5330   -9.9480  -22.6030 C   0  0  0  0  0  0  0  0  0  0  0  0
   -0.6790   -6.5630  -24.5700 H   0  0  0  0  0  0  0  0  0  0  0  0
   -2.8770  -12.0330  -20.4670 N   0  0  0  0  0  0  0  0  0  0  0  0
   -1.6460  -11.4630  -20.6340 C   0  0  0  0  0  0  0  0  0  0  0  0
   -0.6160  -12.0000  -20.2560 O   0  0  0  0  0  0  0  0  0  0  0  0
   -2.9140  -12.9590  -20.0620 H   0  0  0  0  0  0  0  0  0  0  0  0
   -3.7330  -11.6020  -20.7870 H   0  0  0  0  0  0  0  0  0  0  0  0
   -0.3310   -6.1140  -27.0600 C   0  0  0  0  0  0  0  0  0  0  0  0
   -0.4730   -4.7220  -27.1040 C   0  0  0  0  0  3  0  0  0  0  0  0
    0.5470   -3.9200  -27.6170 C   0  0  0  0  0  3  0  0  0  0  0  0
    1.7380   -4.4940  -28.0650 C   0  0  0  0  0  3  0  0  0  0  0  0
    1.9280   -5.8730  -27.9900 C   0  0  0  0  0  0  0  0  0  0  0  0
    0.8790   -6.6730  -27.5120 C   0  0  0  0  0  3  0  0  0  0  0  0
    3.0920   -6.5380  -28.4170 N   0  0  0  0  0  0  0  0  0  0  0  0
    3.8030   -7.5860  -27.8860 C   0  0  0  0  0  0  0  0  0  0  0  0
    4.9450   -7.8210  -28.2810 O   0  0  0  0  0  0  0  0  0  0  0  0
    3.5250   -6.1870  -29.2630 H   0  0  0  0  0  0  0  0  0  0  0  0
    3.2240   -8.4990  -26.8910 C   0  0  0  0  0  0  0  0  0  0  0  0
    2.7340   -7.9690  -25.6890 C   0  0  0  0  0  3  0  0  0  0  0  0
    2.2100   -8.8280  -24.7210 C   0  0  0  0  0  3  0  0  0  0  0  0
    2.2010  -10.2020  -24.9530 C   0  0  0  0  0  0  0  0  0  0  0  0
    1.6970  -11.0210  -24.0210 F   0  0  0  0  0  0  0  0  0  0  0  0
    2.7150  -10.7380  -26.1280 C   0  0  0  0  0  3  0  0  0  0  0  0
    3.2360   -9.8810  -27.0910 C   0  0  0  0  0  0  0  0  0  0  0  0
    3.7590  -10.4110  -28.2050 F   0  0  0  0  0  0  0  0  0  0  0  0
  1  8  1  0  0  0  0
  2 15  1  0  0  0  0
  2  3  1  0  0  0  0
  4  3  2  0  0  0  0
  5  4  1  0  0  0  0
  6 12  1  0  0  0  0
  6  5  2  0  0  0  0
  7  6  1  0  0  0  0
  8 13  1  0  0  0  0
  8  7  1  0  0  0  0
  9 10  1  0  0  0  0
  9  7  2  0  0  0  0
 10 11  2  0  0  0  0
 11 12  1  0  0  0  0
 12  2  2  0  0  0  0
 14 17  1  0  0  0  0
 15 14  1  0  0  0  0
 15 16  2  0  0  0  0
 18 14  1  0  0  0  0
 19  1  1  0  0  0  0
 20 19  1  0  0  0  0
 21 20  2  0  0  0  0
 22 23  2  0  0  0  0
 22 21  1  0  0  0  0
 23 24  1  0  0  0  0
 24 19  2  0  0  0  0
 25 23  1  0  0  0  0
 25 26  1  0  0  0  0
 26 29  1  0  0  0  0
 27 26  2  0  0  0  0
 28 25  1  0  0  0  0
 29 30  1  0  0  0  0
 30 31  2  0  0  0  0
 32 31  1  0  0  0  0
 32 33  1  0  0  0  0
 34 32  2  0  0  0  0
 35 29  2  0  0  0  0
 35 34  1  0  0  0  0
 36 35  1  0  0  0  0
M  END
>  <minimizedAffinity>
-9.42150784

$$$$
