
 OpenBabel10152418413D

 36 39  0  0  0  0  0  0  0  0999 V2000
    4.0500   -9.4280  -26.4050 C   0  0  0  0  0  2  0  0  0  0  0  0
   -0.8890   -9.8640  -22.8390 C   0  0  0  0  0  0  0  0  0  0  0  0
   -1.0800  -11.2530  -22.8730 C   0  0  0  0  0  3  0  0  0  0  0  0
   -0.2270  -12.0390  -23.6280 C   0  0  0  0  0  3  0  0  0  0  0  0
    0.7940  -11.4260  -24.3490 C   0  0  0  0  0  3  0  0  0  0  0  0
    0.9820  -10.0160  -24.3230 C   0  0  0  0  0  0  0  0  0  0  0  0
    1.9920   -9.3400  -25.0370 C   0  0  0  0  0  0  0  0  0  0  0  0
    2.8610  -10.0560  -25.8570 N   0  0  0  0  0  0  0  0  0  0  0  0
    2.1750   -8.0140  -24.9290 N   0  0  0  0  0  0  0  0  0  0  0  0
    1.3250   -7.3520  -24.1430 C   0  0  0  0  0  3  0  0  0  0  0  0
    0.3180   -7.8860  -23.4470 N   0  0  0  0  0  0  0  0  0  0  0  0
    0.1350   -9.2140  -23.5390 C   0  0  0  0  0  0  0  0  0  0  0  0
    2.4270  -10.7550  -26.4430 H   0  0  0  0  0  0  0  0  0  0  0  0
   -1.3580   -8.5960  -20.8550 N   0  0  0  0  0  0  0  0  0  0  0  0
   -1.8420   -9.0810  -22.0370 C   0  0  0  0  0  0  0  0  0  0  0  0
   -3.0080   -8.9450  -22.3760 O   0  0  0  0  0  0  0  0  0  0  0  0
   -1.9890   -8.0590  -20.2760 H   0  0  0  0  0  0  0  0  0  0  0  0
   -0.3930   -8.6930  -20.5720 H   0  0  0  0  0  0  0  0  0  0  0  0
    3.8350   -8.8130  -27.7730 C   0  0  0  0  0  0  0  0  0  0  0  0
    4.0080   -9.5230  -28.9670 C   0  0  0  0  0  3  0  0  0  0  0  0
    3.7660   -8.9120  -30.1980 C   0  0  0  0  0  3  0  0  0  0  0  0
    3.3170   -7.5920  -30.2540 C   0  0  0  0  0  3  0  0  0  0  0  0
    3.0900   -6.8740  -29.0810 C   0  0  0  0  0  0  0  0  0  0  0  0
    3.3760   -7.4840  -27.8510 C   0  0  0  0  0  3  0  0  0  0  0  0
    2.6390   -5.5420  -29.0410 N   0  0  0  0  0  0  0  0  0  0  0  0
    1.4600   -4.9790  -28.6160 C   0  0  0  0  0  0  0  0  0  0  0  0
    1.1780   -3.8240  -28.9320 O   0  0  0  0  0  0  0  0  0  0  0  0
    3.2730   -4.8410  -29.4080 H   0  0  0  0  0  0  0  0  0  0  0  0
    0.5300   -5.6900  -27.7290 C   0  0  0  0  0  0  0  0  0  0  0  0
    0.3600   -7.0720  -27.8920 C   0  0  0  0  0  3  0  0  0  0  0  0
   -0.5450   -7.7550  -27.0770 C   0  0  0  0  0  3  0  0  0  0  0  0
   -1.2820   -7.0510  -26.1270 C   0  0  0  0  0  0  0  0  0  0  0  0
   -2.1480   -7.7110  -25.3470 F   0  0  0  0  0  0  0  0  0  0  0  0
   -1.1430   -5.6760  -25.9800 C   0  0  0  0  0  3  0  0  0  0  0  0
   -0.2420   -4.9980  -26.7930 C   0  0  0  0  0  0  0  0  0  0  0  0
   -0.1410   -3.6670  -26.6670 F   0  0  0  0  0  0  0  0  0  0  0  0
  1  8  1  0  0  0  0
  2 15  1  0  0  0  0
  3  2  1  0  0  0  0
  4  3  2  0  0  0  0
  5  6  2  0  0  0  0
  5  4  1  0  0  0  0
  6 12  1  0  0  0  0
  7  9  2  0  0  0  0
  7  6  1  0  0  0  0
  8  7  1  0  0  0  0
  9 10  1  0  0  0  0
 10 11  2  0  0  0  0
 12 11  1  0  0  0  0
 12  2  2  0  0  0  0
 13  8  1  0  0  0  0
 14 18  1  0  0  0  0
 14 17  1  0  0  0  0
 15 14  1  0  0  0  0
 16 15  2  0  0  0  0
 19  1  1  0  0  0  0
 20 19  2  0  0  0  0
 21 20  1  0  0  0  0
 22 21  2  0  0  0  0
 22 23  1  0  0  0  0
 23 25  1  0  0  0  0
 23 24  2  0  0  0  0
 24 19  1  0  0  0  0
 25 26  1  0  0  0  0
 26 29  1  0  0  0  0
 27 26  2  0  0  0  0
 28 25  1  0  0  0  0
 29 35  1  0  0  0  0
 30 29  2  0  0  0  0
 30 31  1  0  0  0  0
 31 32  2  0  0  0  0
 32 34  1  0  0  0  0
 32 33  1  0  0  0  0
 35 36  1  0  0  0  0
 35 34  2  0  0  0  0
M  END
>  <minimizedAffinity>
-8.18727303

$$$$
