
 OpenBabel10152418413D

 36 39  0  0  0  0  0  0  0  0999 V2000
    0.1150   -5.8750  -24.1630 C   0  0  0  0  0  2  0  0  0  0  0  0
    3.5500   -7.8540  -28.8090 C   0  0  0  0  0  0  0  0  0  0  0  0
    4.3400   -8.7940  -28.1320 C   0  0  0  0  0  3  0  0  0  0  0  0
    4.1680   -8.9730  -26.7700 C   0  0  0  0  0  3  0  0  0  0  0  0
    3.2210   -8.2010  -26.1020 C   0  0  0  0  0  3  0  0  0  0  0  0
    2.4260   -7.2400  -26.7880 C   0  0  0  0  0  0  0  0  0  0  0  0
    1.4580   -6.4260  -26.1640 C   0  0  0  0  0  0  0  0  0  0  0  0
    1.2590   -6.5130  -24.7890 N   0  0  0  0  0  0  0  0  0  0  0  0
    0.6830   -5.5810  -26.8620 N   0  0  0  0  0  0  0  0  0  0  0  0
    0.9000   -5.5120  -28.1760 C   0  0  0  0  0  3  0  0  0  0  0  0
    1.8060   -6.2120  -28.8630 N   0  0  0  0  0  0  0  0  0  0  0  0
    2.5780   -7.0710  -28.1740 C   0  0  0  0  0  0  0  0  0  0  0  0
    2.1000   -6.5460  -24.2300 H   0  0  0  0  0  0  0  0  0  0  0  0
    4.7830   -6.8110  -30.5850 N   0  0  0  0  0  0  0  0  0  0  0  0
    3.7960   -7.6940  -30.2510 C   0  0  0  0  0  0  0  0  0  0  0  0
    3.1050   -8.2570  -31.0870 O   0  0  0  0  0  0  0  0  0  0  0  0
    4.9730   -6.6710  -31.5690 H   0  0  0  0  0  0  0  0  0  0  0  0
    5.3660   -6.3490  -29.9020 H   0  0  0  0  0  0  0  0  0  0  0  0
   -0.8570   -6.8540  -23.5370 C   0  0  0  0  0  0  0  0  0  0  0  0
   -1.3760   -6.6970  -22.2460 C   0  0  0  0  0  3  0  0  0  0  0  0
   -2.2930   -7.6160  -21.7330 C   0  0  0  0  0  3  0  0  0  0  0  0
   -2.7280   -8.6880  -22.5130 C   0  0  0  0  0  3  0  0  0  0  0  0
   -2.2660   -8.8440  -23.8180 C   0  0  0  0  0  0  0  0  0  0  0  0
   -1.3140   -7.9390  -24.3090 C   0  0  0  0  0  3  0  0  0  0  0  0
   -2.6490   -9.8920  -24.6750 N   0  0  0  0  0  0  0  0  0  0  0  0
   -1.9220  -10.8110  -25.3920 C   0  0  0  0  0  0  0  0  0  0  0  0
   -2.4580  -11.4570  -26.2920 O   0  0  0  0  0  0  0  0  0  0  0  0
   -3.6440  -10.0040  -24.8320 H   0  0  0  0  0  0  0  0  0  0  0  0
   -0.5170  -11.1080  -25.0830 C   0  0  0  0  0  0  0  0  0  0  0  0
    0.4510  -10.9210  -26.0800 C   0  0  0  0  0  3  0  0  0  0  0  0
    1.7850  -11.2300  -25.8090 C   0  0  0  0  0  3  0  0  0  0  0  0
    2.1340  -11.7400  -24.5610 C   0  0  0  0  0  0  0  0  0  0  0  0
    3.4160  -12.0340  -24.3070 F   0  0  0  0  0  0  0  0  0  0  0  0
    1.1760  -11.9580  -23.5780 C   0  0  0  0  0  3  0  0  0  0  0  0
   -0.1520  -11.6500  -23.8490 C   0  0  0  0  0  0  0  0  0  0  0  0
   -1.0720  -11.8970  -22.9060 F   0  0  0  0  0  0  0  0  0  0  0  0
  1 19  1  0  0  0  0
  2 12  2  0  0  0  0
  2  3  1  0  0  0  0
  3  4  2  0  0  0  0
  4  5  1  0  0  0  0
  6  7  1  0  0  0  0
  6  5  2  0  0  0  0
  7  8  1  0  0  0  0
  8 13  1  0  0  0  0
  8  1  1  0  0  0  0
  9  7  2  0  0  0  0
 10  9  1  0  0  0  0
 11 10  2  0  0  0  0
 11 12  1  0  0  0  0
 12  6  1  0  0  0  0
 14 15  1  0  0  0  0
 14 18  1  0  0  0  0
 15  2  1  0  0  0  0
 16 15  2  0  0  0  0
 17 14  1  0  0  0  0
 19 20  1  0  0  0  0
 20 21  2  0  0  0  0
 22 21  1  0  0  0  0
 23 22  2  0  0  0  0
 24 23  1  0  0  0  0
 24 19  2  0  0  0  0
 25 23  1  0  0  0  0
 26 29  1  0  0  0  0
 26 25  1  0  0  0  0
 27 26  2  0  0  0  0
 28 25  1  0  0  0  0
 29 35  1  0  0  0  0
 30 31  1  0  0  0  0
 30 29  2  0  0  0  0
 31 32  2  0  0  0  0
 32 33  1  0  0  0  0
 32 34  1  0  0  0  0
 35 34  2  0  0  0  0
 35 36  1  0  0  0  0
M  END
>  <minimizedAffinity>
-8.72640419

$$$$
