
 OpenBabel11232420503D

 39 44  0  0  1  0  0  0  0  0999 V2000
  -20.4320   16.4230   13.6900 C   0  0  0  0  0  0  0  0  0  0  0  0
  -19.8550   16.0790   12.5050 N   0  0  0  0  0  0  0  0  0  0  0  0
  -19.6020   17.0530   11.6050 C   0  0  0  0  0  0  0  0  0  0  0  0
  -18.9660   16.6110   10.3650 C   0  0  0  0  0  3  0  0  0  0  0  0
  -18.6670   17.4950    9.4050 C   0  0  0  0  0  3  0  0  0  0  0  0
  -18.9730   18.8650    9.5830 C   0  0  0  0  0  0  0  0  0  0  0  0
  -18.7770   19.8860    8.7830 N   0  0  0  0  0  0  0  0  0  0  0  0
  -19.2590   21.0020    9.4020 N   0  0  0  0  0  0  0  0  0  0  0  0
  -19.7490   20.6550   10.5800 C   0  0  0  0  0  0  0  0  0  0  0  0
  -19.5830   19.2940   10.7610 N   0  0  0  0  0  0  0  0  0  0  0  0
  -19.9050   18.3970   11.8140 C   0  0  0  0  0  0  0  0  0  0  0  0
  -20.4820   18.7450   13.0300 C   0  0  0  0  0  3  0  0  0  0  0  0
  -20.7550   17.7590   14.0050 C   0  0  0  0  0  0  0  0  0  0  0  0
  -21.3260   18.1910   15.2920 C   0  0  0  0  0  0  0  0  0  0  0  0
  -20.7140   17.8280   16.5050 C   0  0  0  0  0  3  0  0  0  0  0  0
  -21.2520   18.2310   17.7290 C   0  0  0  0  0  3  0  0  0  0  0  0
  -22.4130   18.9990   17.7610 C   0  0  0  0  0  3  0  0  0  0  0  0
  -23.0400   19.3610   16.5700 C   0  0  0  0  0  3  0  0  0  0  0  0
  -22.5030   18.9560   15.3450 C   0  0  0  0  0  3  0  0  0  0  0  0
  -21.0260   12.9180   16.2480 C   0  0  0  0  0  0  0  0  0  0  0  0
  -19.7530   13.4050   15.8990 C   0  0  0  0  0  3  0  0  0  0  0  0
  -19.5750   14.5360   15.0890 C   0  0  0  0  0  3  0  0  0  0  0  0
  -20.6630   15.2530   14.5710 C   0  0  0  0  0  0  0  0  0  0  0  0
  -21.9370   14.7820   14.9020 C   0  0  0  0  0  3  0  0  0  0  0  0
  -22.1120   13.6640   15.7350 C   0  0  0  0  0  3  0  0  0  0  0  0
  -20.1490   10.7280   20.3350 C   0  0  0  0  0  1  0  0  0  0  0  0
  -20.2780   11.5780   19.0800 C   0  0  2  0  0  0  0  0  0  0  0  0
  -21.7420   11.8090   18.6080 C   0  0  0  0  0  2  0  0  0  0  0  0
  -21.2480   11.6120   17.1450 C   0  0  2  0  0  0  0  0  0  0  0  0
  -20.0410   10.8240   17.7460 C   0  0  0  0  0  2  0  0  0  0  0  0
  -22.1270   10.6910   16.3800 N   0  0  0  0  0  4  0  0  0  0  0  0
  -22.2470    9.7760   16.8310 H   0  0  0  0  0  0  0  0  0  0  0  0
  -23.0640   11.0880   16.2460 H   0  0  0  0  0  0  0  0  0  0  0  0
  -21.7410   10.5260   15.4390 H   0  0  0  0  0  0  0  0  0  0  0  0
  -19.5120   12.7870   19.2260 O   0  0  0  0  0  0  0  0  0  0  0  0
  -18.6450   12.5350   19.5960 H   0  0  0  0  0  0  0  0  0  0  0  0
  -20.3860   21.6040   11.5120 C   0  0  0  0  0  3  0  0  0  0  0  0
  -19.4620   22.2300   12.2930 F   0  0  0  0  0  0  0  0  0  0  0  0
  -21.0560   22.5830   10.8470 F   0  0  0  0  0  0  0  0  0  0  0  0
  1 13  1  0  0  0  0
  1 23  1  0  0  0  0
  2  1  2  0  0  0  0
  3 11  2  0  0  0  0
  3  2  1  0  0  0  0
  4  3  1  0  0  0  0
  5  6  1  0  0  0  0
  5  4  2  0  0  0  0
  6 10  1  0  0  0  0
  7  8  1  0  0  0  0
  7  6  2  0  0  0  0
  8  9  2  0  0  0  0
  9 10  1  0  0  0  0
  9 37  1  0  0  0  0
 10 11  1  0  0  0  0
 11 12  1  0  0  0  0
 12 13  2  0  0  0  0
 13 14  1  0  0  0  0
 14 19  2  0  0  0  0
 14 15  1  0  0  0  0
 15 16  2  0  0  0  0
 16 17  1  0  0  0  0
 18 17  2  0  0  0  0
 19 18  1  0  0  0  0
 20 29  1  0  0  0  0
 21 20  1  0  0  0  0
 22 21  2  0  0  0  0
 23 24  2  0  0  0  0
 23 22  1  0  0  0  0
 24 25  1  0  0  0  0
 25 20  2  0  0  0  0
 27 35  1  0  0  0  0
 27 26  1  1  0  0  0
 28 27  1  0  0  0  0
 29 31  1  6  0  0  0
 29 30  1  0  0  0  0
 29 28  1  0  0  0  0
 30 27  1  0  0  0  0
 31 32  1  0  0  0  0
 33 31  1  0  0  0  0
 34 31  1  0  0  0  0
 35 36  1  0  0  0  0
 37 38  1  0  0  0  0
 39 37  1  0  0  0  0
M  END
>  <minimizedAffinity>
-11.2469654

$$$$
