
 OpenBabel11232420503D

 39 44  0  0  1  0  0  0  0  0999 V2000
  -20.2230   32.2460   15.6740 C   0  0  0  0  0  0  0  0  0  0  0  0
  -19.2430   33.1780   15.8430 N   0  0  0  0  0  0  0  0  0  0  0  0
  -19.4150   34.1310   16.7820 C   0  0  0  0  0  0  0  0  0  0  0  0
  -18.3130   35.0840   16.9170 C   0  0  0  0  0  3  0  0  0  0  0  0
  -18.3780   36.0680   17.8230 C   0  0  0  0  0  3  0  0  0  0  0  0
  -19.5180   36.1960   18.6510 C   0  0  0  0  0  0  0  0  0  0  0  0
  -19.7890   37.0760   19.5850 N   0  0  0  0  0  0  0  0  0  0  0  0
  -21.0240   36.7870   20.0870 N   0  0  0  0  0  0  0  0  0  0  0  0
  -21.5020   35.7290   19.4540 C   0  0  0  0  0  0  0  0  0  0  0  0
  -20.5730   35.2950   18.5260 N   0  0  0  0  0  0  0  0  0  0  0  0
  -20.5450   34.2240   17.5920 C   0  0  0  0  0  0  0  0  0  0  0  0
  -21.5360   33.2650   17.4250 C   0  0  0  0  0  3  0  0  0  0  0  0
  -21.3940   32.2430   16.4590 C   0  0  0  0  0  0  0  0  0  0  0  0
  -22.4560   31.2280   16.3580 C   0  0  0  0  0  0  0  0  0  0  0  0
  -23.8110   31.5990   16.4290 C   0  0  0  0  0  3  0  0  0  0  0  0
  -24.8240   30.6410   16.3380 C   0  0  0  0  0  3  0  0  0  0  0  0
  -24.4980   29.2970   16.1790 C   0  0  0  0  0  3  0  0  0  0  0  0
  -23.1620   28.9080   16.1160 C   0  0  0  0  0  3  0  0  0  0  0  0
  -22.1490   29.8660   16.2090 C   0  0  0  0  0  3  0  0  0  0  0  0
  -19.3910   29.3630   12.4850 C   0  0  0  0  0  0  0  0  0  0  0  0
  -20.4470   30.2900   12.4230 C   0  0  0  0  0  3  0  0  0  0  0  0
  -20.6970   31.2180   13.4450 C   0  0  0  0  0  3  0  0  0  0  0  0
  -19.9060   31.2750   14.6010 C   0  0  0  0  0  0  0  0  0  0  0  0
  -18.8530   30.3570   14.6840 C   0  0  0  0  0  3  0  0  0  0  0  0
  -18.5900   29.4470   13.6470 C   0  0  0  0  0  3  0  0  0  0  0  0
  -20.4200   25.1040   10.7330 C   0  0  0  0  0  1  0  0  0  0  0  0
  -20.2030   26.4130   11.4740 C   0  0  2  0  0  0  0  0  0  0  0  0
  -20.3340   27.6840   10.5860 C   0  0  0  0  0  2  0  0  0  0  0  0
  -19.1110   28.2780   11.3430 C   0  0  2  0  0  0  0  0  0  0  0  0
  -18.7200   26.8070   11.6970 C   0  0  0  0  0  2  0  0  0  0  0  0
  -18.1100   28.8600   10.4120 N   0  0  0  0  0  4  0  0  0  0  0  0
  -17.7870   28.1980    9.6970 H   0  0  0  0  0  0  0  0  0  0  0  0
  -18.4840   29.6800    9.9200 H   0  0  0  0  0  0  0  0  0  0  0  0
  -17.2820   29.1850   10.9320 H   0  0  0  0  0  0  0  0  0  0  0  0
  -21.0130   26.4440   12.6630 O   0  0  0  0  0  0  0  0  0  0  0  0
  -20.9140   25.5770   13.1000 H   0  0  0  0  0  0  0  0  0  0  0  0
  -22.8330   35.1520   19.7150 C   0  0  0  0  0  3  0  0  0  0  0  0
  -22.7430   33.9880   20.4160 F   0  0  0  0  0  0  0  0  0  0  0  0
  -23.6030   35.9910   20.4590 F   0  0  0  0  0  0  0  0  0  0  0  0
  1  2  2  0  0  0  0
  1 13  1  0  0  0  0
  2  3  1  0  0  0  0
  3  4  1  0  0  0  0
  3 11  2  0  0  0  0
  4  5  2  0  0  0  0
  5  6  1  0  0  0  0
  6  7  2  0  0  0  0
  7  8  1  0  0  0  0
  9 37  1  0  0  0  0
  9  8  2  0  0  0  0
 10  6  1  0  0  0  0
 10  9  1  0  0  0  0
 11 10  1  0  0  0  0
 12 11  1  0  0  0  0
 13 12  2  0  0  0  0
 14 15  1  0  0  0  0
 14 13  1  0  0  0  0
 16 15  2  0  0  0  0
 17 16  1  0  0  0  0
 18 17  2  0  0  0  0
 18 19  1  0  0  0  0
 19 14  2  0  0  0  0
 20 25  1  0  0  0  0
 21 20  2  0  0  0  0
 21 22  1  0  0  0  0
 22 23  2  0  0  0  0
 23 24  1  0  0  0  0
 23  1  1  0  0  0  0
 25 24  2  0  0  0  0
 27 26  1  6  0  0  0
 27 30  1  0  0  0  0
 27 35  1  0  0  0  0
 28 29  1  0  0  0  0
 28 27  1  0  0  0  0
 29 31  1  6  0  0  0
 29 30  1  0  0  0  0
 29 20  1  0  0  0  0
 31 34  1  0  0  0  0
 32 31  1  0  0  0  0
 33 31  1  0  0  0  0
 35 36  1  0  0  0  0
 37 38  1  0  0  0  0
 37 39  1  0  0  0  0
M  END
>  <minimizedAffinity>
-11.0464668

$$$$
