
 OpenBabel11232420503D

 39 44  0  0  1  0  0  0  0  0999 V2000
  -20.6410   16.5210   13.9870 C   0  0  0  0  0  0  0  0  0  0  0  0
  -20.0670   16.2090   12.7920 N   0  0  0  0  0  0  0  0  0  0  0  0
  -19.8170   17.2050   11.9160 C   0  0  0  0  0  0  0  0  0  0  0  0
  -19.1830   16.7950   10.6640 C   0  0  0  0  0  3  0  0  0  0  0  0
  -18.8870   17.7040    9.7260 C   0  0  0  0  0  3  0  0  0  0  0  0
  -19.1930   19.0690    9.9400 C   0  0  0  0  0  0  0  0  0  0  0  0
  -19.0000   20.1100    9.1660 N   0  0  0  0  0  0  0  0  0  0  0  0
  -19.4810   21.2090    9.8140 N   0  0  0  0  0  0  0  0  0  0  0  0
  -19.9680   20.8320   10.9840 C   0  0  0  0  0  0  0  0  0  0  0  0
  -19.8000   19.4670   11.1300 N   0  0  0  0  0  0  0  0  0  0  0  0
  -20.1190   18.5430   12.1610 C   0  0  0  0  0  0  0  0  0  0  0  0
  -20.6930   18.8600   13.3860 C   0  0  0  0  0  3  0  0  0  0  0  0
  -20.9640   17.8490   14.3370 C   0  0  0  0  0  0  0  0  0  0  0  0
  -21.5310   18.2480   15.6360 C   0  0  0  0  0  0  0  0  0  0  0  0
  -22.6920   19.0400   15.6970 C   0  0  0  0  0  3  0  0  0  0  0  0
  -23.2340   19.4270   16.9250 C   0  0  0  0  0  3  0  0  0  0  0  0
  -22.6210   19.0310   18.1120 C   0  0  0  0  0  3  0  0  0  0  0  0
  -21.4650   18.2550   18.0720 C   0  0  0  0  0  3  0  0  0  0  0  0
  -20.9220   17.8700   16.8430 C   0  0  0  0  0  3  0  0  0  0  0  0
  -21.4100   13.0400   16.5300 C   0  0  0  0  0  0  0  0  0  0  0  0
  -22.4180   13.6880   15.7920 C   0  0  0  0  0  3  0  0  0  0  0  0
  -22.1570   14.7950   14.9710 C   0  0  0  0  0  3  0  0  0  0  0  0
  -20.8680   15.3300   14.8380 C   0  0  0  0  0  0  0  0  0  0  0  0
  -19.8530   14.7030   15.5670 C   0  0  0  0  0  3  0  0  0  0  0  0
  -20.1130   13.5780   16.3680 C   0  0  0  0  0  3  0  0  0  0  0  0
  -20.1610    8.6830   17.8420 C   0  0  0  0  0  1  0  0  0  0  0  0
  -20.4280   10.0570   17.2480 C   0  0  2  0  0  0  0  0  0  0  0  0
  -20.4960   11.2070   18.2950 C   0  0  0  0  0  2  0  0  0  0  0  0
  -21.6940   11.7960   17.4950 C   0  0  2  0  0  0  0  0  0  0  0  0
  -21.9140   10.3580   16.9240 C   0  0  0  0  0  2  0  0  0  0  0  0
  -22.8250   12.1700   18.3810 N   0  0  0  0  0  4  0  0  0  0  0  0
  -23.1510   11.3960   18.9730 H   0  0  0  0  0  0  0  0  0  0  0  0
  -22.5750   12.9450   19.0070 H   0  0  0  0  0  0  0  0  0  0  0  0
  -23.6280   12.4930   17.8220 H   0  0  0  0  0  0  0  0  0  0  0  0
  -19.5180   10.3080   16.1630 O   0  0  0  0  0  0  0  0  0  0  0  0
  -19.4960    9.5000   15.6140 H   0  0  0  0  0  0  0  0  0  0  0  0
  -20.6020   21.7560   11.9420 C   0  0  0  0  0  3  0  0  0  0  0  0
  -20.3700   23.0570   11.6090 F   0  0  0  0  0  0  0  0  0  0  0  0
  -21.9530   21.6010   11.9650 F   0  0  0  0  0  0  0  0  0  0  0  0
  1 13  1  0  0  0  0
  1 23  1  0  0  0  0
  2  1  2  0  0  0  0
  3 11  2  0  0  0  0
  3  2  1  0  0  0  0
  4  3  1  0  0  0  0
  5  6  1  0  0  0  0
  5  4  2  0  0  0  0
  6 10  1  0  0  0  0
  7  8  1  0  0  0  0
  7  6  2  0  0  0  0
  8  9  2  0  0  0  0
  9 10  1  0  0  0  0
  9 37  1  0  0  0  0
 10 11  1  0  0  0  0
 11 12  1  0  0  0  0
 12 13  2  0  0  0  0
 13 14  1  0  0  0  0
 14 15  2  0  0  0  0
 14 19  1  0  0  0  0
 15 16  1  0  0  0  0
 16 17  2  0  0  0  0
 18 17  1  0  0  0  0
 19 18  2  0  0  0  0
 20 29  1  0  0  0  0
 21 20  2  0  0  0  0
 22 21  1  0  0  0  0
 23 22  2  0  0  0  0
 23 24  1  0  0  0  0
 24 25  2  0  0  0  0
 25 20  1  0  0  0  0
 27 26  1  1  0  0  0
 27 28  1  0  0  0  0
 29 28  1  0  0  0  0
 29 31  1  1  0  0  0
 30 27  1  0  0  0  0
 30 29  1  0  0  0  0
 31 32  1  0  0  0  0
 31 33  1  0  0  0  0
 34 31  1  0  0  0  0
 35 27  1  0  0  0  0
 36 35  1  0  0  0  0
 37 39  1  0  0  0  0
 38 37  1  0  0  0  0
M  END
>  <minimizedAffinity>
-10.8491993

$$$$
