
 OpenBabel11232420503D

 39 44  0  0  1  0  0  0  0  0999 V2000
  -18.5640   21.8450   10.6150 C   0  0  0  0  0  0  0  0  0  0  0  0
  -18.8940   22.8110   11.5170 N   0  0  0  0  0  0  0  0  0  0  0  0
  -18.3810   24.0480   11.3540 C   0  0  0  0  0  0  0  0  0  0  0  0
  -18.7950   25.0350   12.3510 C   0  0  0  0  0  3  0  0  0  0  0  0
  -18.3490   26.2950   12.2810 C   0  0  0  0  0  3  0  0  0  0  0  0
  -17.4660   26.6780   11.2440 C   0  0  0  0  0  0  0  0  0  0  0  0
  -16.9100   27.8400   10.9930 N   0  0  0  0  0  0  0  0  0  0  0  0
  -16.1250   27.6980    9.8860 N   0  0  0  0  0  0  0  0  0  0  0  0
  -16.2060   26.4470    9.4670 C   0  0  0  0  0  0  0  0  0  0  0  0
  -17.0650   25.7430   10.2920 N   0  0  0  0  0  0  0  0  0  0  0  0
  -17.5230   24.3980   10.3140 C   0  0  0  0  0  0  0  0  0  0  0  0
  -17.1990   23.4140    9.3880 C   0  0  0  0  0  3  0  0  0  0  0  0
  -17.7210   22.1070    9.5150 C   0  0  0  0  0  0  0  0  0  0  0  0
  -17.3790   21.1170    8.4800 C   0  0  0  0  0  0  0  0  0  0  0  0
  -16.2830   20.2520    8.6500 C   0  0  0  0  0  3  0  0  0  0  0  0
  -15.9500   19.3130    7.6710 C   0  0  0  0  0  3  0  0  0  0  0  0
  -16.7040   19.2270    6.5030 C   0  0  0  0  0  3  0  0  0  0  0  0
  -17.7880   20.0820    6.3110 C   0  0  0  0  0  3  0  0  0  0  0  0
  -18.1200   21.0220    7.2910 C   0  0  0  0  0  3  0  0  0  0  0  0
  -20.3880   17.9990   11.6440 C   0  0  0  0  0  0  0  0  0  0  0  0
  -20.5430   19.1550   12.4300 C   0  0  0  0  0  3  0  0  0  0  0  0
  -19.9640   20.3850   12.0840 C   0  0  0  0  0  3  0  0  0  0  0  0
  -19.1870   20.5370   10.9270 C   0  0  0  0  0  0  0  0  0  0  0  0
  -19.0160   19.3970   10.1340 C   0  0  0  0  0  3  0  0  0  0  0  0
  -19.6190   18.1740   10.4710 C   0  0  0  0  0  3  0  0  0  0  0  0
  -20.9280   14.7000   14.9740 C   0  0  0  0  0  1  0  0  0  0  0  0
  -20.6030   15.8510   14.0350 C   0  0  2  0  0  0  0  0  0  0  0  0
  -21.8450   16.4930   13.3520 C   0  0  0  0  0  2  0  0  0  0  0  0
  -21.0150   16.5810   12.0390 C   0  0  2  0  0  0  0  0  0  0  0  0
  -20.1280   15.4340   12.6200 C   0  0  0  0  0  2  0  0  0  0  0  0
  -21.7780   16.0890   10.8640 N   0  0  0  0  0  4  0  0  0  0  0  0
  -22.1370   15.1340   10.9830 H   0  0  0  0  0  0  0  0  0  0  0  0
  -22.5830   16.6920   10.6570 H   0  0  0  0  0  0  0  0  0  0  0  0
  -21.1850   16.0950   10.0210 H   0  0  0  0  0  0  0  0  0  0  0  0
  -19.7450   16.7970   14.6970 O   0  0  0  0  0  0  0  0  0  0  0  0
  -19.0490   16.2850   15.1510 H   0  0  0  0  0  0  0  0  0  0  0  0
  -15.4600   25.9230    8.3070 C   0  0  0  0  0  3  0  0  0  0  0  0
  -15.0410   26.9280    7.4890 F   0  0  0  0  0  0  0  0  0  0  0  0
  -14.3430   25.2510    8.6950 F   0  0  0  0  0  0  0  0  0  0  0  0
  1 23  1  0  0  0  0
  1  2  1  0  0  0  0
  3  2  2  0  0  0  0
  3  4  1  0  0  0  0
  5  4  2  0  0  0  0
  6  5  1  0  0  0  0
  7  6  2  0  0  0  0
  8  7  1  0  0  0  0
  9  8  2  0  0  0  0
  9 10  1  0  0  0  0
 10 11  1  0  0  0  0
 10  6  1  0  0  0  0
 11  3  1  0  0  0  0
 12 13  1  0  0  0  0
 12 11  2  0  0  0  0
 13  1  2  0  0  0  0
 14 15  1  0  0  0  0
 14 13  1  0  0  0  0
 16 15  2  0  0  0  0
 17 16  1  0  0  0  0
 18 17  2  0  0  0  0
 18 19  1  0  0  0  0
 19 14  2  0  0  0  0
 20 29  1  0  0  0  0
 20 21  1  0  0  0  0
 22 21  2  0  0  0  0
 23 22  1  0  0  0  0
 24 25  1  0  0  0  0
 24 23  2  0  0  0  0
 25 20  2  0  0  0  0
 27 35  1  0  0  0  0
 27 26  1  1  0  0  0
 28 27  1  0  0  0  0
 29 31  1  6  0  0  0
 29 30  1  0  0  0  0
 29 28  1  0  0  0  0
 30 27  1  0  0  0  0
 31 32  1  0  0  0  0
 33 31  1  0  0  0  0
 34 31  1  0  0  0  0
 35 36  1  0  0  0  0
 37 39  1  0  0  0  0
 37  9  1  0  0  0  0
 38 37  1  0  0  0  0
M  END
>  <minimizedAffinity>
-11.2220716

$$$$
