
 OpenBabel11232420503D

 39 44  0  0  1  0  0  0  0  0999 V2000
  -21.3370   16.7410   12.9540 C   0  0  0  0  0  0  0  0  0  0  0  0
  -20.8820   16.4540   11.7030 N   0  0  0  0  0  0  0  0  0  0  0  0
  -20.2520   17.4230   11.0070 C   0  0  0  0  0  0  0  0  0  0  0  0
  -19.7760   17.0350    9.6800 C   0  0  0  0  0  3  0  0  0  0  0  0
  -19.1330   17.9180    8.9070 C   0  0  0  0  0  3  0  0  0  0  0  0
  -18.9170   19.2390    9.3670 C   0  0  0  0  0  0  0  0  0  0  0  0
  -18.3250   20.2520    8.7810 N   0  0  0  0  0  0  0  0  0  0  0  0
  -18.3840   21.3190    9.6290 N   0  0  0  0  0  0  0  0  0  0  0  0
  -19.0140   20.9500   10.7310 C   0  0  0  0  0  0  0  0  0  0  0  0
  -19.3700   19.6170   10.6290 N   0  0  0  0  0  0  0  0  0  0  0  0
  -20.0430   18.7120   11.4930 C   0  0  0  0  0  0  0  0  0  0  0  0
  -20.4970   18.9980   12.7750 C   0  0  0  0  0  3  0  0  0  0  0  0
  -21.1550   18.0100   13.5430 C   0  0  0  0  0  0  0  0  0  0  0  0
  -21.5750   18.3560   14.9110 C   0  0  0  0  0  0  0  0  0  0  0  0
  -20.8530   17.8850   16.0220 C   0  0  0  0  0  3  0  0  0  0  0  0
  -21.2480   18.2050   17.3230 C   0  0  0  0  0  3  0  0  0  0  0  0
  -22.3740   18.9980   17.5340 C   0  0  0  0  0  3  0  0  0  0  0  0
  -23.1080   19.4650   16.4460 C   0  0  0  0  0  3  0  0  0  0  0  0
  -22.7140   19.1440   15.1450 C   0  0  0  0  0  3  0  0  0  0  0  0
  -23.4440   13.3940   14.8330 C   0  0  0  0  0  0  0  0  0  0  0  0
  -24.0350   14.2210   13.8600 C   0  0  0  0  0  3  0  0  0  0  0  0
  -23.3450   15.2830   13.2550 C   0  0  0  0  0  3  0  0  0  0  0  0
  -22.0190   15.5890   13.5900 C   0  0  0  0  0  0  0  0  0  0  0  0
  -21.4160   14.7810   14.5600 C   0  0  0  0  0  3  0  0  0  0  0  0
  -22.1010   13.7030   15.1440 C   0  0  0  0  0  3  0  0  0  0  0  0
  -27.0610   12.1170   17.5830 C   0  0  0  0  0  1  0  0  0  0  0  0
  -25.9440   12.7340   16.7550 C   0  0  2  0  0  0  0  0  0  0  0  0
  -25.7640   12.1020   15.3450 C   0  0  0  0  0  2  0  0  0  0  0  0
  -24.2250   12.1980   15.5540 C   0  0  2  0  0  0  0  0  0  0  0  0
  -24.5180   12.2270   17.0880 C   0  0  0  0  0  2  0  0  0  0  0  0
  -23.5340   10.9340   15.1920 N   0  0  0  0  0  4  0  0  0  0  0  0
  -23.9010   10.1130   15.6900 H   0  0  0  0  0  0  0  0  0  0  0  0
  -23.6090   10.7370   14.1870 H   0  0  0  0  0  0  0  0  0  0  0  0
  -22.5280   11.0010   15.4030 H   0  0  0  0  0  0  0  0  0  0  0  0
  -26.0790   14.1670   16.7410 O   0  0  0  0  0  0  0  0  0  0  0  0
  -26.2620   14.4470   17.6580 H   0  0  0  0  0  0  0  0  0  0  0  0
  -19.2900   21.8590   11.8590 C   0  0  0  0  0  3  0  0  0  0  0  0
  -18.5370   22.9920   11.7810 F   0  0  0  0  0  0  0  0  0  0  0  0
  -20.5890   22.2610   11.8690 F   0  0  0  0  0  0  0  0  0  0  0  0
  1 13  1  0  0  0  0
  1 23  1  0  0  0  0
  2  1  2  0  0  0  0
  3 11  2  0  0  0  0
  3  2  1  0  0  0  0
  4  3  1  0  0  0  0
  5  6  1  0  0  0  0
  5  4  2  0  0  0  0
  6 10  1  0  0  0  0
  7  6  2  0  0  0  0
  7  8  1  0  0  0  0
  8  9  2  0  0  0  0
  9 37  1  0  0  0  0
 10  9  1  0  0  0  0
 10 11  1  0  0  0  0
 11 12  1  0  0  0  0
 12 13  2  0  0  0  0
 13 14  1  0  0  0  0
 14 19  2  0  0  0  0
 14 15  1  0  0  0  0
 15 16  2  0  0  0  0
 16 17  1  0  0  0  0
 18 17  2  0  0  0  0
 19 18  1  0  0  0  0
 20 25  1  0  0  0  0
 20 29  1  0  0  0  0
 21 20  2  0  0  0  0
 22 23  2  0  0  0  0
 22 21  1  0  0  0  0
 23 24  1  0  0  0  0
 24 25  2  0  0  0  0
 27 30  1  0  0  0  0
 27 26  1  1  0  0  0
 28 29  1  0  0  0  0
 28 27  1  0  0  0  0
 29 31  1  6  0  0  0
 29 30  1  0  0  0  0
 31 34  1  0  0  0  0
 31 32  1  0  0  0  0
 33 31  1  0  0  0  0
 35 27  1  0  0  0  0
 35 36  1  0  0  0  0
 37 39  1  0  0  0  0
 38 37  1  0  0  0  0
M  END
>  <minimizedAffinity>
-11.1875238

$$$$
