
 OpenBabel11232420503D

 39 44  0  0  1  0  0  0  0  0999 V2000
  -20.7810   20.0440   12.4530 C   0  0  0  0  0  0  0  0  0  0  0  0
  -21.5300   20.2010   13.5800 N   0  0  0  0  0  0  0  0  0  0  0  0
  -22.0640   19.1040   14.1580 C   0  0  0  0  0  0  0  0  0  0  0  0
  -22.8400   19.3500   15.3730 C   0  0  0  0  0  3  0  0  0  0  0  0
  -23.4090   18.3310   16.0290 C   0  0  0  0  0  3  0  0  0  0  0  0
  -23.2700   17.0090   15.5450 C   0  0  0  0  0  0  0  0  0  0  0  0
  -23.7420   15.8810   16.0190 N   0  0  0  0  0  0  0  0  0  0  0  0
  -23.3440   14.8770   15.1860 N   0  0  0  0  0  0  0  0  0  0  0  0
  -22.6290   15.3990   14.2040 C   0  0  0  0  0  0  0  0  0  0  0  0
  -22.5340   16.7670   14.3860 N   0  0  0  0  0  0  0  0  0  0  0  0
  -21.8980   17.8120   13.6630 C   0  0  0  0  0  0  0  0  0  0  0  0
  -21.1220   17.6550   12.5220 C   0  0  0  0  0  3  0  0  0  0  0  0
  -20.5370   18.7750   11.8890 C   0  0  0  0  0  0  0  0  0  0  0  0
  -19.6880   18.5440   10.7080 C   0  0  0  0  0  0  0  0  0  0  0  0
  -19.1740   17.2630   10.4350 C   0  0  0  0  0  3  0  0  0  0  0  0
  -18.3650   17.0370    9.3190 C   0  0  0  0  0  3  0  0  0  0  0  0
  -18.0530   18.0880    8.4610 C   0  0  0  0  0  3  0  0  0  0  0  0
  -18.5430   19.3660    8.7200 C   0  0  0  0  0  3  0  0  0  0  0  0
  -19.3520   19.5930    9.8370 C   0  0  0  0  0  3  0  0  0  0  0  0
  -19.2250   23.8620   10.9780 C   0  0  0  0  0  0  0  0  0  0  0  0
  -18.4590   22.9700   11.7510 C   0  0  0  0  0  3  0  0  0  0  0  0
  -18.9640   21.7440   12.2080 C   0  0  0  0  0  3  0  0  0  0  0  0
  -20.2740   21.3320   11.9230 C   0  0  0  0  0  0  0  0  0  0  0  0
  -21.0530   22.2070   11.1600 C   0  0  0  0  0  3  0  0  0  0  0  0
  -20.5350   23.4230   10.6830 C   0  0  0  0  0  3  0  0  0  0  0  0
  -15.5470   26.3280    9.3460 C   0  0  0  0  0  1  0  0  0  0  0  0
  -16.5860   25.3750    9.9160 C   0  0  2  0  0  0  0  0  0  0  0  0
  -17.9190   25.3250    9.1160 C   0  0  0  0  0  2  0  0  0  0  0  0
  -18.6760   25.2780   10.4750 C   0  0  2  0  0  0  0  0  0  0  0  0
  -17.4050   25.9300   11.1100 C   0  0  0  0  0  2  0  0  0  0  0  0
  -19.8110   26.2350   10.5130 N   0  0  0  0  0  4  0  0  0  0  0  0
  -19.5350   27.2020   10.3030 H   0  0  0  0  0  0  0  0  0  0  0  0
  -20.5450   25.9770    9.8430 H   0  0  0  0  0  0  0  0  0  0  0  0
  -20.2520   26.2330   11.4440 H   0  0  0  0  0  0  0  0  0  0  0  0
  -15.9940   24.0850   10.1480 O   0  0  0  0  0  0  0  0  0  0  0  0
  -15.1340   24.2380   10.5850 H   0  0  0  0  0  0  0  0  0  0  0  0
  -22.0610   14.6090   13.0960 C   0  0  0  0  0  3  0  0  0  0  0  0
  -22.4970   15.0610   11.8870 F   0  0  0  0  0  0  0  0  0  0  0  0
  -20.7040   14.6900   13.0710 F   0  0  0  0  0  0  0  0  0  0  0  0
  1  2  1  0  0  0  0
  2  3  2  0  0  0  0
  3  4  1  0  0  0  0
  4  5  2  0  0  0  0
  6  7  2  0  0  0  0
  6  5  1  0  0  0  0
  8  7  1  0  0  0  0
  9 10  1  0  0  0  0
  9  8  2  0  0  0  0
 10  6  1  0  0  0  0
 11  3  1  0  0  0  0
 11 10  1  0  0  0  0
 12 11  2  0  0  0  0
 13  1  2  0  0  0  0
 13 12  1  0  0  0  0
 14 13  1  0  0  0  0
 15 14  1  0  0  0  0
 16 15  2  0  0  0  0
 17 18  2  0  0  0  0
 17 16  1  0  0  0  0
 18 19  1  0  0  0  0
 19 14  2  0  0  0  0
 20 21  1  0  0  0  0
 21 22  2  0  0  0  0
 23 22  1  0  0  0  0
 23  1  1  0  0  0  0
 24 23  2  0  0  0  0
 25 20  2  0  0  0  0
 25 24  1  0  0  0  0
 27 26  1  6  0  0  0
 27 35  1  0  0  0  0
 27 30  1  0  0  0  0
 28 27  1  0  0  0  0
 28 29  1  0  0  0  0
 29 31  1  6  0  0  0
 29 20  1  0  0  0  0
 29 30  1  0  0  0  0
 31 34  1  0  0  0  0
 32 31  1  0  0  0  0
 33 31  1  0  0  0  0
 35 36  1  0  0  0  0
 37  9  1  0  0  0  0
 38 37  1  0  0  0  0
 39 37  1  0  0  0  0
M  END
>  <minimizedAffinity>
-12.0584755

$$$$
