
 OpenBabel10152419303D

 38 41  0  0  1  0  0  0  0  0999 V2000
   -4.0280   -8.1070  -23.4220 C   0  0  0  0  0  1  0  0  0  0  0  0
   -2.5740   -8.5210  -23.6820 C   0  0  2  0  0  3  0  0  0  0  0  0
   -1.7470   -7.2700  -23.9550 C   0  0  0  0  0  0  0  0  0  0  0  0
   -1.1800   -6.5820  -22.8720 C   0  0  0  0  0  3  0  0  0  0  0  0
   -0.3990   -5.4490  -23.0830 C   0  0  0  0  0  3  0  0  0  0  0  0
   -0.1520   -5.0010  -24.3820 C   0  0  0  0  0  3  0  0  0  0  0  0
   -0.6750   -5.6800  -25.4810 C   0  0  0  0  0  0  0  0  0  0  0  0
   -1.5270   -6.7690  -25.2530 C   0  0  0  0  0  3  0  0  0  0  0  0
   -0.4240   -5.3400  -26.8250 N   0  0  0  0  0  0  0  0  0  0  0  0
    0.6340   -5.5930  -27.6670 C   0  0  0  0  0  0  0  0  0  0  0  0
    0.7170   -5.0150  -28.7500 O   0  0  0  0  0  0  0  0  0  0  0  0
   -1.1430   -4.8000  -27.2940 H   0  0  0  0  0  0  0  0  0  0  0  0
    1.6560   -6.6000  -27.3370 C   0  0  0  0  0  0  0  0  0  0  0  0
    2.7260   -6.7870  -28.2210 C   0  0  0  0  0  3  0  0  0  0  0  0
    3.7400   -7.6870  -27.8900 C   0  0  0  0  0  3  0  0  0  0  0  0
    3.6600   -8.4070  -26.6980 C   0  0  0  0  0  0  0  0  0  0  0  0
    4.6550   -9.2500  -26.3860 F   0  0  0  0  0  0  0  0  0  0  0  0
    2.5590   -8.2640  -25.8510 C   0  0  0  0  0  0  0  0  0  0  0  0
    1.5480   -7.3610  -26.1660 C   0  0  0  0  0  3  0  0  0  0  0  0
    2.4880   -9.0040  -24.7040 O   0  0  0  0  0  0  0  0  0  0  0  0
    1.5570   -9.0370  -24.4050 H   0  0  0  0  0  0  0  0  0  0  0  0
   -2.5560   -9.5560  -24.7220 N   0  0  0  0  0  0  0  0  0  0  0  0
   -3.0600   -9.3050  -25.5690 H   0  0  0  0  0  0  0  0  0  0  0  0
   -1.5060  -10.3690  -25.0750 C   0  0  0  0  0  0  0  0  0  0  0  0
   -1.1310  -10.1610  -26.3480 N   0  0  0  0  0  0  0  0  0  0  0  0
    0.0090  -10.7250  -26.7340 C   0  0  0  0  0  3  0  0  0  0  0  0
    0.8260  -11.4460  -25.9610 N   0  0  0  0  0  0  0  0  0  0  0  0
    0.4270  -11.7080  -24.6950 C   0  0  0  0  0  0  0  0  0  0  0  0
    1.2300  -12.4330  -23.7920 C   0  0  0  0  0  0  0  0  0  0  0  0
    0.7670  -12.7840  -22.5100 C   0  0  0  0  0  3  0  0  0  0  0  0
   -0.4980  -12.4080  -22.0940 C   0  0  0  0  0  3  0  0  0  0  0  0
   -1.2780  -11.6340  -22.9420 C   0  0  0  0  0  3  0  0  0  0  0  0
   -0.8110  -11.2400  -24.2200 C   0  0  0  0  0  0  0  0  0  0  0  0
    2.6440  -12.8090  -24.0860 C   0  0  0  0  0  0  0  0  0  0  0  0
    3.0250  -12.9440  -25.3880 N   0  0  0  0  0  0  0  0  0  0  0  0
    3.4520  -12.9590  -23.1740 O   0  0  0  0  0  0  0  0  0  0  0  0
    3.9810  -13.1780  -25.6080 H   0  0  0  0  0  0  0  0  0  0  0  0
    2.3780  -12.7300  -26.1430 H   0  0  0  0  0  0  0  0  0  0  0  0
  2  1  1  6  0  0  0
  3  2  1  0  0  0  0
  3  4  1  0  0  0  0
  5  4  2  0  0  0  0
  6  5  1  0  0  0  0
  7  8  1  0  0  0  0
  7  6  2  0  0  0  0
  8  3  2  0  0  0  0
  9  7  1  0  0  0  0
 10 13  1  0  0  0  0
 10  9  1  0  0  0  0
 11 10  2  0  0  0  0
 12  9  1  0  0  0  0
 13 19  1  0  0  0  0
 14 15  1  0  0  0  0
 14 13  2  0  0  0  0
 15 16  2  0  0  0  0
 16 17  1  0  0  0  0
 16 18  1  0  0  0  0
 18 20  1  0  0  0  0
 19 18  2  0  0  0  0
 20 21  1  0  0  0  0
 22  2  1  0  0  0  0
 23 22  1  0  0  0  0
 24 22  1  0  0  0  0
 24 33  1  0  0  0  0
 25 24  2  0  0  0  0
 26 25  1  0  0  0  0
 26 27  2  0  0  0  0
 27 28  1  0  0  0  0
 28 33  2  0  0  0  0
 28 29  1  0  0  0  0
 29 30  2  0  0  0  0
 30 31  1  0  0  0  0
 32 31  2  0  0  0  0
 33 32  1  0  0  0  0
 34 29  1  0  0  0  0
 34 36  2  0  0  0  0
 35 34  1  0  0  0  0
 37 35  1  0  0  0  0
 38 35  1  0  0  0  0
M  END
>  <minimizedAffinity>
-9.94023418

$$$$
