
 OpenBabel10152419303D

 38 41  0  0  1  0  0  0  0  0999 V2000
    2.7660   -8.8080  -25.1950 C   0  0  0  0  0  1  0  0  0  0  0  0
    3.6300   -9.4540  -26.2860 C   0  0  2  0  0  3  0  0  0  0  0  0
    3.4980   -8.6380  -27.5660 C   0  0  0  0  0  0  0  0  0  0  0  0
    3.9340   -9.1980  -28.7760 C   0  0  0  0  0  3  0  0  0  0  0  0
    3.8070   -8.4930  -29.9690 C   0  0  0  0  0  3  0  0  0  0  0  0
    3.2200   -7.2260  -29.9750 C   0  0  0  0  0  3  0  0  0  0  0  0
    2.7480   -6.6550  -28.7950 C   0  0  0  0  0  0  0  0  0  0  0  0
    2.9560   -7.3380  -27.5890 C   0  0  0  0  0  3  0  0  0  0  0  0
    2.0840   -5.4150  -28.7160 N   0  0  0  0  0  0  0  0  0  0  0  0
    0.9380   -5.0130  -28.0700 C   0  0  0  0  0  0  0  0  0  0  0  0
    0.4400   -3.9150  -28.3150 O   0  0  0  0  0  0  0  0  0  0  0  0
    2.5040   -4.6460  -29.2270 H   0  0  0  0  0  0  0  0  0  0  0  0
    0.3110   -5.8420  -27.0270 C   0  0  0  0  0  0  0  0  0  0  0  0
   -0.3870   -6.9930  -27.4110 C   0  0  0  0  0  3  0  0  0  0  0  0
   -0.9270   -7.8270  -26.4320 C   0  0  0  0  0  3  0  0  0  0  0  0
   -0.7880   -7.4890  -25.0860 C   0  0  0  0  0  0  0  0  0  0  0  0
   -1.2930   -8.3150  -24.1580 F   0  0  0  0  0  0  0  0  0  0  0  0
   -0.1440   -6.3080  -24.7100 C   0  0  0  0  0  0  0  0  0  0  0  0
    0.4070   -5.4740  -25.6780 C   0  0  0  0  0  3  0  0  0  0  0  0
   -0.0480   -5.9830  -23.3860 O   0  0  0  0  0  0  0  0  0  0  0  0
    0.1220   -5.0230  -23.3070 H   0  0  0  0  0  0  0  0  0  0  0  0
    3.2870  -10.8780  -26.3790 N   0  0  0  0  0  0  0  0  0  0  0  0
    3.9690  -11.4380  -26.8840 H   0  0  0  0  0  0  0  0  0  0  0  0
    2.7220  -11.6680  -25.4070 C   0  0  0  0  0  0  0  0  0  0  0  0
    3.6570  -12.3330  -24.7100 N   0  0  0  0  0  0  0  0  0  0  0  0
    3.2500  -12.9530  -23.6070 C   0  0  0  0  0  3  0  0  0  0  0  0
    2.0070  -12.9430  -23.1170 N   0  0  0  0  0  0  0  0  0  0  0  0
    1.0490  -12.3240  -23.8430 C   0  0  0  0  0  0  0  0  0  0  0  0
   -0.2850  -12.2300  -23.3990 C   0  0  0  0  0  0  0  0  0  0  0  0
   -1.2940  -11.6700  -24.2040 C   0  0  0  0  0  3  0  0  0  0  0  0
   -0.9950  -11.1770  -25.4620 C   0  0  0  0  0  3  0  0  0  0  0  0
    0.3250  -11.1960  -25.8900 C   0  0  0  0  0  3  0  0  0  0  0  0
    1.3590  -11.7210  -25.0760 C   0  0  0  0  0  0  0  0  0  0  0  0
   -0.7120  -12.6360  -22.0270 C   0  0  0  0  0  0  0  0  0  0  0  0
   -2.0450  -12.6770  -21.7460 N   0  0  0  0  0  0  0  0  0  0  0  0
    0.1210  -12.9590  -21.1850 O   0  0  0  0  0  0  0  0  0  0  0  0
   -2.3550  -12.9680  -20.8310 H   0  0  0  0  0  0  0  0  0  0  0  0
   -2.7350  -12.4970  -22.4720 H   0  0  0  0  0  0  0  0  0  0  0  0
  2  1  1  1  0  0  0
  3  2  1  0  0  0  0
  4  3  2  0  0  0  0
  5  4  1  0  0  0  0
  6  5  2  0  0  0  0
  6  7  1  0  0  0  0
  7  9  1  0  0  0  0
  7  8  2  0  0  0  0
  8  3  1  0  0  0  0
  9 10  1  0  0  0  0
 10 13  1  0  0  0  0
 11 10  2  0  0  0  0
 12  9  1  0  0  0  0
 13 19  1  0  0  0  0
 14 13  2  0  0  0  0
 14 15  1  0  0  0  0
 15 16  2  0  0  0  0
 16 18  1  0  0  0  0
 16 17  1  0  0  0  0
 18 20  1  0  0  0  0
 19 18  2  0  0  0  0
 20 21  1  0  0  0  0
 22  2  1  0  0  0  0
 22 24  1  0  0  0  0
 23 22  1  0  0  0  0
 24 33  2  0  0  0  0
 24 25  1  0  0  0  0
 25 26  2  0  0  0  0
 26 27  1  0  0  0  0
 28 29  1  0  0  0  0
 28 27  2  0  0  0  0
 29 34  1  0  0  0  0
 30 29  2  0  0  0  0
 31 30  1  0  0  0  0
 32 31  2  0  0  0  0
 32 33  1  0  0  0  0
 33 28  1  0  0  0  0
 34 35  1  0  0  0  0
 34 36  2  0  0  0  0
 35 37  1  0  0  0  0
 38 35  1  0  0  0  0
M  END
>  <minimizedAffinity>
-10.0544176

$$$$
