
 OpenBabel10152419303D

 38 41  0  0  1  0  0  0  0  0999 V2000
   -0.7640   -9.8020  -26.1990 C   0  0  0  0  0  1  0  0  0  0  0  0
    0.7350   -9.8940  -25.8860 C   0  0  2  0  0  3  0  0  0  0  0  0
    0.9550  -10.9920  -24.8520 C   0  0  0  0  0  0  0  0  0  0  0  0
    2.2590  -11.4510  -24.6180 C   0  0  0  0  0  3  0  0  0  0  0  0
    2.5030  -12.4350  -23.6640 C   0  0  0  0  0  3  0  0  0  0  0  0
    1.4500  -12.9580  -22.9120 C   0  0  0  0  0  3  0  0  0  0  0  0
    0.1460  -12.5000  -23.0980 C   0  0  0  0  0  0  0  0  0  0  0  0
   -0.0980  -11.5700  -24.1180 C   0  0  0  0  0  3  0  0  0  0  0  0
   -0.9650  -12.9200  -22.3410 N   0  0  0  0  0  0  0  0  0  0  0  0
   -1.8240  -12.2520  -21.4990 C   0  0  0  0  0  0  0  0  0  0  0  0
   -2.6060  -12.8780  -20.7860 O   0  0  0  0  0  0  0  0  0  0  0  0
   -1.2060  -13.9030  -22.4040 H   0  0  0  0  0  0  0  0  0  0  0  0
   -1.8840  -10.7810  -21.4700 C   0  0  0  0  0  0  0  0  0  0  0  0
   -1.3660  -10.1080  -20.3560 C   0  0  0  0  0  3  0  0  0  0  0  0
   -1.3510   -8.7130  -20.3440 C   0  0  0  0  0  3  0  0  0  0  0  0
   -1.8760   -8.0080  -21.4270 C   0  0  0  0  0  0  0  0  0  0  0  0
   -1.8310   -6.6680  -21.4070 F   0  0  0  0  0  0  0  0  0  0  0  0
   -2.4470   -8.6830  -22.5080 C   0  0  0  0  0  0  0  0  0  0  0  0
   -2.4580  -10.0750  -22.5360 C   0  0  0  0  0  3  0  0  0  0  0  0
   -2.9830   -7.9700  -23.5430 O   0  0  0  0  0  0  0  0  0  0  0  0
   -3.6060   -8.5430  -24.0340 H   0  0  0  0  0  0  0  0  0  0  0  0
    1.2280   -8.5570  -25.5370 N   0  0  0  0  0  0  0  0  0  0  0  0
    2.1960   -8.3880  -25.8000 H   0  0  0  0  0  0  0  0  0  0  0  0
    0.5490   -7.3660  -25.6240 C   0  0  0  0  0  0  0  0  0  0  0  0
   -0.1660   -7.1270  -24.5130 N   0  0  0  0  0  0  0  0  0  0  0  0
   -0.6850   -5.9090  -24.3870 C   0  0  0  0  0  3  0  0  0  0  0  0
   -0.5290   -4.9000  -25.2490 N   0  0  0  0  0  0  0  0  0  0  0  0
    0.1410   -5.1500  -26.3970 C   0  0  0  0  0  0  0  0  0  0  0  0
    0.3860   -4.1460  -27.3550 C   0  0  0  0  0  0  0  0  0  0  0  0
    0.9970   -4.4370  -28.5890 C   0  0  0  0  0  3  0  0  0  0  0  0
    1.3920   -5.7280  -28.8900 C   0  0  0  0  0  3  0  0  0  0  0  0
    1.2230   -6.7180  -27.9320 C   0  0  0  0  0  3  0  0  0  0  0  0
    0.6450   -6.4350  -26.6700 C   0  0  0  0  0  0  0  0  0  0  0  0
    0.0960   -2.7030  -27.1090 C   0  0  0  0  0  0  0  0  0  0  0  0
   -1.0880   -2.3670  -26.5240 N   0  0  0  0  0  0  0  0  0  0  0  0
    0.9250   -1.8430  -27.3960 O   0  0  0  0  0  0  0  0  0  0  0  0
   -1.2930   -1.3980  -26.3310 H   0  0  0  0  0  0  0  0  0  0  0  0
   -1.7320   -3.0860  -26.2040 H   0  0  0  0  0  0  0  0  0  0  0  0
  2  1  1  1  0  0  0
  2 22  1  0  0  0  0
  2  3  1  0  0  0  0
  3  4  2  0  0  0  0
  3  8  1  0  0  0  0
  4  5  1  0  0  0  0
  5  6  2  0  0  0  0
  7  6  1  0  0  0  0
  7  9  1  0  0  0  0
  8  7  2  0  0  0  0
  9 10  1  0  0  0  0
 10 13  1  0  0  0  0
 10 11  2  0  0  0  0
 12  9  1  0  0  0  0
 13 14  1  0  0  0  0
 14 15  2  0  0  0  0
 16 17  1  0  0  0  0
 16 15  1  0  0  0  0
 18 16  2  0  0  0  0
 19 18  1  0  0  0  0
 19 13  2  0  0  0  0
 20 18  1  0  0  0  0
 21 20  1  0  0  0  0
 23 22  1  0  0  0  0
 24 22  1  0  0  0  0
 24 25  1  0  0  0  0
 25 26  2  0  0  0  0
 27 26  1  0  0  0  0
 28 27  2  0  0  0  0
 29 34  1  0  0  0  0
 29 28  1  0  0  0  0
 30 29  2  0  0  0  0
 31 30  1  0  0  0  0
 31 32  2  0  0  0  0
 32 33  1  0  0  0  0
 33 28  1  0  0  0  0
 33 24  2  0  0  0  0
 34 35  1  0  0  0  0
 35 37  1  0  0  0  0
 35 38  1  0  0  0  0
 36 34  2  0  0  0  0
M  END
>  <minimizedAffinity>
-9.76350975

$$$$
