
 OpenBabel10152419303D

 38 41  0  0  1  0  0  0  0  0999 V2000
   -0.4580  -10.5100  -25.6020 C   0  0  0  0  0  1  0  0  0  0  0  0
    0.6050  -11.0610  -24.6440 C   0  0  2  0  0  3  0  0  0  0  0  0
   -0.0560  -11.3890  -23.3100 C   0  0  0  0  0  0  0  0  0  0  0  0
    0.2000  -12.6330  -22.7140 C   0  0  0  0  0  3  0  0  0  0  0  0
   -0.3670  -12.9590  -21.4850 C   0  0  0  0  0  3  0  0  0  0  0  0
   -1.1790  -12.0380  -20.8220 C   0  0  0  0  0  3  0  0  0  0  0  0
   -1.4280  -10.7820  -21.3720 C   0  0  0  0  0  0  0  0  0  0  0  0
   -0.9200  -10.4960  -22.6470 C   0  0  0  0  0  3  0  0  0  0  0  0
   -2.1770   -9.7670  -20.7450 N   0  0  0  0  0  0  0  0  0  0  0  0
   -2.4210   -8.4530  -21.0720 C   0  0  0  0  0  0  0  0  0  0  0  0
   -2.9470   -7.6980  -20.2550 O   0  0  0  0  0  0  0  0  0  0  0  0
   -2.6390  -10.0200  -19.8790 H   0  0  0  0  0  0  0  0  0  0  0  0
   -2.1250   -7.9260  -22.4150 C   0  0  0  0  0  0  0  0  0  0  0  0
   -2.9340   -8.3230  -23.4860 C   0  0  0  0  0  3  0  0  0  0  0  0
   -2.7120   -7.7790  -24.7510 C   0  0  0  0  0  3  0  0  0  0  0  0
   -1.6710   -6.8700  -24.9380 C   0  0  0  0  0  0  0  0  0  0  0  0
   -1.4880   -6.3400  -26.1560 F   0  0  0  0  0  0  0  0  0  0  0  0
   -0.8280   -6.5250  -23.8790 C   0  0  0  0  0  0  0  0  0  0  0  0
   -1.0470   -7.0530  -22.6110 C   0  0  0  0  0  3  0  0  0  0  0  0
    0.2040   -5.6550  -24.0930 O   0  0  0  0  0  0  0  0  0  0  0  0
    0.8650   -5.7660  -23.3820 H   0  0  0  0  0  0  0  0  0  0  0  0
    1.7340  -10.1240  -24.6010 N   0  0  0  0  0  0  0  0  0  0  0  0
    2.2080  -10.0840  -23.7020 H   0  0  0  0  0  0  0  0  0  0  0  0
    2.6630   -9.8880  -25.5850 C   0  0  0  0  0  0  0  0  0  0  0  0
    3.5550  -10.8890  -25.6680 N   0  0  0  0  0  0  0  0  0  0  0  0
    4.3640  -10.8810  -26.7230 C   0  0  0  0  0  3  0  0  0  0  0  0
    4.3440   -9.9890  -27.7170 N   0  0  0  0  0  0  0  0  0  0  0  0
    3.4890   -8.9460  -27.6110 C   0  0  0  0  0  0  0  0  0  0  0  0
    3.3700   -7.9700  -28.6200 C   0  0  0  0  0  0  0  0  0  0  0  0
    2.5500   -6.8380  -28.4590 C   0  0  0  0  0  3  0  0  0  0  0  0
    1.8180   -6.6610  -27.2980 C   0  0  0  0  0  3  0  0  0  0  0  0
    1.8680   -7.6460  -26.3210 C   0  0  0  0  0  3  0  0  0  0  0  0
    2.6580   -8.8100  -26.4850 C   0  0  0  0  0  0  0  0  0  0  0  0
    4.0300   -8.0970  -29.9530 C   0  0  0  0  0  0  0  0  0  0  0  0
    4.0790   -9.3260  -30.5410 N   0  0  0  0  0  0  0  0  0  0  0  0
    4.4850   -7.1080  -30.5200 O   0  0  0  0  0  0  0  0  0  0  0  0
    4.5030   -9.4290  -31.4510 H   0  0  0  0  0  0  0  0  0  0  0  0
    3.6210  -10.1260  -30.1120 H   0  0  0  0  0  0  0  0  0  0  0  0
  2  1  1  6  0  0  0
  2 22  1  0  0  0  0
  2  3  1  0  0  0  0
  3  4  2  0  0  0  0
  3  8  1  0  0  0  0
  4  5  1  0  0  0  0
  5  6  2  0  0  0  0
  7  6  1  0  0  0  0
  7  9  1  0  0  0  0
  8  7  2  0  0  0  0
  9 12  1  0  0  0  0
 10  9  1  0  0  0  0
 10 11  2  0  0  0  0
 13 10  1  0  0  0  0
 14 13  2  0  0  0  0
 15 14  1  0  0  0  0
 16 15  2  0  0  0  0
 16 18  1  0  0  0  0
 17 16  1  0  0  0  0
 18 19  2  0  0  0  0
 19 13  1  0  0  0  0
 20 18  1  0  0  0  0
 20 21  1  0  0  0  0
 22 23  1  0  0  0  0
 24 22  1  0  0  0  0
 25 24  1  0  0  0  0
 26 25  2  0  0  0  0
 27 28  2  0  0  0  0
 27 26  1  0  0  0  0
 28 33  1  0  0  0  0
 29 30  2  0  0  0  0
 29 28  1  0  0  0  0
 30 31  1  0  0  0  0
 31 32  2  0  0  0  0
 33 32  1  0  0  0  0
 33 24  2  0  0  0  0
 34 29  1  0  0  0  0
 35 38  1  0  0  0  0
 35 34  1  0  0  0  0
 36 34  2  0  0  0  0
 37 35  1  0  0  0  0
M  END
>  <minimizedAffinity>
-10.1171188

$$$$
