
 OpenBabel10152419303D

 38 41  0  0  1  0  0  0  0  0999 V2000
   -1.1850  -10.5740  -24.4650 C   0  0  0  0  0  1  0  0  0  0  0  0
    0.1020   -9.8820  -24.9310 C   0  0  2  0  0  3  0  0  0  0  0  0
    1.2310  -10.9060  -24.9540 C   0  0  0  0  0  0  0  0  0  0  0  0
    1.5390  -11.6020  -23.7750 C   0  0  0  0  0  3  0  0  0  0  0  0
    2.5470  -12.5620  -23.7630 C   0  0  0  0  0  3  0  0  0  0  0  0
    3.2460  -12.8590  -24.9340 C   0  0  0  0  0  3  0  0  0  0  0  0
    2.9430  -12.2070  -26.1290 C   0  0  0  0  0  0  0  0  0  0  0  0
    1.9840  -11.1850  -26.1100 C   0  0  0  0  0  3  0  0  0  0  0  0
    3.5480  -12.4880  -27.3690 N   0  0  0  0  0  0  0  0  0  0  0  0
    3.9650  -11.6840  -28.4050 C   0  0  0  0  0  0  0  0  0  0  0  0
    4.2850  -12.1790  -29.4850 O   0  0  0  0  0  0  0  0  0  0  0  0
    3.7220  -13.4660  -27.5740 H   0  0  0  0  0  0  0  0  0  0  0  0
    4.1060  -10.2270  -28.2390 C   0  0  0  0  0  0  0  0  0  0  0  0
    4.4720   -9.7250  -26.9840 C   0  0  0  0  0  3  0  0  0  0  0  0
    4.6790   -8.3540  -26.8280 C   0  0  0  0  0  3  0  0  0  0  0  0
    4.4920   -7.5010  -27.9150 C   0  0  0  0  0  0  0  0  0  0  0  0
    4.7180   -6.1890  -27.7510 F   0  0  0  0  0  0  0  0  0  0  0  0
    4.0670   -7.9990  -29.1480 C   0  0  0  0  0  0  0  0  0  0  0  0
    3.8680   -9.3660  -29.3180 C   0  0  0  0  0  3  0  0  0  0  0  0
    3.8600   -7.1390  -30.1900 O   0  0  0  0  0  0  0  0  0  0  0  0
    3.2780   -7.5710  -30.8470 H   0  0  0  0  0  0  0  0  0  0  0  0
    0.3200   -8.6860  -24.1090 N   0  0  0  0  0  0  0  0  0  0  0  0
    1.2690   -8.5910  -23.7540 H   0  0  0  0  0  0  0  0  0  0  0  0
   -0.1850   -7.4250  -24.3160 C   0  0  0  0  0  0  0  0  0  0  0  0
   -0.5420   -6.8430  -23.1600 N   0  0  0  0  0  0  0  0  0  0  0  0
   -0.8350   -5.5480  -23.2090 C   0  0  0  0  0  3  0  0  0  0  0  0
   -0.7720   -4.7730  -24.2960 N   0  0  0  0  0  0  0  0  0  0  0  0
   -0.4700   -5.3630  -25.4740 C   0  0  0  0  0  0  0  0  0  0  0  0
   -0.3480   -4.6290  -26.6710 C   0  0  0  0  0  0  0  0  0  0  0  0
   -0.1300   -5.2630  -27.9080 C   0  0  0  0  0  3  0  0  0  0  0  0
   -0.0110   -6.6400  -27.9790 C   0  0  0  0  0  3  0  0  0  0  0  0
   -0.0590   -7.3750  -26.8030 C   0  0  0  0  0  3  0  0  0  0  0  0
   -0.2390   -6.7490  -25.5450 C   0  0  0  0  0  0  0  0  0  0  0  0
   -0.3590   -3.1360  -26.7100 C   0  0  0  0  0  0  0  0  0  0  0  0
   -1.2290   -2.4700  -25.9000 N   0  0  0  0  0  0  0  0  0  0  0  0
    0.4250   -2.5260  -27.4320 O   0  0  0  0  0  0  0  0  0  0  0  0
   -1.2380   -1.4610  -25.8980 H   0  0  0  0  0  0  0  0  0  0  0  0
   -1.8130   -2.9740  -25.2370 H   0  0  0  0  0  0  0  0  0  0  0  0
  2  1  1  1  0  0  0
  2 22  1  0  0  0  0
  3  2  1  0  0  0  0
  3  4  1  0  0  0  0
  4  5  2  0  0  0  0
  6  5  1  0  0  0  0
  7  8  1  0  0  0  0
  7  6  2  0  0  0  0
  8  3  2  0  0  0  0
  9  7  1  0  0  0  0
 10 13  1  0  0  0  0
 10  9  1  0  0  0  0
 11 10  2  0  0  0  0
 12  9  1  0  0  0  0
 13 14  1  0  0  0  0
 14 15  2  0  0  0  0
 16 17  1  0  0  0  0
 16 15  1  0  0  0  0
 18 16  2  0  0  0  0
 19 18  1  0  0  0  0
 19 13  2  0  0  0  0
 20 18  1  0  0  0  0
 21 20  1  0  0  0  0
 22 23  1  0  0  0  0
 24 22  1  0  0  0  0
 24 25  1  0  0  0  0
 26 25  2  0  0  0  0
 27 26  1  0  0  0  0
 28 27  2  0  0  0  0
 29 28  1  0  0  0  0
 30 29  2  0  0  0  0
 31 30  1  0  0  0  0
 31 32  2  0  0  0  0
 32 33  1  0  0  0  0
 33 28  1  0  0  0  0
 33 24  2  0  0  0  0
 34 29  1  0  0  0  0
 34 35  1  0  0  0  0
 35 37  1  0  0  0  0
 35 38  1  0  0  0  0
 36 34  2  0  0  0  0
M  END
>  <minimizedAffinity>
-9.34099293

$$$$
