
 OpenBabel10152419343D

 39 42  0  0  1  0  0  0  0  0999 V2000
   -1.1400   -6.4470  -26.7890 C   0  0  2  0  0  3  0  0  0  0  0  0
   -0.9110   -6.3010  -25.2870 C   0  0  0  0  0  0  0  0  0  0  0  0
    0.2320   -5.6210  -24.8380 C   0  0  0  0  0  3  0  0  0  0  0  0
    0.4540   -5.4350  -23.4770 C   0  0  0  0  0  3  0  0  0  0  0  0
   -0.4780   -5.8980  -22.5460 C   0  0  0  0  0  3  0  0  0  0  0  0
   -1.6390   -6.5460  -22.9620 C   0  0  0  0  0  0  0  0  0  0  0  0
   -1.8040   -6.8140  -24.3270 C   0  0  0  0  0  3  0  0  0  0  0  0
   -2.6780   -6.9620  -22.1070 N   0  0  0  0  0  0  0  0  0  0  0  0
   -3.0740   -8.2020  -21.6570 C   0  0  0  0  0  0  0  0  0  0  0  0
   -4.1330   -8.3260  -21.0450 O   0  0  0  0  0  0  0  0  0  0  0  0
   -3.2620   -6.2310  -21.7170 H   0  0  0  0  0  0  0  0  0  0  0  0
   -2.2290   -9.3930  -21.8450 C   0  0  0  0  0  0  0  0  0  0  0  0
   -2.0640   -9.8990  -23.1390 C   0  0  0  0  0  3  0  0  0  0  0  0
   -1.1970  -10.9720  -23.3520 C   0  0  0  0  0  3  0  0  0  0  0  0
   -0.5230  -11.5440  -22.2700 C   0  0  0  0  0  0  0  0  0  0  0  0
    0.6940  -12.9590  -22.5710 Br  0  0  0  0  0  0  0  0  0  0  0  0
   -0.7300  -11.0760  -20.9720 C   0  0  0  0  0  3  0  0  0  0  0  0
   -1.5950  -10.0010  -20.7550 C   0  0  0  0  0  3  0  0  0  0  0  0
   -0.3750   -7.5180  -27.4450 N   0  0  0  0  0  0  0  0  0  0  0  0
    0.2090   -7.2110  -28.2180 H   0  0  0  0  0  0  0  0  0  0  0  0
    0.2770   -8.5730  -26.8490 C   0  0  0  0  0  0  0  0  0  0  0  0
   -0.5900   -9.5410  -26.5130 N   0  0  0  0  0  0  0  0  0  0  0  0
   -0.0670  -10.7050  -26.1380 C   0  0  0  0  0  3  0  0  0  0  0  0
    1.2350  -10.9990  -26.0990 N   0  0  0  0  0  0  0  0  0  0  0  0
    2.1170  -10.0110  -26.3720 C   0  0  0  0  0  0  0  0  0  0  0  0
    3.5080  -10.2320  -26.3670 C   0  0  0  0  0  0  0  0  0  0  0  0
    4.4200   -9.1800  -26.5780 C   0  0  0  0  0  3  0  0  0  0  0  0
    3.9650   -7.8900  -26.7990 C   0  0  0  0  0  3  0  0  0  0  0  0
    2.5980   -7.6620  -26.8560 C   0  0  0  0  0  3  0  0  0  0  0  0
    1.6660   -8.7170  -26.6920 C   0  0  0  0  0  0  0  0  0  0  0  0
    4.1210  -11.5880  -26.1930 C   0  0  0  0  0  0  0  0  0  0  0  0
    4.1860  -12.1200  -24.9400 N   0  0  0  0  0  0  0  0  0  0  0  0
    4.5270  -12.2320  -27.1540 O   0  0  0  0  0  0  0  0  0  0  0  0
    4.5690  -13.0450  -24.8140 H   0  0  0  0  0  0  0  0  0  0  0  0
    3.8440  -11.6030  -24.1350 H   0  0  0  0  0  0  0  0  0  0  0  0
   -0.8310   -5.0890  -27.4520 C   0  0  0  0  0  2  0  0  0  0  0  0
    0.5610   -4.9640  -28.0680 C   0  0  0  0  0  2  0  0  0  0  0  0
    0.4920   -2.6270  -27.5480 C   0  0  0  0  0  1  0  0  0  0  0  0
    0.8610   -3.6340  -28.4810 O   0  0  0  0  0  0  0  0  0  0  0  0
  1 36  1  6  0  0  0
  1  2  1  0  0  0  0
  2  3  2  0  0  0  0
  2  7  1  0  0  0  0
  3  4  1  0  0  0  0
  4  5  2  0  0  0  0
  6  5  1  0  0  0  0
  6  8  1  0  0  0  0
  7  6  2  0  0  0  0
  8 11  1  0  0  0  0
  8  9  1  0  0  0  0
  9 10  2  0  0  0  0
 12  9  1  0  0  0  0
 12 18  1  0  0  0  0
 13 12  2  0  0  0  0
 14 13  1  0  0  0  0
 14 15  2  0  0  0  0
 15 17  1  0  0  0  0
 16 15  1  0  0  0  0
 17 18  2  0  0  0  0
 19 21  1  0  0  0  0
 19  1  1  0  0  0  0
 20 19  1  0  0  0  0
 21 30  2  0  0  0  0
 21 22  1  0  0  0  0
 22 23  2  0  0  0  0
 23 24  1  0  0  0  0
 25 26  1  0  0  0  0
 25 24  2  0  0  0  0
 26 31  1  0  0  0  0
 27 26  2  0  0  0  0
 28 27  1  0  0  0  0
 29 28  2  0  0  0  0
 29 30  1  0  0  0  0
 30 25  1  0  0  0  0
 31 32  1  0  0  0  0
 32 34  1  0  0  0  0
 32 35  1  0  0  0  0
 33 31  2  0  0  0  0
 37 36  1  0  0  0  0
 39 37  1  0  0  0  0
 39 38  1  0  0  0  0
M  END
>  <minimizedAffinity>
-6.67205334

$$$$
