
 OpenBabel10152419343D

 39 42  0  0  1  0  0  0  0  0999 V2000
    3.1780  -11.7380  -26.2090 C   0  0  2  0  0  3  0  0  0  0  0  0
    1.7040  -11.7090  -25.8080 C   0  0  0  0  0  0  0  0  0  0  0  0
    0.7490  -11.3240  -26.7620 C   0  0  0  0  0  3  0  0  0  0  0  0
   -0.6050  -11.3230  -26.4440 C   0  0  0  0  0  3  0  0  0  0  0  0
   -1.0280  -11.7370  -25.1790 C   0  0  0  0  0  3  0  0  0  0  0  0
   -0.1060  -12.1570  -24.2220 C   0  0  0  0  0  0  0  0  0  0  0  0
    1.2590  -12.0620  -24.5200 C   0  0  0  0  0  3  0  0  0  0  0  0
   -0.4430  -12.6790  -22.9580 N   0  0  0  0  0  0  0  0  0  0  0  0
   -0.8230  -12.0840  -21.7760 C   0  0  0  0  0  0  0  0  0  0  0  0
   -0.8970  -12.7510  -20.7460 O   0  0  0  0  0  0  0  0  0  0  0  0
   -0.4230  -13.6890  -22.8670 H   0  0  0  0  0  0  0  0  0  0  0  0
   -1.2000  -10.6620  -21.7190 C   0  0  0  0  0  0  0  0  0  0  0  0
   -1.2990  -10.0460  -20.4670 C   0  0  0  0  0  3  0  0  0  0  0  0
   -1.5680   -8.6780  -20.3930 C   0  0  0  0  0  3  0  0  0  0  0  0
   -1.7590   -7.9450  -21.5670 C   0  0  0  0  0  0  0  0  0  0  0  0
   -2.0650   -6.0820  -21.4640 Br  0  0  0  0  0  0  0  0  0  0  0  0
   -1.7150   -8.5700  -22.8140 C   0  0  0  0  0  3  0  0  0  0  0  0
   -1.4450   -9.9380  -22.8910 C   0  0  0  0  0  3  0  0  0  0  0  0
    3.9160  -10.4840  -25.9970 N   0  0  0  0  0  0  0  0  0  0  0  0
    4.9240  -10.5910  -25.9350 H   0  0  0  0  0  0  0  0  0  0  0  0
    3.6790   -9.2600  -26.5780 C   0  0  0  0  0  0  0  0  0  0  0  0
    4.4550   -9.0880  -27.6610 N   0  0  0  0  0  0  0  0  0  0  0  0
    4.1660   -8.0520  -28.4420 C   0  0  0  0  0  3  0  0  0  0  0  0
    3.1590   -7.1930  -28.2600 N   0  0  0  0  0  0  0  0  0  0  0  0
    2.4140   -7.3190  -27.1380 C   0  0  0  0  0  0  0  0  0  0  0  0
    1.3250   -6.4680  -26.8680 C   0  0  0  0  0  0  0  0  0  0  0  0
    0.6020   -6.5590  -25.6630 C   0  0  0  0  0  3  0  0  0  0  0  0
    0.9500   -7.4970  -24.7050 C   0  0  0  0  0  3  0  0  0  0  0  0
    1.9880   -8.3770  -24.9740 C   0  0  0  0  0  3  0  0  0  0  0  0
    2.6960   -8.3310  -26.2010 C   0  0  0  0  0  0  0  0  0  0  0  0
    0.8200   -5.4510  -27.8450 C   0  0  0  0  0  0  0  0  0  0  0  0
    1.6980   -4.5420  -28.3540 N   0  0  0  0  0  0  0  0  0  0  0  0
   -0.3500   -5.4470  -28.2140 O   0  0  0  0  0  0  0  0  0  0  0  0
    1.3760   -3.8710  -29.0360 H   0  0  0  0  0  0  0  0  0  0  0  0
    2.6730   -4.5400  -28.0670 H   0  0  0  0  0  0  0  0  0  0  0  0
    3.2590  -12.1610  -27.6900 C   0  0  0  0  0  2  0  0  0  0  0  0
    4.6440  -12.5860  -28.1740 C   0  0  0  0  0  2  0  0  0  0  0  0
    4.3080  -11.5260  -30.2940 C   0  0  0  0  0  1  0  0  0  0  0  0
    4.7220  -12.6900  -29.5920 O   0  0  0  0  0  0  0  0  0  0  0  0
  1 36  1  6  0  0  0
  1 19  1  0  0  0  0
  1  2  1  0  0  0  0
  2  7  1  0  0  0  0
  3  4  1  0  0  0  0
  3  2  2  0  0  0  0
  4  5  2  0  0  0  0
  5  6  1  0  0  0  0
  6  8  1  0  0  0  0
  7  6  2  0  0  0  0
  8 11  1  0  0  0  0
  8  9  1  0  0  0  0
  9 12  1  0  0  0  0
  9 10  2  0  0  0  0
 12 13  1  0  0  0  0
 13 14  2  0  0  0  0
 15 16  1  0  0  0  0
 15 14  1  0  0  0  0
 17 15  2  0  0  0  0
 18 17  1  0  0  0  0
 18 12  2  0  0  0  0
 19 20  1  0  0  0  0
 21 30  1  0  0  0  0
 21 19  1  0  0  0  0
 22 21  2  0  0  0  0
 23 24  2  0  0  0  0
 23 22  1  0  0  0  0
 24 25  1  0  0  0  0
 25 26  2  0  0  0  0
 25 30  1  0  0  0  0
 26 27  1  0  0  0  0
 27 28  2  0  0  0  0
 29 28  1  0  0  0  0
 30 29  2  0  0  0  0
 31 26  1  0  0  0  0
 32 35  1  0  0  0  0
 32 31  1  0  0  0  0
 33 31  2  0  0  0  0
 34 32  1  0  0  0  0
 37 36  1  0  0  0  0
 38 39  1  0  0  0  0
 39 37  1  0  0  0  0
M  END
>  <minimizedAffinity>
-8.06993008

$$$$
