
 OpenBabel10152419343D

 39 42  0  0  1  0  0  0  0  0999 V2000
    1.1820  -11.9120  -25.3700 C   0  0  2  0  0  3  0  0  0  0  0  0
    1.6250  -10.4520  -25.4330 C   0  0  0  0  0  0  0  0  0  0  0  0
    1.7410   -9.7260  -24.2370 C   0  0  0  0  0  3  0  0  0  0  0  0
    2.1790   -8.4060  -24.2520 C   0  0  0  0  0  3  0  0  0  0  0  0
    2.5380   -7.8010  -25.4590 C   0  0  0  0  0  3  0  0  0  0  0  0
    2.4660   -8.5070  -26.6580 C   0  0  0  0  0  0  0  0  0  0  0  0
    1.9330   -9.8020  -26.6430 C   0  0  0  0  0  3  0  0  0  0  0  0
    2.8950   -8.0150  -27.9070 N   0  0  0  0  0  0  0  0  0  0  0  0
    2.4690   -6.9660  -28.6900 C   0  0  0  0  0  0  0  0  0  0  0  0
    2.8940   -6.8400  -29.8370 O   0  0  0  0  0  0  0  0  0  0  0  0
    3.6760   -8.4960  -28.3380 H   0  0  0  0  0  0  0  0  0  0  0  0
    1.5450   -5.9440  -28.1690 C   0  0  0  0  0  0  0  0  0  0  0  0
    0.4350   -6.3620  -27.4270 C   0  0  0  0  0  3  0  0  0  0  0  0
   -0.4030   -5.4070  -26.8490 C   0  0  0  0  0  3  0  0  0  0  0  0
   -0.1410   -4.0480  -27.0370 C   0  0  0  0  0  0  0  0  0  0  0  0
   -1.2450   -2.7600  -26.2040 Br  0  0  0  0  0  0  0  0  0  0  0  0
    0.9350   -3.6310  -27.8230 C   0  0  0  0  0  3  0  0  0  0  0  0
    1.7770   -4.5830  -28.4010 C   0  0  0  0  0  3  0  0  0  0  0  0
   -0.2120  -12.1330  -24.9560 N   0  0  0  0  0  0  0  0  0  0  0  0
   -0.5650  -13.0680  -25.1390 H   0  0  0  0  0  0  0  0  0  0  0  0
   -0.8290  -11.6910  -23.8100 C   0  0  0  0  0  0  0  0  0  0  0  0
   -0.7500  -12.6140  -22.8380 N   0  0  0  0  0  0  0  0  0  0  0  0
   -1.1040  -12.2250  -21.6170 C   0  0  0  0  0  3  0  0  0  0  0  0
   -1.4990  -10.9970  -21.2720 N   0  0  0  0  0  0  0  0  0  0  0  0
   -1.6460  -10.0790  -22.2550 C   0  0  0  0  0  0  0  0  0  0  0  0
   -2.0460   -8.7560  -21.9840 C   0  0  0  0  0  0  0  0  0  0  0  0
   -2.2680   -7.8300  -23.0210 C   0  0  0  0  0  3  0  0  0  0  0  0
   -2.0970   -8.2010  -24.3440 C   0  0  0  0  0  3  0  0  0  0  0  0
   -1.6560   -9.4860  -24.6280 C   0  0  0  0  0  3  0  0  0  0  0  0
   -1.3820  -10.4170  -23.5950 C   0  0  0  0  0  0  0  0  0  0  0  0
   -2.2120   -8.2190  -20.5960 C   0  0  0  0  0  0  0  0  0  0  0  0
   -3.3890   -7.6160  -20.2650 N   0  0  0  0  0  0  0  0  0  0  0  0
   -1.3300   -8.3450  -19.7530 O   0  0  0  0  0  0  0  0  0  0  0  0
   -3.5240   -7.2770  -19.3240 H   0  0  0  0  0  0  0  0  0  0  0  0
   -4.1340   -7.5150  -20.9490 H   0  0  0  0  0  0  0  0  0  0  0  0
    2.1440  -12.6600  -24.4230 C   0  0  0  0  0  2  0  0  0  0  0  0
    3.5490  -12.8970  -24.9730 C   0  0  0  0  0  2  0  0  0  0  0  0
    4.6560  -12.2530  -26.9960 C   0  0  0  0  0  1  0  0  0  0  0  0
    3.5790  -12.9590  -26.3950 O   0  0  0  0  0  0  0  0  0  0  0  0
  1 19  1  0  0  0  0
  1 36  1  1  0  0  0
  2  1  1  0  0  0  0
  2  3  1  0  0  0  0
  4  3  2  0  0  0  0
  5  4  1  0  0  0  0
  6  7  1  0  0  0  0
  6  5  2  0  0  0  0
  7  2  2  0  0  0  0
  8  6  1  0  0  0  0
  9 12  1  0  0  0  0
  9  8  1  0  0  0  0
 10  9  2  0  0  0  0
 11  8  1  0  0  0  0
 12 13  1  0  0  0  0
 13 14  2  0  0  0  0
 15 14  1  0  0  0  0
 15 16  1  0  0  0  0
 17 15  2  0  0  0  0
 18 12  2  0  0  0  0
 18 17  1  0  0  0  0
 19 21  1  0  0  0  0
 20 19  1  0  0  0  0
 21 30  2  0  0  0  0
 21 22  1  0  0  0  0
 22 23  2  0  0  0  0
 23 24  1  0  0  0  0
 25 26  1  0  0  0  0
 25 24  2  0  0  0  0
 26 31  1  0  0  0  0
 27 26  2  0  0  0  0
 28 27  1  0  0  0  0
 29 28  2  0  0  0  0
 29 30  1  0  0  0  0
 30 25  1  0  0  0  0
 31 32  1  0  0  0  0
 31 33  2  0  0  0  0
 32 34  1  0  0  0  0
 35 32  1  0  0  0  0
 37 36  1  0  0  0  0
 38 39  1  0  0  0  0
 39 37  1  0  0  0  0
M  END
>  <minimizedAffinity>
-8.9467411

$$$$
