
 OpenBabel10152419343D

 39 42  0  0  1  0  0  0  0  0999 V2000
   -0.6670   -7.6440  -25.3260 C   0  0  2  0  0  3  0  0  0  0  0  0
   -1.5680   -7.9430  -24.1290 C   0  0  0  0  0  0  0  0  0  0  0  0
   -2.8580   -7.3890  -24.0960 C   0  0  0  0  0  3  0  0  0  0  0  0
   -3.7190   -7.6710  -23.0410 C   0  0  0  0  0  3  0  0  0  0  0  0
   -3.3170   -8.5340  -22.0200 C   0  0  0  0  0  3  0  0  0  0  0  0
   -2.0560   -9.1260  -22.0420 C   0  0  0  0  0  0  0  0  0  0  0  0
   -1.1620   -8.7590  -23.0570 C   0  0  0  0  0  3  0  0  0  0  0  0
   -1.5980  -10.0790  -21.1110 N   0  0  0  0  0  0  0  0  0  0  0  0
   -1.0070  -11.3140  -21.2570 C   0  0  0  0  0  0  0  0  0  0  0  0
   -0.8530  -12.0420  -20.2790 O   0  0  0  0  0  0  0  0  0  0  0  0
   -1.6960   -9.8360  -20.1320 H   0  0  0  0  0  0  0  0  0  0  0  0
   -0.4990  -11.7730  -22.5600 C   0  0  0  0  0  0  0  0  0  0  0  0
   -1.2830  -11.5570  -23.6980 C   0  0  0  0  0  3  0  0  0  0  0  0
   -0.7830  -11.9030  -24.9540 C   0  0  0  0  0  3  0  0  0  0  0  0
    0.4830  -12.4840  -25.0600 C   0  0  0  0  0  0  0  0  0  0  0  0
    1.1810  -12.8980  -26.7670 Br  0  0  0  0  0  0  0  0  0  0  0  0
    1.2440  -12.7500  -23.9200 C   0  0  0  0  0  3  0  0  0  0  0  0
    0.7470  -12.4040  -22.6620 C   0  0  0  0  0  3  0  0  0  0  0  0
    0.7660   -7.5190  -25.0240 N   0  0  0  0  0  0  0  0  0  0  0  0
    0.9930   -7.5150  -24.0330 H   0  0  0  0  0  0  0  0  0  0  0  0
    1.8180   -8.1270  -25.6690 C   0  0  0  0  0  0  0  0  0  0  0  0
    2.2290   -9.2130  -24.9960 N   0  0  0  0  0  0  0  0  0  0  0  0
    3.0820  -10.0160  -25.6230 C   0  0  0  0  0  3  0  0  0  0  0  0
    3.5380   -9.8520  -26.8680 N   0  0  0  0  0  0  0  0  0  0  0  0
    3.1820   -8.7270  -27.5300 C   0  0  0  0  0  0  0  0  0  0  0  0
    3.6040   -8.4750  -28.8500 C   0  0  0  0  0  0  0  0  0  0  0  0
    3.2900   -7.2680  -29.5030 C   0  0  0  0  0  3  0  0  0  0  0  0
    2.5530   -6.2900  -28.8570 C   0  0  0  0  0  3  0  0  0  0  0  0
    2.0870   -6.5410  -27.5740 C   0  0  0  0  0  3  0  0  0  0  0  0
    2.3520   -7.7690  -26.9180 C   0  0  0  0  0  0  0  0  0  0  0  0
    4.3600   -9.4730  -29.6720 C   0  0  0  0  0  0  0  0  0  0  0  0
    4.6090  -10.7030  -29.1400 N   0  0  0  0  0  0  0  0  0  0  0  0
    4.7220   -9.2150  -30.8150 O   0  0  0  0  0  0  0  0  0  0  0  0
    5.0910  -11.3940  -29.6960 H   0  0  0  0  0  0  0  0  0  0  0  0
    4.3060  -10.9360  -28.1990 H   0  0  0  0  0  0  0  0  0  0  0  0
   -1.1840   -6.3560  -26.0000 C   0  0  0  0  0  2  0  0  0  0  0  0
   -0.4430   -5.0760  -25.6170 C   0  0  0  0  0  2  0  0  0  0  0  0
   -1.1420   -2.9160  -26.3790 C   0  0  0  0  0  1  0  0  0  0  0  0
   -0.4330   -4.1140  -26.6670 O   0  0  0  0  0  0  0  0  0  0  0  0
  1 36  1  1  0  0  0
  1 19  1  0  0  0  0
  1  2  1  0  0  0  0
  2  3  2  0  0  0  0
  2  7  1  0  0  0  0
  3  4  1  0  0  0  0
  4  5  2  0  0  0  0
  6  5  1  0  0  0  0
  6  8  1  0  0  0  0
  7  6  2  0  0  0  0
  8 11  1  0  0  0  0
  9  8  1  0  0  0  0
  9 10  2  0  0  0  0
 12  9  1  0  0  0  0
 13 12  2  0  0  0  0
 14 13  1  0  0  0  0
 15 14  2  0  0  0  0
 15 17  1  0  0  0  0
 16 15  1  0  0  0  0
 17 18  2  0  0  0  0
 18 12  1  0  0  0  0
 19 20  1  0  0  0  0
 21 19  1  0  0  0  0
 21 22  1  0  0  0  0
 23 22  2  0  0  0  0
 24 23  1  0  0  0  0
 25 30  1  0  0  0  0
 25 24  2  0  0  0  0
 26 25  1  0  0  0  0
 27 28  1  0  0  0  0
 27 26  2  0  0  0  0
 28 29  2  0  0  0  0
 29 30  1  0  0  0  0
 30 21  2  0  0  0  0
 31 32  1  0  0  0  0
 31 26  1  0  0  0  0
 32 35  1  0  0  0  0
 33 31  2  0  0  0  0
 34 32  1  0  0  0  0
 36 37  1  0  0  0  0
 39 38  1  0  0  0  0
 39 37  1  0  0  0  0
M  END
>  <minimizedAffinity>
-7.72424221

$$$$
