
 OpenBabel10152419343D

 39 42  0  0  1  0  0  0  0  0999 V2000
    1.2000   -7.7300  -26.1040 C   0  0  2  0  0  3  0  0  0  0  0  0
    2.3850   -7.7730  -27.0660 C   0  0  0  0  0  0  0  0  0  0  0  0
    3.3130   -6.7200  -27.0470 C   0  0  0  0  0  3  0  0  0  0  0  0
    4.4250   -6.7440  -27.8810 C   0  0  0  0  0  3  0  0  0  0  0  0
    4.6450   -7.8350  -28.7250 C   0  0  0  0  0  3  0  0  0  0  0  0
    3.7600   -8.9120  -28.7410 C   0  0  0  0  0  0  0  0  0  0  0  0
    2.5940   -8.8320  -27.9690 C   0  0  0  0  0  3  0  0  0  0  0  0
    3.9460  -10.0940  -29.4850 N   0  0  0  0  0  0  0  0  0  0  0  0
    4.0880  -11.4130  -29.1170 C   0  0  0  0  0  0  0  0  0  0  0  0
    4.4160  -12.2530  -29.9510 O   0  0  0  0  0  0  0  0  0  0  0  0
    3.9750   -9.9920  -30.4930 H   0  0  0  0  0  0  0  0  0  0  0  0
    3.8020  -11.8620  -27.7440 C   0  0  0  0  0  0  0  0  0  0  0  0
    4.7160  -11.5470  -26.7330 C   0  0  0  0  0  3  0  0  0  0  0  0
    4.4220  -11.8850  -25.4110 C   0  0  0  0  0  3  0  0  0  0  0  0
    3.2330  -12.5540  -25.1140 C   0  0  0  0  0  0  0  0  0  0  0  0
    2.8120  -12.9580  -23.3160 Br  0  0  0  0  0  0  0  0  0  0  0  0
    2.3460  -12.9170  -26.1290 C   0  0  0  0  0  3  0  0  0  0  0  0
    2.6350  -12.5790  -27.4530 C   0  0  0  0  0  3  0  0  0  0  0  0
    0.0960   -8.6500  -26.4180 N   0  0  0  0  0  0  0  0  0  0  0  0
    0.1520   -9.0830  -27.3350 H   0  0  0  0  0  0  0  0  0  0  0  0
   -0.5010   -9.5640  -25.5820 C   0  0  0  0  0  0  0  0  0  0  0  0
   -0.4700  -10.7940  -26.1200 N   0  0  0  0  0  0  0  0  0  0  0  0
   -0.8070  -11.8020  -25.3210 C   0  0  0  0  0  3  0  0  0  0  0  0
   -1.1410  -11.6990  -24.0320 N   0  0  0  0  0  0  0  0  0  0  0  0
   -1.2390  -10.4600  -23.5000 C   0  0  0  0  0  0  0  0  0  0  0  0
   -1.5730  -10.2550  -22.1470 C   0  0  0  0  0  0  0  0  0  0  0  0
   -1.7460   -8.9600  -21.6210 C   0  0  0  0  0  3  0  0  0  0  0  0
   -1.5910   -7.8470  -22.4310 C   0  0  0  0  0  3  0  0  0  0  0  0
   -1.2140   -8.0270  -23.7540 C   0  0  0  0  0  3  0  0  0  0  0  0
   -0.9900   -9.3210  -24.2880 C   0  0  0  0  0  0  0  0  0  0  0  0
   -1.7150  -11.3730  -21.1600 C   0  0  0  0  0  0  0  0  0  0  0  0
   -0.9300  -12.4770  -21.3070 N   0  0  0  0  0  0  0  0  0  0  0  0
   -2.4920  -11.2950  -20.2150 O   0  0  0  0  0  0  0  0  0  0  0  0
   -0.9950  -13.2240  -20.6310 H   0  0  0  0  0  0  0  0  0  0  0  0
   -0.2730  -12.5520  -22.0790 H   0  0  0  0  0  0  0  0  0  0  0  0
    0.6840   -6.2770  -26.0490 C   0  0  0  0  0  2  0  0  0  0  0  0
   -0.1730   -5.8430  -27.2360 C   0  0  0  0  0  2  0  0  0  0  0  0
    1.0960   -4.1330  -28.3310 C   0  0  0  0  0  1  0  0  0  0  0  0
   -0.0350   -4.4570  -27.5340 O   0  0  0  0  0  0  0  0  0  0  0  0
  1 36  1  6  0  0  0
  2  3  1  0  0  0  0
  2  1  1  0  0  0  0
  4  3  2  0  0  0  0
  5  4  1  0  0  0  0
  6  5  2  0  0  0  0
  6  7  1  0  0  0  0
  7  2  2  0  0  0  0
  8  9  1  0  0  0  0
  8  6  1  0  0  0  0
  9 12  1  0  0  0  0
 10  9  2  0  0  0  0
 11  8  1  0  0  0  0
 12 18  2  0  0  0  0
 12 13  1  0  0  0  0
 13 14  2  0  0  0  0
 14 15  1  0  0  0  0
 15 16  1  0  0  0  0
 17 15  2  0  0  0  0
 18 17  1  0  0  0  0
 19  1  1  0  0  0  0
 19 21  1  0  0  0  0
 20 19  1  0  0  0  0
 21 30  1  0  0  0  0
 22 21  2  0  0  0  0
 22 23  1  0  0  0  0
 23 24  2  0  0  0  0
 24 25  1  0  0  0  0
 25 26  1  0  0  0  0
 26 27  2  0  0  0  0
 26 31  1  0  0  0  0
 28 27  1  0  0  0  0
 29 28  2  0  0  0  0
 30 29  1  0  0  0  0
 30 25  2  0  0  0  0
 31 33  2  0  0  0  0
 32 31  1  0  0  0  0
 32 34  1  0  0  0  0
 35 32  1  0  0  0  0
 37 36  1  0  0  0  0
 38 39  1  0  0  0  0
 39 37  1  0  0  0  0
M  END
>  <minimizedAffinity>
-7.85477257

$$$$
