
 OpenBabel10152419343D

 39 42  0  0  1  0  0  0  0  0999 V2000
   -1.5130   -7.5810  -24.0740 C   0  0  2  0  0  3  0  0  0  0  0  0
   -1.2110   -9.0300  -24.4490 C   0  0  0  0  0  0  0  0  0  0  0  0
   -1.8700   -9.5960  -25.5520 C   0  0  0  0  0  3  0  0  0  0  0  0
   -1.5910  -10.9010  -25.9470 C   0  0  0  0  0  3  0  0  0  0  0  0
   -0.6290  -11.6490  -25.2660 C   0  0  0  0  0  3  0  0  0  0  0  0
    0.0660  -11.1020  -24.1880 C   0  0  0  0  0  0  0  0  0  0  0  0
   -0.2910   -9.8250  -23.7390 C   0  0  0  0  0  3  0  0  0  0  0  0
    1.1160  -11.7430  -23.5010 N   0  0  0  0  0  0  0  0  0  0  0  0
    2.3050  -12.2940  -23.9230 C   0  0  0  0  0  0  0  0  0  0  0  0
    2.9870  -12.9590  -23.1460 O   0  0  0  0  0  0  0  0  0  0  0  0
    1.0170  -11.8190  -22.4950 H   0  0  0  0  0  0  0  0  0  0  0  0
    2.8180  -12.0640  -25.2850 C   0  0  0  0  0  0  0  0  0  0  0  0
    1.9580  -12.2750  -26.3680 C   0  0  0  0  0  3  0  0  0  0  0  0
    2.3950  -11.9780  -27.6600 C   0  0  0  0  0  3  0  0  0  0  0  0
    3.6910  -11.4980  -27.8600 C   0  0  0  0  0  0  0  0  0  0  0  0
    4.2590  -11.0420  -29.6050 Br  0  0  0  0  0  0  0  0  0  0  0  0
    4.5680  -11.3410  -26.7860 C   0  0  0  0  0  3  0  0  0  0  0  0
    4.1340  -11.6350  -25.4920 C   0  0  0  0  0  3  0  0  0  0  0  0
   -0.5100   -6.5940  -24.5020 N   0  0  0  0  0  0  0  0  0  0  0  0
   -0.3040   -5.8740  -23.8160 H   0  0  0  0  0  0  0  0  0  0  0  0
    0.6540   -6.8260  -25.1980 C   0  0  0  0  0  0  0  0  0  0  0  0
    1.4080   -7.7460  -24.5750 N   0  0  0  0  0  0  0  0  0  0  0  0
    2.4450   -8.2250  -25.2550 C   0  0  0  0  0  3  0  0  0  0  0  0
    2.7790   -7.8950  -26.5050 N   0  0  0  0  0  0  0  0  0  0  0  0
    2.0660   -6.9210  -27.1160 C   0  0  0  0  0  0  0  0  0  0  0  0
    2.3380   -6.5160  -28.4380 C   0  0  0  0  0  0  0  0  0  0  0  0
    1.6390   -5.4510  -29.0380 C   0  0  0  0  0  3  0  0  0  0  0  0
    0.6580   -4.7710  -28.3360 C   0  0  0  0  0  3  0  0  0  0  0  0
    0.3420   -5.1870  -27.0500 C   0  0  0  0  0  3  0  0  0  0  0  0
    1.0020   -6.2860  -26.4470 C   0  0  0  0  0  0  0  0  0  0  0  0
    3.3360   -7.2060  -29.3160 C   0  0  0  0  0  0  0  0  0  0  0  0
    4.6210   -7.3230  -28.8780 N   0  0  0  0  0  0  0  0  0  0  0  0
    3.0090   -7.6910  -30.3940 O   0  0  0  0  0  0  0  0  0  0  0  0
    5.2960   -7.8120  -29.4470 H   0  0  0  0  0  0  0  0  0  0  0  0
    4.9050   -6.9360  -27.9820 H   0  0  0  0  0  0  0  0  0  0  0  0
   -1.7060   -7.5170  -22.5450 C   0  0  0  0  0  2  0  0  0  0  0  0
   -3.0240   -8.0880  -22.0270 C   0  0  0  0  0  2  0  0  0  0  0  0
   -1.5670   -9.1220  -20.4340 C   0  0  0  0  0  1  0  0  0  0  0  0
   -2.8350   -9.1290  -21.0750 O   0  0  0  0  0  0  0  0  0  0  0  0
  1 36  1  1  0  0  0
  2  1  1  0  0  0  0
  2  7  1  0  0  0  0
  3  2  2  0  0  0  0
  4  3  1  0  0  0  0
  4  5  2  0  0  0  0
  5  6  1  0  0  0  0
  6  7  2  0  0  0  0
  6  8  1  0  0  0  0
  8 11  1  0  0  0  0
  9  8  1  0  0  0  0
  9 10  2  0  0  0  0
 12  9  1  0  0  0  0
 13 12  2  0  0  0  0
 14 13  1  0  0  0  0
 15 14  2  0  0  0  0
 15 17  1  0  0  0  0
 16 15  1  0  0  0  0
 17 18  2  0  0  0  0
 18 12  1  0  0  0  0
 19  1  1  0  0  0  0
 19 20  1  0  0  0  0
 21 22  1  0  0  0  0
 21 19  1  0  0  0  0
 23 22  2  0  0  0  0
 24 23  1  0  0  0  0
 25 24  2  0  0  0  0
 25 30  1  0  0  0  0
 26 25  1  0  0  0  0
 27 26  2  0  0  0  0
 27 28  1  0  0  0  0
 28 29  2  0  0  0  0
 29 30  1  0  0  0  0
 30 21  2  0  0  0  0
 31 32  1  0  0  0  0
 31 26  1  0  0  0  0
 32 35  1  0  0  0  0
 33 31  2  0  0  0  0
 34 32  1  0  0  0  0
 36 37  1  0  0  0  0
 37 39  1  0  0  0  0
 39 38  1  0  0  0  0
M  END
>  <minimizedAffinity>
-9.2320118

$$$$

 OpenBabel10152419343D

 39 42  0  0  1  0  0  0  0  0999 V2000
    1.1820  -11.9120  -25.3700 C   0  0  2  0  0  3  0  0  0  0  0  0
    1.6250  -10.4520  -25.4330 C   0  0  0  0  0  0  0  0  0  0  0  0
    1.7410   -9.7260  -24.2370 C   0  0  0  0  0  3  0  0  0  0  0  0
    2.1790   -8.4060  -24.2520 C   0  0  0  0  0  3  0  0  0  0  0  0
    2.5380   -7.8010  -25.4590 C   0  0  0  0  0  3  0  0  0  0  0  0
    2.4660   -8.5070  -26.6580 C   0  0  0  0  0  0  0  0  0  0  0  0
    1.9330   -9.8020  -26.6430 C   0  0  0  0  0  3  0  0  0  0  0  0
    2.8950   -8.0150  -27.9070 N   0  0  0  0  0  0  0  0  0  0  0  0
    2.4690   -6.9660  -28.6900 C   0  0  0  0  0  0  0  0  0  0  0  0
    2.8940   -6.8400  -29.8370 O   0  0  0  0  0  0  0  0  0  0  0  0
    3.6760   -8.4960  -28.3380 H   0  0  0  0  0  0  0  0  0  0  0  0
    1.5450   -5.9440  -28.1690 C   0  0  0  0  0  0  0  0  0  0  0  0
    0.4350   -6.3620  -27.4270 C   0  0  0  0  0  3  0  0  0  0  0  0
   -0.4030   -5.4070  -26.8490 C   0  0  0  0  0  3  0  0  0  0  0  0
   -0.1410   -4.0480  -27.0370 C   0  0  0  0  0  0  0  0  0  0  0  0
   -1.2450   -2.7600  -26.2040 Br  0  0  0  0  0  0  0  0  0  0  0  0
    0.9350   -3.6310  -27.8230 C   0  0  0  0  0  3  0  0  0  0  0  0
    1.7770   -4.5830  -28.4010 C   0  0  0  0  0  3  0  0  0  0  0  0
   -0.2120  -12.1330  -24.9560 N   0  0  0  0  0  0  0  0  0  0  0  0
   -0.5650  -13.0680  -25.1390 H   0  0  0  0  0  0  0  0  0  0  0  0
   -0.8290  -11.6910  -23.8100 C   0  0  0  0  0  0  0  0  0  0  0  0
   -0.7500  -12.6140  -22.8380 N   0  0  0  0  0  0  0  0  0  0  0  0
   -1.1040  -12.2250  -21.6170 C   0  0  0  0  0  3  0  0  0  0  0  0
   -1.4990  -10.9970  -21.2720 N   0  0  0  0  0  0  0  0  0  0  0  0
   -1.6460  -10.0790  -22.2550 C   0  0  0  0  0  0  0  0  0  0  0  0
   -2.0460   -8.7560  -21.9840 C   0  0  0  0  0  0  0  0  0  0  0  0
   -2.2680   -7.8300  -23.0210 C   0  0  0  0  0  3  0  0  0  0  0  0
   -2.0970   -8.2010  -24.3440 C   0  0  0  0  0  3  0  0  0  0  0  0
   -1.6560   -9.4860  -24.6280 C   0  0  0  0  0  3  0  0  0  0  0  0
   -1.3820  -10.4170  -23.5950 C   0  0  0  0  0  0  0  0  0  0  0  0
   -2.2120   -8.2190  -20.5960 C   0  0  0  0  0  0  0  0  0  0  0  0
   -3.3890   -7.6160  -20.2650 N   0  0  0  0  0  0  0  0  0  0  0  0
   -1.3300   -8.3450  -19.7530 O   0  0  0  0  0  0  0  0  0  0  0  0
   -3.5240   -7.2770  -19.3240 H   0  0  0  0  0  0  0  0  0  0  0  0
   -4.1340   -7.5150  -20.9490 H   0  0  0  0  0  0  0  0  0  0  0  0
    2.1440  -12.6600  -24.4230 C   0  0  0  0  0  2  0  0  0  0  0  0
    3.5490  -12.8970  -24.9730 C   0  0  0  0  0  2  0  0  0  0  0  0
    4.6560  -12.2530  -26.9960 C   0  0  0  0  0  1  0  0  0  0  0  0
    3.5790  -12.9590  -26.3950 O   0  0  0  0  0  0  0  0  0  0  0  0
  1 19  1  0  0  0  0
  1 36  1  1  0  0  0
  2  1  1  0  0  0  0
  2  3  1  0  0  0  0
  4  3  2  0  0  0  0
  5  4  1  0  0  0  0
  6  7  1  0  0  0  0
  6  5  2  0  0  0  0
  7  2  2  0  0  0  0
  8  6  1  0  0  0  0
  9 12  1  0  0  0  0
  9  8  1  0  0  0  0
 10  9  2  0  0  0  0
 11  8  1  0  0  0  0
 12 13  1  0  0  0  0
 13 14  2  0  0  0  0
 15 14  1  0  0  0  0
 15 16  1  0  0  0  0
 17 15  2  0  0  0  0
 18 12  2  0  0  0  0
 18 17  1  0  0  0  0
 19 21  1  0  0  0  0
 20 19  1  0  0  0  0
 21 30  2  0  0  0  0
 21 22  1  0  0  0  0
 22 23  2  0  0  0  0
 23 24  1  0  0  0  0
 25 26  1  0  0  0  0
 25 24  2  0  0  0  0
 26 31  1  0  0  0  0
 27 26  2  0  0  0  0
 28 27  1  0  0  0  0
 29 28  2  0  0  0  0
 29 30  1  0  0  0  0
 30 25  1  0  0  0  0
 31 32  1  0  0  0  0
 31 33  2  0  0  0  0
 32 34  1  0  0  0  0
 35 32  1  0  0  0  0
 37 36  1  0  0  0  0
 38 39  1  0  0  0  0
 39 37  1  0  0  0  0
M  END
>  <minimizedAffinity>
-8.9467411

$$$$

 OpenBabel10152419343D

 39 42  0  0  1  0  0  0  0  0999 V2000
    3.1780  -11.7380  -26.2090 C   0  0  2  0  0  3  0  0  0  0  0  0
    1.7040  -11.7090  -25.8080 C   0  0  0  0  0  0  0  0  0  0  0  0
    0.7490  -11.3240  -26.7620 C   0  0  0  0  0  3  0  0  0  0  0  0
   -0.6050  -11.3230  -26.4440 C   0  0  0  0  0  3  0  0  0  0  0  0
   -1.0280  -11.7370  -25.1790 C   0  0  0  0  0  3  0  0  0  0  0  0
   -0.1060  -12.1570  -24.2220 C   0  0  0  0  0  0  0  0  0  0  0  0
    1.2590  -12.0620  -24.5200 C   0  0  0  0  0  3  0  0  0  0  0  0
   -0.4430  -12.6790  -22.9580 N   0  0  0  0  0  0  0  0  0  0  0  0
   -0.8230  -12.0840  -21.7760 C   0  0  0  0  0  0  0  0  0  0  0  0
   -0.8970  -12.7510  -20.7460 O   0  0  0  0  0  0  0  0  0  0  0  0
   -0.4230  -13.6890  -22.8670 H   0  0  0  0  0  0  0  0  0  0  0  0
   -1.2000  -10.6620  -21.7190 C   0  0  0  0  0  0  0  0  0  0  0  0
   -1.2990  -10.0460  -20.4670 C   0  0  0  0  0  3  0  0  0  0  0  0
   -1.5680   -8.6780  -20.3930 C   0  0  0  0  0  3  0  0  0  0  0  0
   -1.7590   -7.9450  -21.5670 C   0  0  0  0  0  0  0  0  0  0  0  0
   -2.0650   -6.0820  -21.4640 Br  0  0  0  0  0  0  0  0  0  0  0  0
   -1.7150   -8.5700  -22.8140 C   0  0  0  0  0  3  0  0  0  0  0  0
   -1.4450   -9.9380  -22.8910 C   0  0  0  0  0  3  0  0  0  0  0  0
    3.9160  -10.4840  -25.9970 N   0  0  0  0  0  0  0  0  0  0  0  0
    4.9240  -10.5910  -25.9350 H   0  0  0  0  0  0  0  0  0  0  0  0
    3.6790   -9.2600  -26.5780 C   0  0  0  0  0  0  0  0  0  0  0  0
    4.4550   -9.0880  -27.6610 N   0  0  0  0  0  0  0  0  0  0  0  0
    4.1660   -8.0520  -28.4420 C   0  0  0  0  0  3  0  0  0  0  0  0
    3.1590   -7.1930  -28.2600 N   0  0  0  0  0  0  0  0  0  0  0  0
    2.4140   -7.3190  -27.1380 C   0  0  0  0  0  0  0  0  0  0  0  0
    1.3250   -6.4680  -26.8680 C   0  0  0  0  0  0  0  0  0  0  0  0
    0.6020   -6.5590  -25.6630 C   0  0  0  0  0  3  0  0  0  0  0  0
    0.9500   -7.4970  -24.7050 C   0  0  0  0  0  3  0  0  0  0  0  0
    1.9880   -8.3770  -24.9740 C   0  0  0  0  0  3  0  0  0  0  0  0
    2.6960   -8.3310  -26.2010 C   0  0  0  0  0  0  0  0  0  0  0  0
    0.8200   -5.4510  -27.8450 C   0  0  0  0  0  0  0  0  0  0  0  0
    1.6980   -4.5420  -28.3540 N   0  0  0  0  0  0  0  0  0  0  0  0
   -0.3500   -5.4470  -28.2140 O   0  0  0  0  0  0  0  0  0  0  0  0
    1.3760   -3.8710  -29.0360 H   0  0  0  0  0  0  0  0  0  0  0  0
    2.6730   -4.5400  -28.0670 H   0  0  0  0  0  0  0  0  0  0  0  0
    3.2590  -12.1610  -27.6900 C   0  0  0  0  0  2  0  0  0  0  0  0
    4.6440  -12.5860  -28.1740 C   0  0  0  0  0  2  0  0  0  0  0  0
    4.3080  -11.5260  -30.2940 C   0  0  0  0  0  1  0  0  0  0  0  0
    4.7220  -12.6900  -29.5920 O   0  0  0  0  0  0  0  0  0  0  0  0
  1 36  1  6  0  0  0
  1 19  1  0  0  0  0
  1  2  1  0  0  0  0
  2  7  1  0  0  0  0
  3  4  1  0  0  0  0
  3  2  2  0  0  0  0
  4  5  2  0  0  0  0
  5  6  1  0  0  0  0
  6  8  1  0  0  0  0
  7  6  2  0  0  0  0
  8 11  1  0  0  0  0
  8  9  1  0  0  0  0
  9 12  1  0  0  0  0
  9 10  2  0  0  0  0
 12 13  1  0  0  0  0
 13 14  2  0  0  0  0
 15 16  1  0  0  0  0
 15 14  1  0  0  0  0
 17 15  2  0  0  0  0
 18 17  1  0  0  0  0
 18 12  2  0  0  0  0
 19 20  1  0  0  0  0
 21 30  1  0  0  0  0
 21 19  1  0  0  0  0
 22 21  2  0  0  0  0
 23 24  2  0  0  0  0
 23 22  1  0  0  0  0
 24 25  1  0  0  0  0
 25 26  2  0  0  0  0
 25 30  1  0  0  0  0
 26 27  1  0  0  0  0
 27 28  2  0  0  0  0
 29 28  1  0  0  0  0
 30 29  2  0  0  0  0
 31 26  1  0  0  0  0
 32 35  1  0  0  0  0
 32 31  1  0  0  0  0
 33 31  2  0  0  0  0
 34 32  1  0  0  0  0
 37 36  1  0  0  0  0
 38 39  1  0  0  0  0
 39 37  1  0  0  0  0
M  END
>  <minimizedAffinity>
-8.06993008

$$$$

 OpenBabel10152419343D

 39 42  0  0  1  0  0  0  0  0999 V2000
    1.2000   -7.7300  -26.1040 C   0  0  2  0  0  3  0  0  0  0  0  0
    2.3850   -7.7730  -27.0660 C   0  0  0  0  0  0  0  0  0  0  0  0
    3.3130   -6.7200  -27.0470 C   0  0  0  0  0  3  0  0  0  0  0  0
    4.4250   -6.7440  -27.8810 C   0  0  0  0  0  3  0  0  0  0  0  0
    4.6450   -7.8350  -28.7250 C   0  0  0  0  0  3  0  0  0  0  0  0
    3.7600   -8.9120  -28.7410 C   0  0  0  0  0  0  0  0  0  0  0  0
    2.5940   -8.8320  -27.9690 C   0  0  0  0  0  3  0  0  0  0  0  0
    3.9460  -10.0940  -29.4850 N   0  0  0  0  0  0  0  0  0  0  0  0
    4.0880  -11.4130  -29.1170 C   0  0  0  0  0  0  0  0  0  0  0  0
    4.4160  -12.2530  -29.9510 O   0  0  0  0  0  0  0  0  0  0  0  0
    3.9750   -9.9920  -30.4930 H   0  0  0  0  0  0  0  0  0  0  0  0
    3.8020  -11.8620  -27.7440 C   0  0  0  0  0  0  0  0  0  0  0  0
    4.7160  -11.5470  -26.7330 C   0  0  0  0  0  3  0  0  0  0  0  0
    4.4220  -11.8850  -25.4110 C   0  0  0  0  0  3  0  0  0  0  0  0
    3.2330  -12.5540  -25.1140 C   0  0  0  0  0  0  0  0  0  0  0  0
    2.8120  -12.9580  -23.3160 Br  0  0  0  0  0  0  0  0  0  0  0  0
    2.3460  -12.9170  -26.1290 C   0  0  0  0  0  3  0  0  0  0  0  0
    2.6350  -12.5790  -27.4530 C   0  0  0  0  0  3  0  0  0  0  0  0
    0.0960   -8.6500  -26.4180 N   0  0  0  0  0  0  0  0  0  0  0  0
    0.1520   -9.0830  -27.3350 H   0  0  0  0  0  0  0  0  0  0  0  0
   -0.5010   -9.5640  -25.5820 C   0  0  0  0  0  0  0  0  0  0  0  0
   -0.4700  -10.7940  -26.1200 N   0  0  0  0  0  0  0  0  0  0  0  0
   -0.8070  -11.8020  -25.3210 C   0  0  0  0  0  3  0  0  0  0  0  0
   -1.1410  -11.6990  -24.0320 N   0  0  0  0  0  0  0  0  0  0  0  0
   -1.2390  -10.4600  -23.5000 C   0  0  0  0  0  0  0  0  0  0  0  0
   -1.5730  -10.2550  -22.1470 C   0  0  0  0  0  0  0  0  0  0  0  0
   -1.7460   -8.9600  -21.6210 C   0  0  0  0  0  3  0  0  0  0  0  0
   -1.5910   -7.8470  -22.4310 C   0  0  0  0  0  3  0  0  0  0  0  0
   -1.2140   -8.0270  -23.7540 C   0  0  0  0  0  3  0  0  0  0  0  0
   -0.9900   -9.3210  -24.2880 C   0  0  0  0  0  0  0  0  0  0  0  0
   -1.7150  -11.3730  -21.1600 C   0  0  0  0  0  0  0  0  0  0  0  0
   -0.9300  -12.4770  -21.3070 N   0  0  0  0  0  0  0  0  0  0  0  0
   -2.4920  -11.2950  -20.2150 O   0  0  0  0  0  0  0  0  0  0  0  0
   -0.9950  -13.2240  -20.6310 H   0  0  0  0  0  0  0  0  0  0  0  0
   -0.2730  -12.5520  -22.0790 H   0  0  0  0  0  0  0  0  0  0  0  0
    0.6840   -6.2770  -26.0490 C   0  0  0  0  0  2  0  0  0  0  0  0
   -0.1730   -5.8430  -27.2360 C   0  0  0  0  0  2  0  0  0  0  0  0
    1.0960   -4.1330  -28.3310 C   0  0  0  0  0  1  0  0  0  0  0  0
   -0.0350   -4.4570  -27.5340 O   0  0  0  0  0  0  0  0  0  0  0  0
  1 36  1  6  0  0  0
  2  3  1  0  0  0  0
  2  1  1  0  0  0  0
  4  3  2  0  0  0  0
  5  4  1  0  0  0  0
  6  5  2  0  0  0  0
  6  7  1  0  0  0  0
  7  2  2  0  0  0  0
  8  9  1  0  0  0  0
  8  6  1  0  0  0  0
  9 12  1  0  0  0  0
 10  9  2  0  0  0  0
 11  8  1  0  0  0  0
 12 18  2  0  0  0  0
 12 13  1  0  0  0  0
 13 14  2  0  0  0  0
 14 15  1  0  0  0  0
 15 16  1  0  0  0  0
 17 15  2  0  0  0  0
 18 17  1  0  0  0  0
 19  1  1  0  0  0  0
 19 21  1  0  0  0  0
 20 19  1  0  0  0  0
 21 30  1  0  0  0  0
 22 21  2  0  0  0  0
 22 23  1  0  0  0  0
 23 24  2  0  0  0  0
 24 25  1  0  0  0  0
 25 26  1  0  0  0  0
 26 27  2  0  0  0  0
 26 31  1  0  0  0  0
 28 27  1  0  0  0  0
 29 28  2  0  0  0  0
 30 29  1  0  0  0  0
 30 25  2  0  0  0  0
 31 33  2  0  0  0  0
 32 31  1  0  0  0  0
 32 34  1  0  0  0  0
 35 32  1  0  0  0  0
 37 36  1  0  0  0  0
 38 39  1  0  0  0  0
 39 37  1  0  0  0  0
M  END
>  <minimizedAffinity>
-7.85477257

$$$$

 OpenBabel10152419343D

 39 42  0  0  1  0  0  0  0  0999 V2000
   -0.6670   -7.6440  -25.3260 C   0  0  2  0  0  3  0  0  0  0  0  0
   -1.5680   -7.9430  -24.1290 C   0  0  0  0  0  0  0  0  0  0  0  0
   -2.8580   -7.3890  -24.0960 C   0  0  0  0  0  3  0  0  0  0  0  0
   -3.7190   -7.6710  -23.0410 C   0  0  0  0  0  3  0  0  0  0  0  0
   -3.3170   -8.5340  -22.0200 C   0  0  0  0  0  3  0  0  0  0  0  0
   -2.0560   -9.1260  -22.0420 C   0  0  0  0  0  0  0  0  0  0  0  0
   -1.1620   -8.7590  -23.0570 C   0  0  0  0  0  3  0  0  0  0  0  0
   -1.5980  -10.0790  -21.1110 N   0  0  0  0  0  0  0  0  0  0  0  0
   -1.0070  -11.3140  -21.2570 C   0  0  0  0  0  0  0  0  0  0  0  0
   -0.8530  -12.0420  -20.2790 O   0  0  0  0  0  0  0  0  0  0  0  0
   -1.6960   -9.8360  -20.1320 H   0  0  0  0  0  0  0  0  0  0  0  0
   -0.4990  -11.7730  -22.5600 C   0  0  0  0  0  0  0  0  0  0  0  0
   -1.2830  -11.5570  -23.6980 C   0  0  0  0  0  3  0  0  0  0  0  0
   -0.7830  -11.9030  -24.9540 C   0  0  0  0  0  3  0  0  0  0  0  0
    0.4830  -12.4840  -25.0600 C   0  0  0  0  0  0  0  0  0  0  0  0
    1.1810  -12.8980  -26.7670 Br  0  0  0  0  0  0  0  0  0  0  0  0
    1.2440  -12.7500  -23.9200 C   0  0  0  0  0  3  0  0  0  0  0  0
    0.7470  -12.4040  -22.6620 C   0  0  0  0  0  3  0  0  0  0  0  0
    0.7660   -7.5190  -25.0240 N   0  0  0  0  0  0  0  0  0  0  0  0
    0.9930   -7.5150  -24.0330 H   0  0  0  0  0  0  0  0  0  0  0  0
    1.8180   -8.1270  -25.6690 C   0  0  0  0  0  0  0  0  0  0  0  0
    2.2290   -9.2130  -24.9960 N   0  0  0  0  0  0  0  0  0  0  0  0
    3.0820  -10.0160  -25.6230 C   0  0  0  0  0  3  0  0  0  0  0  0
    3.5380   -9.8520  -26.8680 N   0  0  0  0  0  0  0  0  0  0  0  0
    3.1820   -8.7270  -27.5300 C   0  0  0  0  0  0  0  0  0  0  0  0
    3.6040   -8.4750  -28.8500 C   0  0  0  0  0  0  0  0  0  0  0  0
    3.2900   -7.2680  -29.5030 C   0  0  0  0  0  3  0  0  0  0  0  0
    2.5530   -6.2900  -28.8570 C   0  0  0  0  0  3  0  0  0  0  0  0
    2.0870   -6.5410  -27.5740 C   0  0  0  0  0  3  0  0  0  0  0  0
    2.3520   -7.7690  -26.9180 C   0  0  0  0  0  0  0  0  0  0  0  0
    4.3600   -9.4730  -29.6720 C   0  0  0  0  0  0  0  0  0  0  0  0
    4.6090  -10.7030  -29.1400 N   0  0  0  0  0  0  0  0  0  0  0  0
    4.7220   -9.2150  -30.8150 O   0  0  0  0  0  0  0  0  0  0  0  0
    5.0910  -11.3940  -29.6960 H   0  0  0  0  0  0  0  0  0  0  0  0
    4.3060  -10.9360  -28.1990 H   0  0  0  0  0  0  0  0  0  0  0  0
   -1.1840   -6.3560  -26.0000 C   0  0  0  0  0  2  0  0  0  0  0  0
   -0.4430   -5.0760  -25.6170 C   0  0  0  0  0  2  0  0  0  0  0  0
   -1.1420   -2.9160  -26.3790 C   0  0  0  0  0  1  0  0  0  0  0  0
   -0.4330   -4.1140  -26.6670 O   0  0  0  0  0  0  0  0  0  0  0  0
  1 36  1  1  0  0  0
  1 19  1  0  0  0  0
  1  2  1  0  0  0  0
  2  3  2  0  0  0  0
  2  7  1  0  0  0  0
  3  4  1  0  0  0  0
  4  5  2  0  0  0  0
  6  5  1  0  0  0  0
  6  8  1  0  0  0  0
  7  6  2  0  0  0  0
  8 11  1  0  0  0  0
  9  8  1  0  0  0  0
  9 10  2  0  0  0  0
 12  9  1  0  0  0  0
 13 12  2  0  0  0  0
 14 13  1  0  0  0  0
 15 14  2  0  0  0  0
 15 17  1  0  0  0  0
 16 15  1  0  0  0  0
 17 18  2  0  0  0  0
 18 12  1  0  0  0  0
 19 20  1  0  0  0  0
 21 19  1  0  0  0  0
 21 22  1  0  0  0  0
 23 22  2  0  0  0  0
 24 23  1  0  0  0  0
 25 30  1  0  0  0  0
 25 24  2  0  0  0  0
 26 25  1  0  0  0  0
 27 28  1  0  0  0  0
 27 26  2  0  0  0  0
 28 29  2  0  0  0  0
 29 30  1  0  0  0  0
 30 21  2  0  0  0  0
 31 32  1  0  0  0  0
 31 26  1  0  0  0  0
 32 35  1  0  0  0  0
 33 31  2  0  0  0  0
 34 32  1  0  0  0  0
 36 37  1  0  0  0  0
 39 38  1  0  0  0  0
 39 37  1  0  0  0  0
M  END
>  <minimizedAffinity>
-7.72424221

$$$$

 OpenBabel10152419343D

 39 42  0  0  1  0  0  0  0  0999 V2000
    0.9550   -6.5290  -26.8810 C   0  0  2  0  0  3  0  0  0  0  0  0
    2.2630   -6.9860  -27.5250 C   0  0  0  0  0  0  0  0  0  0  0  0
    3.4640   -6.3810  -27.1240 C   0  0  0  0  0  3  0  0  0  0  0  0
    4.6780   -6.7980  -27.6600 C   0  0  0  0  0  3  0  0  0  0  0  0
    4.7130   -7.8460  -28.5820 C   0  0  0  0  0  3  0  0  0  0  0  0
    3.5400   -8.4900  -28.9740 C   0  0  0  0  0  0  0  0  0  0  0  0
    2.3170   -7.9980  -28.5020 C   0  0  0  0  0  3  0  0  0  0  0  0
    3.4850   -9.6130  -29.8220 N   0  0  0  0  0  0  0  0  0  0  0  0
    3.6720  -10.9590  -29.5980 C   0  0  0  0  0  0  0  0  0  0  0  0
    3.7420  -11.7380  -30.5460 O   0  0  0  0  0  0  0  0  0  0  0  0
    3.2520   -9.4350  -30.7920 H   0  0  0  0  0  0  0  0  0  0  0  0
    3.7400  -11.5080  -28.2330 C   0  0  0  0  0  0  0  0  0  0  0  0
    4.6960  -10.9920  -27.3520 C   0  0  0  0  0  3  0  0  0  0  0  0
    4.7190  -11.4350  -26.0280 C   0  0  0  0  0  3  0  0  0  0  0  0
    3.8070  -12.4040  -25.6040 C   0  0  0  0  0  0  0  0  0  0  0  0
    3.8040  -12.9580  -23.7970 Br  0  0  0  0  0  0  0  0  0  0  0  0
    2.8890  -12.9590  -26.4980 C   0  0  0  0  0  3  0  0  0  0  0  0
    2.8620  -12.5180  -27.8220 C   0  0  0  0  0  3  0  0  0  0  0  0
    0.0110   -7.6030  -26.5360 N   0  0  0  0  0  0  0  0  0  0  0  0
    0.1940   -8.4920  -26.9920 H   0  0  0  0  0  0  0  0  0  0  0  0
   -0.5180   -7.8910  -25.3000 C   0  0  0  0  0  0  0  0  0  0  0  0
   -1.4650   -7.0000  -24.9650 N   0  0  0  0  0  0  0  0  0  0  0  0
   -2.2110   -7.2930  -23.9040 C   0  0  0  0  0  3  0  0  0  0  0  0
   -2.1200   -8.4030  -23.1680 N   0  0  0  0  0  0  0  0  0  0  0  0
   -1.1270   -9.2760  -23.4570 C   0  0  0  0  0  0  0  0  0  0  0  0
   -0.9620  -10.4790  -22.7430 C   0  0  0  0  0  0  0  0  0  0  0  0
    0.1180  -11.3430  -23.0010 C   0  0  0  0  0  3  0  0  0  0  0  0
    1.0540  -11.0280  -23.9730 C   0  0  0  0  0  3  0  0  0  0  0  0
    0.8810   -9.8720  -24.7200 C   0  0  0  0  0  3  0  0  0  0  0  0
   -0.2260   -9.0130  -24.5060 C   0  0  0  0  0  0  0  0  0  0  0  0
   -1.9340  -10.9560  -21.7070 C   0  0  0  0  0  0  0  0  0  0  0  0
   -2.1510  -12.2950  -21.5830 N   0  0  0  0  0  0  0  0  0  0  0  0
   -2.5020  -10.1710  -20.9560 O   0  0  0  0  0  0  0  0  0  0  0  0
   -2.7800  -12.6310  -20.8690 H   0  0  0  0  0  0  0  0  0  0  0  0
   -1.6790  -12.9590  -22.1910 H   0  0  0  0  0  0  0  0  0  0  0  0
    0.2860   -5.5160  -27.8320 C   0  0  0  0  0  2  0  0  0  0  0  0
    0.3410   -4.0590  -27.3790 C   0  0  0  0  0  2  0  0  0  0  0  0
   -0.9230   -2.3490  -26.2760 C   0  0  0  0  0  1  0  0  0  0  0  0
   -0.9450   -3.5340  -27.0600 O   0  0  0  0  0  0  0  0  0  0  0  0
  1 36  1  6  0  0  0
  1 19  1  0  0  0  0
  2  3  1  0  0  0  0
  2  1  1  0  0  0  0
  4  3  2  0  0  0  0
  5  4  1  0  0  0  0
  6  5  2  0  0  0  0
  6  7  1  0  0  0  0
  7  2  2  0  0  0  0
  8  9  1  0  0  0  0
  8  6  1  0  0  0  0
  9 12  1  0  0  0  0
 10  9  2  0  0  0  0
 11  8  1  0  0  0  0
 12 18  2  0  0  0  0
 12 13  1  0  0  0  0
 13 14  2  0  0  0  0
 14 15  1  0  0  0  0
 15 16  1  0  0  0  0
 17 15  2  0  0  0  0
 18 17  1  0  0  0  0
 19 21  1  0  0  0  0
 20 19  1  0  0  0  0
 21 22  2  0  0  0  0
 21 30  1  0  0  0  0
 22 23  1  0  0  0  0
 23 24  2  0  0  0  0
 25 24  1  0  0  0  0
 25 26  1  0  0  0  0
 26 31  1  0  0  0  0
 27 26  2  0  0  0  0
 28 27  1  0  0  0  0
 29 30  1  0  0  0  0
 29 28  2  0  0  0  0
 30 25  2  0  0  0  0
 31 32  1  0  0  0  0
 31 33  2  0  0  0  0
 32 34  1  0  0  0  0
 35 32  1  0  0  0  0
 36 37  1  0  0  0  0
 37 39  1  0  0  0  0
 39 38  1  0  0  0  0
M  END
>  <minimizedAffinity>
-6.95261335

$$$$

 OpenBabel10152419343D

 39 42  0  0  1  0  0  0  0  0999 V2000
   -1.1400   -6.4470  -26.7890 C   0  0  2  0  0  3  0  0  0  0  0  0
   -0.9110   -6.3010  -25.2870 C   0  0  0  0  0  0  0  0  0  0  0  0
    0.2320   -5.6210  -24.8380 C   0  0  0  0  0  3  0  0  0  0  0  0
    0.4540   -5.4350  -23.4770 C   0  0  0  0  0  3  0  0  0  0  0  0
   -0.4780   -5.8980  -22.5460 C   0  0  0  0  0  3  0  0  0  0  0  0
   -1.6390   -6.5460  -22.9620 C   0  0  0  0  0  0  0  0  0  0  0  0
   -1.8040   -6.8140  -24.3270 C   0  0  0  0  0  3  0  0  0  0  0  0
   -2.6780   -6.9620  -22.1070 N   0  0  0  0  0  0  0  0  0  0  0  0
   -3.0740   -8.2020  -21.6570 C   0  0  0  0  0  0  0  0  0  0  0  0
   -4.1330   -8.3260  -21.0450 O   0  0  0  0  0  0  0  0  0  0  0  0
   -3.2620   -6.2310  -21.7170 H   0  0  0  0  0  0  0  0  0  0  0  0
   -2.2290   -9.3930  -21.8450 C   0  0  0  0  0  0  0  0  0  0  0  0
   -2.0640   -9.8990  -23.1390 C   0  0  0  0  0  3  0  0  0  0  0  0
   -1.1970  -10.9720  -23.3520 C   0  0  0  0  0  3  0  0  0  0  0  0
   -0.5230  -11.5440  -22.2700 C   0  0  0  0  0  0  0  0  0  0  0  0
    0.6940  -12.9590  -22.5710 Br  0  0  0  0  0  0  0  0  0  0  0  0
   -0.7300  -11.0760  -20.9720 C   0  0  0  0  0  3  0  0  0  0  0  0
   -1.5950  -10.0010  -20.7550 C   0  0  0  0  0  3  0  0  0  0  0  0
   -0.3750   -7.5180  -27.4450 N   0  0  0  0  0  0  0  0  0  0  0  0
    0.2090   -7.2110  -28.2180 H   0  0  0  0  0  0  0  0  0  0  0  0
    0.2770   -8.5730  -26.8490 C   0  0  0  0  0  0  0  0  0  0  0  0
   -0.5900   -9.5410  -26.5130 N   0  0  0  0  0  0  0  0  0  0  0  0
   -0.0670  -10.7050  -26.1380 C   0  0  0  0  0  3  0  0  0  0  0  0
    1.2350  -10.9990  -26.0990 N   0  0  0  0  0  0  0  0  0  0  0  0
    2.1170  -10.0110  -26.3720 C   0  0  0  0  0  0  0  0  0  0  0  0
    3.5080  -10.2320  -26.3670 C   0  0  0  0  0  0  0  0  0  0  0  0
    4.4200   -9.1800  -26.5780 C   0  0  0  0  0  3  0  0  0  0  0  0
    3.9650   -7.8900  -26.7990 C   0  0  0  0  0  3  0  0  0  0  0  0
    2.5980   -7.6620  -26.8560 C   0  0  0  0  0  3  0  0  0  0  0  0
    1.6660   -8.7170  -26.6920 C   0  0  0  0  0  0  0  0  0  0  0  0
    4.1210  -11.5880  -26.1930 C   0  0  0  0  0  0  0  0  0  0  0  0
    4.1860  -12.1200  -24.9400 N   0  0  0  0  0  0  0  0  0  0  0  0
    4.5270  -12.2320  -27.1540 O   0  0  0  0  0  0  0  0  0  0  0  0
    4.5690  -13.0450  -24.8140 H   0  0  0  0  0  0  0  0  0  0  0  0
    3.8440  -11.6030  -24.1350 H   0  0  0  0  0  0  0  0  0  0  0  0
   -0.8310   -5.0890  -27.4520 C   0  0  0  0  0  2  0  0  0  0  0  0
    0.5610   -4.9640  -28.0680 C   0  0  0  0  0  2  0  0  0  0  0  0
    0.4920   -2.6270  -27.5480 C   0  0  0  0  0  1  0  0  0  0  0  0
    0.8610   -3.6340  -28.4810 O   0  0  0  0  0  0  0  0  0  0  0  0
  1 36  1  6  0  0  0
  1  2  1  0  0  0  0
  2  3  2  0  0  0  0
  2  7  1  0  0  0  0
  3  4  1  0  0  0  0
  4  5  2  0  0  0  0
  6  5  1  0  0  0  0
  6  8  1  0  0  0  0
  7  6  2  0  0  0  0
  8 11  1  0  0  0  0
  8  9  1  0  0  0  0
  9 10  2  0  0  0  0
 12  9  1  0  0  0  0
 12 18  1  0  0  0  0
 13 12  2  0  0  0  0
 14 13  1  0  0  0  0
 14 15  2  0  0  0  0
 15 17  1  0  0  0  0
 16 15  1  0  0  0  0
 17 18  2  0  0  0  0
 19 21  1  0  0  0  0
 19  1  1  0  0  0  0
 20 19  1  0  0  0  0
 21 30  2  0  0  0  0
 21 22  1  0  0  0  0
 22 23  2  0  0  0  0
 23 24  1  0  0  0  0
 25 26  1  0  0  0  0
 25 24  2  0  0  0  0
 26 31  1  0  0  0  0
 27 26  2  0  0  0  0
 28 27  1  0  0  0  0
 29 28  2  0  0  0  0
 29 30  1  0  0  0  0
 30 25  1  0  0  0  0
 31 32  1  0  0  0  0
 32 34  1  0  0  0  0
 32 35  1  0  0  0  0
 33 31  2  0  0  0  0
 37 36  1  0  0  0  0
 39 37  1  0  0  0  0
 39 38  1  0  0  0  0
M  END
>  <minimizedAffinity>
-6.67205334

$$$$

 OpenBabel10152419343D

 39 42  0  0  1  0  0  0  0  0999 V2000
    0.6240  -11.1200  -24.7700 C   0  0  2  0  0  3  0  0  0  0  0  0
    2.0690  -11.3140  -25.2240 C   0  0  0  0  0  0  0  0  0  0  0  0
    2.8200  -12.3620  -24.6690 C   0  0  0  0  0  3  0  0  0  0  0  0
    4.1270  -12.5930  -25.0860 C   0  0  0  0  0  3  0  0  0  0  0  0
    4.6920  -11.8010  -26.0870 C   0  0  0  0  0  3  0  0  0  0  0  0
    3.9600  -10.7750  -26.6820 C   0  0  0  0  0  0  0  0  0  0  0  0
    2.6820  -10.4890  -26.1870 C   0  0  0  0  0  3  0  0  0  0  0  0
    4.4100   -9.9870  -27.7600 N   0  0  0  0  0  0  0  0  0  0  0  0
    3.9860   -8.7820  -28.2740 C   0  0  0  0  0  0  0  0  0  0  0  0
    4.4360   -8.3750  -29.3430 O   0  0  0  0  0  0  0  0  0  0  0  0
    5.2100  -10.3400  -28.2740 H   0  0  0  0  0  0  0  0  0  0  0  0
    3.0320   -7.9290  -27.5450 C   0  0  0  0  0  0  0  0  0  0  0  0
    2.2790   -6.9980  -28.2680 C   0  0  0  0  0  3  0  0  0  0  0  0
    1.3070   -6.2420  -27.6110 C   0  0  0  0  0  3  0  0  0  0  0  0
    1.1130   -6.4050  -26.2370 C   0  0  0  0  0  0  0  0  0  0  0  0
   -0.2440   -5.4220  -25.3630 Br  0  0  0  0  0  0  0  0  0  0  0  0
    1.9020   -7.2940  -25.5050 C   0  0  0  0  0  3  0  0  0  0  0  0
    2.8750   -8.0530  -26.1590 C   0  0  0  0  0  3  0  0  0  0  0  0
    0.3100  -11.6260  -23.4250 N   0  0  0  0  0  0  0  0  0  0  0  0
    1.1200  -11.7950  -22.8360 H   0  0  0  0  0  0  0  0  0  0  0  0
   -0.7110  -11.2280  -22.5950 C   0  0  0  0  0  0  0  0  0  0  0  0
   -1.1040  -12.2380  -21.8020 N   0  0  0  0  0  0  0  0  0  0  0  0
   -1.9220  -11.9280  -20.8010 C   0  0  0  0  0  3  0  0  0  0  0  0
   -2.3570  -10.7010  -20.5010 N   0  0  0  0  0  0  0  0  0  0  0  0
   -2.0210   -9.6880  -21.3310 C   0  0  0  0  0  0  0  0  0  0  0  0
   -2.4250   -8.3610  -21.0880 C   0  0  0  0  0  0  0  0  0  0  0  0
   -2.1330   -7.3260  -21.9970 C   0  0  0  0  0  3  0  0  0  0  0  0
   -1.4360   -7.5920  -23.1640 C   0  0  0  0  0  3  0  0  0  0  0  0
   -0.9880   -8.8840  -23.3980 C   0  0  0  0  0  3  0  0  0  0  0  0
   -1.2310   -9.9290  -22.4710 C   0  0  0  0  0  0  0  0  0  0  0  0
   -3.1360   -7.9370  -19.8390 C   0  0  0  0  0  0  0  0  0  0  0  0
   -4.3630   -7.3550  -19.9520 N   0  0  0  0  0  0  0  0  0  0  0  0
   -2.6510   -8.1370  -18.7300 O   0  0  0  0  0  0  0  0  0  0  0  0
   -4.8650   -7.0930  -19.1170 H   0  0  0  0  0  0  0  0  0  0  0  0
   -4.7830   -7.1940  -20.8640 H   0  0  0  0  0  0  0  0  0  0  0  0
   -0.2960  -11.7820  -25.8170 C   0  0  0  0  0  2  0  0  0  0  0  0
   -1.6160  -11.0600  -26.0760 C   0  0  0  0  0  2  0  0  0  0  0  0
   -1.1370   -8.8630  -26.8980 C   0  0  0  0  0  1  0  0  0  0  0  0
   -1.5530  -10.1880  -27.2000 O   0  0  0  0  0  0  0  0  0  0  0  0
  1 36  1  6  0  0  0
  1 19  1  0  0  0  0
  2  1  1  0  0  0  0
  2  3  1  0  0  0  0
  4  3  2  0  0  0  0
  5  4  1  0  0  0  0
  6  7  1  0  0  0  0
  6  5  2  0  0  0  0
  7  2  2  0  0  0  0
  8  6  1  0  0  0  0
  9  8  1  0  0  0  0
  9 12  1  0  0  0  0
 10  9  2  0  0  0  0
 11  8  1  0  0  0  0
 12 18  1  0  0  0  0
 13 14  1  0  0  0  0
 13 12  2  0  0  0  0
 14 15  2  0  0  0  0
 15 17  1  0  0  0  0
 15 16  1  0  0  0  0
 18 17  2  0  0  0  0
 19 20  1  0  0  0  0
 19 21  1  0  0  0  0
 21 30  2  0  0  0  0
 21 22  1  0  0  0  0
 22 23  2  0  0  0  0
 23 24  1  0  0  0  0
 25 26  1  0  0  0  0
 25 24  2  0  0  0  0
 26 31  1  0  0  0  0
 27 26  2  0  0  0  0
 28 27  1  0  0  0  0
 29 28  2  0  0  0  0
 29 30  1  0  0  0  0
 30 25  1  0  0  0  0
 31 33  2  0  0  0  0
 32 31  1  0  0  0  0
 32 34  1  0  0  0  0
 35 32  1  0  0  0  0
 37 36  1  0  0  0  0
 39 38  1  0  0  0  0
 39 37  1  0  0  0  0
M  END
>  <minimizedAffinity>
-6.45968437

$$$$
