
 OpenBabel10152419343D

 39 42  0  0  1  0  0  0  0  0999 V2000
    0.6240  -11.1200  -24.7700 C   0  0  2  0  0  3  0  0  0  0  0  0
    2.0690  -11.3140  -25.2240 C   0  0  0  0  0  0  0  0  0  0  0  0
    2.8200  -12.3620  -24.6690 C   0  0  0  0  0  3  0  0  0  0  0  0
    4.1270  -12.5930  -25.0860 C   0  0  0  0  0  3  0  0  0  0  0  0
    4.6920  -11.8010  -26.0870 C   0  0  0  0  0  3  0  0  0  0  0  0
    3.9600  -10.7750  -26.6820 C   0  0  0  0  0  0  0  0  0  0  0  0
    2.6820  -10.4890  -26.1870 C   0  0  0  0  0  3  0  0  0  0  0  0
    4.4100   -9.9870  -27.7600 N   0  0  0  0  0  0  0  0  0  0  0  0
    3.9860   -8.7820  -28.2740 C   0  0  0  0  0  0  0  0  0  0  0  0
    4.4360   -8.3750  -29.3430 O   0  0  0  0  0  0  0  0  0  0  0  0
    5.2100  -10.3400  -28.2740 H   0  0  0  0  0  0  0  0  0  0  0  0
    3.0320   -7.9290  -27.5450 C   0  0  0  0  0  0  0  0  0  0  0  0
    2.2790   -6.9980  -28.2680 C   0  0  0  0  0  3  0  0  0  0  0  0
    1.3070   -6.2420  -27.6110 C   0  0  0  0  0  3  0  0  0  0  0  0
    1.1130   -6.4050  -26.2370 C   0  0  0  0  0  0  0  0  0  0  0  0
   -0.2440   -5.4220  -25.3630 Br  0  0  0  0  0  0  0  0  0  0  0  0
    1.9020   -7.2940  -25.5050 C   0  0  0  0  0  3  0  0  0  0  0  0
    2.8750   -8.0530  -26.1590 C   0  0  0  0  0  3  0  0  0  0  0  0
    0.3100  -11.6260  -23.4250 N   0  0  0  0  0  0  0  0  0  0  0  0
    1.1200  -11.7950  -22.8360 H   0  0  0  0  0  0  0  0  0  0  0  0
   -0.7110  -11.2280  -22.5950 C   0  0  0  0  0  0  0  0  0  0  0  0
   -1.1040  -12.2380  -21.8020 N   0  0  0  0  0  0  0  0  0  0  0  0
   -1.9220  -11.9280  -20.8010 C   0  0  0  0  0  3  0  0  0  0  0  0
   -2.3570  -10.7010  -20.5010 N   0  0  0  0  0  0  0  0  0  0  0  0
   -2.0210   -9.6880  -21.3310 C   0  0  0  0  0  0  0  0  0  0  0  0
   -2.4250   -8.3610  -21.0880 C   0  0  0  0  0  0  0  0  0  0  0  0
   -2.1330   -7.3260  -21.9970 C   0  0  0  0  0  3  0  0  0  0  0  0
   -1.4360   -7.5920  -23.1640 C   0  0  0  0  0  3  0  0  0  0  0  0
   -0.9880   -8.8840  -23.3980 C   0  0  0  0  0  3  0  0  0  0  0  0
   -1.2310   -9.9290  -22.4710 C   0  0  0  0  0  0  0  0  0  0  0  0
   -3.1360   -7.9370  -19.8390 C   0  0  0  0  0  0  0  0  0  0  0  0
   -4.3630   -7.3550  -19.9520 N   0  0  0  0  0  0  0  0  0  0  0  0
   -2.6510   -8.1370  -18.7300 O   0  0  0  0  0  0  0  0  0  0  0  0
   -4.8650   -7.0930  -19.1170 H   0  0  0  0  0  0  0  0  0  0  0  0
   -4.7830   -7.1940  -20.8640 H   0  0  0  0  0  0  0  0  0  0  0  0
   -0.2960  -11.7820  -25.8170 C   0  0  0  0  0  2  0  0  0  0  0  0
   -1.6160  -11.0600  -26.0760 C   0  0  0  0  0  2  0  0  0  0  0  0
   -1.1370   -8.8630  -26.8980 C   0  0  0  0  0  1  0  0  0  0  0  0
   -1.5530  -10.1880  -27.2000 O   0  0  0  0  0  0  0  0  0  0  0  0
  1 36  1  6  0  0  0
  1 19  1  0  0  0  0
  2  1  1  0  0  0  0
  2  3  1  0  0  0  0
  4  3  2  0  0  0  0
  5  4  1  0  0  0  0
  6  7  1  0  0  0  0
  6  5  2  0  0  0  0
  7  2  2  0  0  0  0
  8  6  1  0  0  0  0
  9  8  1  0  0  0  0
  9 12  1  0  0  0  0
 10  9  2  0  0  0  0
 11  8  1  0  0  0  0
 12 18  1  0  0  0  0
 13 14  1  0  0  0  0
 13 12  2  0  0  0  0
 14 15  2  0  0  0  0
 15 17  1  0  0  0  0
 15 16  1  0  0  0  0
 18 17  2  0  0  0  0
 19 20  1  0  0  0  0
 19 21  1  0  0  0  0
 21 30  2  0  0  0  0
 21 22  1  0  0  0  0
 22 23  2  0  0  0  0
 23 24  1  0  0  0  0
 25 26  1  0  0  0  0
 25 24  2  0  0  0  0
 26 31  1  0  0  0  0
 27 26  2  0  0  0  0
 28 27  1  0  0  0  0
 29 28  2  0  0  0  0
 29 30  1  0  0  0  0
 30 25  1  0  0  0  0
 31 33  2  0  0  0  0
 32 31  1  0  0  0  0
 32 34  1  0  0  0  0
 35 32  1  0  0  0  0
 37 36  1  0  0  0  0
 39 38  1  0  0  0  0
 39 37  1  0  0  0  0
M  END
>  <minimizedAffinity>
-6.45968437

$$$$
