
 OpenBabel10152419343D

 39 42  0  0  1  0  0  0  0  0999 V2000
    0.9550   -6.5290  -26.8810 C   0  0  2  0  0  3  0  0  0  0  0  0
    2.2630   -6.9860  -27.5250 C   0  0  0  0  0  0  0  0  0  0  0  0
    3.4640   -6.3810  -27.1240 C   0  0  0  0  0  3  0  0  0  0  0  0
    4.6780   -6.7980  -27.6600 C   0  0  0  0  0  3  0  0  0  0  0  0
    4.7130   -7.8460  -28.5820 C   0  0  0  0  0  3  0  0  0  0  0  0
    3.5400   -8.4900  -28.9740 C   0  0  0  0  0  0  0  0  0  0  0  0
    2.3170   -7.9980  -28.5020 C   0  0  0  0  0  3  0  0  0  0  0  0
    3.4850   -9.6130  -29.8220 N   0  0  0  0  0  0  0  0  0  0  0  0
    3.6720  -10.9590  -29.5980 C   0  0  0  0  0  0  0  0  0  0  0  0
    3.7420  -11.7380  -30.5460 O   0  0  0  0  0  0  0  0  0  0  0  0
    3.2520   -9.4350  -30.7920 H   0  0  0  0  0  0  0  0  0  0  0  0
    3.7400  -11.5080  -28.2330 C   0  0  0  0  0  0  0  0  0  0  0  0
    4.6960  -10.9920  -27.3520 C   0  0  0  0  0  3  0  0  0  0  0  0
    4.7190  -11.4350  -26.0280 C   0  0  0  0  0  3  0  0  0  0  0  0
    3.8070  -12.4040  -25.6040 C   0  0  0  0  0  0  0  0  0  0  0  0
    3.8040  -12.9580  -23.7970 Br  0  0  0  0  0  0  0  0  0  0  0  0
    2.8890  -12.9590  -26.4980 C   0  0  0  0  0  3  0  0  0  0  0  0
    2.8620  -12.5180  -27.8220 C   0  0  0  0  0  3  0  0  0  0  0  0
    0.0110   -7.6030  -26.5360 N   0  0  0  0  0  0  0  0  0  0  0  0
    0.1940   -8.4920  -26.9920 H   0  0  0  0  0  0  0  0  0  0  0  0
   -0.5180   -7.8910  -25.3000 C   0  0  0  0  0  0  0  0  0  0  0  0
   -1.4650   -7.0000  -24.9650 N   0  0  0  0  0  0  0  0  0  0  0  0
   -2.2110   -7.2930  -23.9040 C   0  0  0  0  0  3  0  0  0  0  0  0
   -2.1200   -8.4030  -23.1680 N   0  0  0  0  0  0  0  0  0  0  0  0
   -1.1270   -9.2760  -23.4570 C   0  0  0  0  0  0  0  0  0  0  0  0
   -0.9620  -10.4790  -22.7430 C   0  0  0  0  0  0  0  0  0  0  0  0
    0.1180  -11.3430  -23.0010 C   0  0  0  0  0  3  0  0  0  0  0  0
    1.0540  -11.0280  -23.9730 C   0  0  0  0  0  3  0  0  0  0  0  0
    0.8810   -9.8720  -24.7200 C   0  0  0  0  0  3  0  0  0  0  0  0
   -0.2260   -9.0130  -24.5060 C   0  0  0  0  0  0  0  0  0  0  0  0
   -1.9340  -10.9560  -21.7070 C   0  0  0  0  0  0  0  0  0  0  0  0
   -2.1510  -12.2950  -21.5830 N   0  0  0  0  0  0  0  0  0  0  0  0
   -2.5020  -10.1710  -20.9560 O   0  0  0  0  0  0  0  0  0  0  0  0
   -2.7800  -12.6310  -20.8690 H   0  0  0  0  0  0  0  0  0  0  0  0
   -1.6790  -12.9590  -22.1910 H   0  0  0  0  0  0  0  0  0  0  0  0
    0.2860   -5.5160  -27.8320 C   0  0  0  0  0  2  0  0  0  0  0  0
    0.3410   -4.0590  -27.3790 C   0  0  0  0  0  2  0  0  0  0  0  0
   -0.9230   -2.3490  -26.2760 C   0  0  0  0  0  1  0  0  0  0  0  0
   -0.9450   -3.5340  -27.0600 O   0  0  0  0  0  0  0  0  0  0  0  0
  1 36  1  6  0  0  0
  1 19  1  0  0  0  0
  2  3  1  0  0  0  0
  2  1  1  0  0  0  0
  4  3  2  0  0  0  0
  5  4  1  0  0  0  0
  6  5  2  0  0  0  0
  6  7  1  0  0  0  0
  7  2  2  0  0  0  0
  8  9  1  0  0  0  0
  8  6  1  0  0  0  0
  9 12  1  0  0  0  0
 10  9  2  0  0  0  0
 11  8  1  0  0  0  0
 12 18  2  0  0  0  0
 12 13  1  0  0  0  0
 13 14  2  0  0  0  0
 14 15  1  0  0  0  0
 15 16  1  0  0  0  0
 17 15  2  0  0  0  0
 18 17  1  0  0  0  0
 19 21  1  0  0  0  0
 20 19  1  0  0  0  0
 21 22  2  0  0  0  0
 21 30  1  0  0  0  0
 22 23  1  0  0  0  0
 23 24  2  0  0  0  0
 25 24  1  0  0  0  0
 25 26  1  0  0  0  0
 26 31  1  0  0  0  0
 27 26  2  0  0  0  0
 28 27  1  0  0  0  0
 29 30  1  0  0  0  0
 29 28  2  0  0  0  0
 30 25  2  0  0  0  0
 31 32  1  0  0  0  0
 31 33  2  0  0  0  0
 32 34  1  0  0  0  0
 35 32  1  0  0  0  0
 36 37  1  0  0  0  0
 37 39  1  0  0  0  0
 39 38  1  0  0  0  0
M  END
>  <minimizedAffinity>
-6.95261335

$$$$
