
 OpenBabel11232420293D

 37 41  0  0  1  0  0  0  0  0999 V2000
   -7.9930   -2.9140  -21.4170 C   0  0  0  0  0  0  0  0  0  0  0  0
   -8.1890   -2.2960  -22.4740 O   0  0  0  0  0  0  0  0  0  0  0  0
   -8.0630   -4.3000  -21.3580 N   0  0  0  0  0  0  0  0  0  0  0  0
   -8.4250   -4.9970  -22.6140 C   0  0  0  0  0  2  0  0  0  0  0  0
   -8.3890   -6.5340  -22.6120 C   0  0  0  0  0  2  0  0  0  0  0  0
   -9.0320   -7.0310  -21.3950 N   0  0  0  0  0  0  0  0  0  0  0  0
   -8.4580   -6.5270  -20.1410 C   0  0  1  0  0  3  0  0  0  0  0  0
   -7.0040   -6.1840  -19.9540 C   0  0  0  0  0  2  0  0  0  0  0  0
   -8.0080   -5.0810  -20.1340 C   0  0  1  0  0  3  0  0  0  0  0  0
   -9.5990   -8.3120  -21.4920 C   0  0  0  0  0  0  0  0  0  0  0  0
   -9.6100   -8.9010  -22.7030 N   0  0  0  0  0  0  0  0  0  0  0  0
  -10.2350  -10.0800  -22.8120 C   0  0  0  0  0  3  0  0  0  0  0  0
  -10.9160  -10.6990  -21.8460 N   0  0  0  0  0  0  0  0  0  0  0  0
  -10.9390  -10.0610  -20.6730 C   0  0  0  0  0  0  0  0  0  0  0  0
  -10.2440   -8.8910  -20.4030 C   0  0  0  0  0  0  0  0  0  0  0  0
  -10.2760   -8.3420  -19.0000 C   0  0  2  0  0  3  0  0  0  0  0  0
   -9.2320   -9.0290  -18.1050 C   0  0  0  0  0  1  0  0  0  0  0  0
  -11.6740   -8.5320  -18.4100 C   0  0  0  0  0  2  0  0  0  0  0  0
  -12.1430   -9.9650  -18.5520 C   0  0  0  0  0  0  0  0  0  0  0  0
  -12.8870  -10.4880  -17.7270 O   0  0  0  0  0  0  0  0  0  0  0  0
  -11.7720  -10.6050  -19.6990 N   0  0  0  0  0  0  0  0  0  0  0  0
  -12.1800  -11.5100  -19.8920 H   0  0  0  0  0  0  0  0  0  0  0  0
   -7.8120   -2.1130  -20.1250 C   0  0  1  0  0  3  0  0  0  0  0  0
   -9.0080   -2.1900  -19.1910 C   0  0  0  0  0  0  0  0  0  0  0  0
  -10.3260   -2.1660  -19.6790 C   0  0  0  0  0  3  0  0  0  0  0  0
  -11.4090   -2.2840  -18.8040 C   0  0  0  0  0  3  0  0  0  0  0  0
  -11.1880   -2.4330  -17.4370 C   0  0  0  0  0  0  0  0  0  0  0  0
  -12.5200   -2.5870  -16.3640 Cl  0  0  0  0  0  0  0  0  0  0  0  0
   -9.8880   -2.4620  -16.9370 C   0  0  0  0  0  3  0  0  0  0  0  0
   -8.8020   -2.3440  -17.8090 C   0  0  0  0  0  3  0  0  0  0  0  0
   -6.5480   -2.5980  -19.3710 C   0  0  0  0  0  2  0  0  0  0  0  0
   -6.6530   -4.0080  -18.8440 N   0  0  0  0  0  4  0  0  0  0  0  0
   -5.6670   -4.3090  -18.6860 H   0  0  0  0  0  0  0  0  0  0  0  0
   -6.9850   -4.6270  -19.5980 H   0  0  0  0  0  0  0  0  0  0  0  0
   -6.9920   -5.5600  -16.9530 C   0  0  0  0  0  1  0  0  0  0  0  0
   -7.4450   -4.2570  -17.5950 C   0  0  0  0  0  3  0  0  0  0  0  0
   -7.2360   -3.0710  -16.6610 C   0  0  0  0  0  1  0  0  0  0  0  0
  1  3  1  0  0  0  0
  1 23  1  0  0  0  0
  2  1  2  0  0  0  0
  3  9  1  0  0  0  0
  4  5  1  0  0  0  0
  4  3  1  0  0  0  0
  5  6  1  0  0  0  0
  6  7  1  0  0  0  0
  7  9  1  0  0  0  0
  7  8  1  6  0  0  0
  9  8  1  6  0  0  0
 10  6  1  0  0  0  0
 10 15  1  0  0  0  0
 11 10  2  0  0  0  0
 12 11  1  0  0  0  0
 12 13  2  0  0  0  0
 13 14  1  0  0  0  0
 14 15  2  0  0  0  0
 14 21  1  0  0  0  0
 15 16  1  0  0  0  0
 16 18  1  0  0  0  0
 16 17  1  1  0  0  0
 19 18  1  0  0  0  0
 19 20  2  0  0  0  0
 21 19  1  0  0  0  0
 22 21  1  0  0  0  0
 23 31  1  1  0  0  0
 23 24  1  0  0  0  0
 24 30  1  0  0  0  0
 25 24  2  0  0  0  0
 25 26  1  0  0  0  0
 26 27  2  0  0  0  0
 27 29  1  0  0  0  0
 27 28  1  0  0  0  0
 30 29  2  0  0  0  0
 31 32  1  0  0  0  0
 32 33  1  0  0  0  0
 32 36  1  0  0  0  0
 34 32  1  0  0  0  0
 36 35  1  0  0  0  0
 36 37  1  0  0  0  0
M  END
>  <minimizedAffinity>
72.1122513

$$$$
