
 OpenBabel11232420343D

 38 42  0  0  1  0  0  0  0  0999 V2000
   -1.5920   -1.0150  -18.2020 C   0  0  0  0  0  0  0  0  0  0  0  0
   -2.6040   -1.7690  -18.5830 N   0  0  0  0  0  0  0  0  0  0  0  0
   -3.1140   -2.3650  -17.4600 C   0  0  0  0  0  0  0  0  0  0  0  0
   -2.3370   -2.0350  -16.3750 C   0  0  0  0  0  3  0  0  0  0  0  0
   -1.3240   -1.2430  -16.8670 N   0  0  0  0  0  0  0  0  0  0  0  0
   -4.3050   -3.1990  -17.4780 C   0  0  0  0  0  0  0  0  0  0  0  0
   -4.3880   -4.3970  -16.7500 C   0  0  0  0  0  3  0  0  0  0  0  0
   -5.5560   -5.1690  -16.7840 C   0  0  0  0  0  3  0  0  0  0  0  0
   -6.6420   -4.7480  -17.5450 C   0  0  0  0  0  0  0  0  0  0  0  0
   -7.7460   -5.5060  -17.5620 F   0  0  0  0  0  0  0  0  0  0  0  0
   -6.5780   -3.5620  -18.2690 C   0  0  0  0  0  0  0  0  0  0  0  0
   -7.9160   -3.0350  -19.2130 Cl  0  0  0  0  0  0  0  0  0  0  0  0
   -5.4150   -2.7890  -18.2350 C   0  0  0  0  0  3  0  0  0  0  0  0
   -0.8250    1.4700  -21.5560 N   0  0  0  0  0  0  0  0  0  0  0  0
    0.0240    0.2810  -21.4920 C   0  0  0  0  0  2  0  0  0  0  0  0
   -0.5160   -0.7310  -20.4840 C   0  0  0  0  0  2  0  0  0  0  0  0
   -0.8940   -0.0710  -19.1480 C   0  0  1  0  0  3  0  0  0  0  0  0
   -1.6550    1.2520  -19.2760 C   0  0  0  0  0  2  0  0  0  0  0  0
   -1.0030    2.1810  -20.2940 C   0  0  0  0  0  2  0  0  0  0  0  0
   -2.4980    0.2680  -22.8380 C   0  0  0  0  0  0  0  0  0  0  0  0
   -3.5440    0.3830  -23.7470 C   0  0  0  0  0  0  0  0  0  0  0  0
   -4.2090   -0.7170  -24.2560 N   0  0  0  0  0  0  0  0  0  0  0  0
   -3.9550    1.5560  -24.2410 N   0  0  0  0  0  0  0  0  0  0  0  0
   -3.3560    2.6390  -23.7530 C   0  0  0  0  0  3  0  0  0  0  0  0
   -2.3130    2.6570  -22.9180 N   0  0  0  0  0  0  0  0  0  0  0  0
   -1.8920    1.4660  -22.4470 C   0  0  0  0  0  0  0  0  0  0  0  0
   -4.9420   -0.4630  -24.9080 H   0  0  0  0  0  0  0  0  0  0  0  0
   -4.4420   -1.4620  -23.6150 H   0  0  0  0  0  0  0  0  0  0  0  0
   -1.7070   -2.0710  -23.2920 C   0  0  0  0  0  1  0  0  0  0  0  0
   -2.1280   -1.0630  -22.2300 C   0  0  0  0  0  2  0  0  0  0  0  0
   -0.2380   -0.7350  -16.0460 C   0  0  0  0  0  2  0  0  0  0  0  0
   -0.0480    0.7860  -16.1490 C   0  0  0  0  0  2  0  0  0  0  0  0
   -0.9400    1.5480  -15.1890 N   0  0  0  0  0  4  0  0  0  0  0  0
   -1.3990    0.7370  -13.9830 C   0  0  0  0  0  2  0  0  0  0  0  0
   -2.8830    1.0310  -13.8390 C   0  0  0  0  0  2  0  0  0  0  0  0
   -3.1050    2.3130  -14.6150 C   0  0  0  0  0  2  0  0  0  0  0  0
   -2.1940    2.1380  -15.8090 C   0  0  0  0  0  2  0  0  0  0  0  0
   -0.3930    2.3300  -14.7970 H   0  0  0  0  0  0  0  0  0  0  0  0
  1  5  1  0  0  0  0
  2  1  2  0  0  0  0
  2  3  1  0  0  0  0
  3  4  2  0  0  0  0
  5  4  1  0  0  0  0
  5 31  1  0  0  0  0
  6  3  1  0  0  0  0
  6  7  1  0  0  0  0
  8  7  2  0  0  0  0
  9  8  1  0  0  0  0
 10  9  1  0  0  0  0
 11 13  1  0  0  0  0
 11  9  2  0  0  0  0
 12 11  1  0  0  0  0
 13  6  2  0  0  0  0
 14 15  1  0  0  0  0
 14 19  1  0  0  0  0
 15 16  1  0  0  0  0
 16 17  1  0  0  0  0
 17  1  1  1  0  0  0
 18 17  1  0  0  0  0
 19 18  1  0  0  0  0
 20 26  1  0  0  0  0
 20 30  1  0  0  0  0
 21 20  2  0  0  0  0
 22 21  1  0  0  0  0
 22 28  1  0  0  0  0
 23 24  2  0  0  0  0
 23 21  1  0  0  0  0
 24 25  1  0  0  0  0
 25 26  2  0  0  0  0
 26 14  1  0  0  0  0
 27 22  1  0  0  0  0
 29 30  1  0  0  0  0
 32 31  1  0  0  0  0
 32 33  1  0  0  0  0
 33 38  1  0  0  0  0
 33 34  1  0  0  0  0
 34 35  1  0  0  0  0
 36 35  1  0  0  0  0
 37 33  1  0  0  0  0
 37 36  1  0  0  0  0
M  END
>  <minimizedAffinity>
-5.64855433

$$$$
