
 OpenBabel11232420343D

 38 42  0  0  1  0  0  0  0  0999 V2000
   -4.0480    0.1980  -20.3590 C   0  0  0  0  0  0  0  0  0  0  0  0
   -4.7770   -0.5830  -19.5860 N   0  0  0  0  0  0  0  0  0  0  0  0
   -5.7280   -1.1670  -20.3810 C   0  0  0  0  0  0  0  0  0  0  0  0
   -5.6320   -0.6600  -21.6560 C   0  0  0  0  0  3  0  0  0  0  0  0
   -4.6150    0.2660  -21.6150 N   0  0  0  0  0  0  0  0  0  0  0  0
   -6.6600   -2.1700  -19.8920 C   0  0  0  0  0  0  0  0  0  0  0  0
   -7.9630   -2.2920  -20.4040 C   0  0  0  0  0  3  0  0  0  0  0  0
   -8.8280   -3.2760  -19.9140 C   0  0  0  0  0  3  0  0  0  0  0  0
   -8.3980   -4.1410  -18.9140 C   0  0  0  0  0  0  0  0  0  0  0  0
   -9.2480   -5.0740  -18.4610 F   0  0  0  0  0  0  0  0  0  0  0  0
   -7.1100   -4.0370  -18.3980 C   0  0  0  0  0  0  0  0  0  0  0  0
   -6.5710   -5.1020  -17.1590 Cl  0  0  0  0  0  0  0  0  0  0  0  0
   -6.2440   -3.0560  -18.8850 C   0  0  0  0  0  3  0  0  0  0  0  0
   -1.0440    1.6660  -17.7430 N   0  0  0  0  0  0  0  0  0  0  0  0
   -1.8140    2.7150  -18.4110 C   0  0  0  0  0  2  0  0  0  0  0  0
   -3.0770    2.1490  -19.0550 C   0  0  0  0  0  2  0  0  0  0  0  0
   -2.7930    0.8720  -19.8620 C   0  0  1  0  0  3  0  0  0  0  0  0
   -1.8580   -0.1290  -19.1740 C   0  0  0  0  0  2  0  0  0  0  0  0
   -0.6270    0.5570  -18.5950 C   0  0  0  0  0  2  0  0  0  0  0  0
   -0.8500    0.2230  -15.8030 C   0  0  0  0  0  0  0  0  0  0  0  0
   -1.2260    0.0290  -14.4780 C   0  0  0  0  0  0  0  0  0  0  0  0
   -0.8520   -1.0890  -13.7560 N   0  0  0  0  0  0  0  0  0  0  0  0
   -2.0200    0.8780  -13.8130 N   0  0  0  0  0  0  0  0  0  0  0  0
   -2.3760    1.9790  -14.4670 C   0  0  0  0  0  3  0  0  0  0  0  0
   -2.1210    2.2560  -15.7500 N   0  0  0  0  0  0  0  0  0  0  0  0
   -1.3410    1.3800  -16.4160 C   0  0  0  0  0  0  0  0  0  0  0  0
   -1.2110   -1.0790  -12.8080 H   0  0  0  0  0  0  0  0  0  0  0  0
    0.0990   -1.4140  -13.8540 H   0  0  0  0  0  0  0  0  0  0  0  0
   -0.3030   -2.1620  -16.3610 C   0  0  0  0  0  1  0  0  0  0  0  0
    0.1240   -0.7050  -16.4860 C   0  0  0  0  0  2  0  0  0  0  0  0
   -4.2370    1.0860  -22.7540 C   0  0  0  0  0  2  0  0  0  0  0  0
   -2.7720    1.5490  -22.7190 C   0  0  0  0  0  2  0  0  0  0  0  0
   -1.8600    0.6490  -23.5290 N   0  0  0  0  0  4  0  0  0  0  0  0
   -2.5040   -0.6590  -23.9730 C   0  0  0  0  0  2  0  0  0  0  0  0
   -1.4690   -1.7350  -23.6910 C   0  0  0  0  0  2  0  0  0  0  0  0
   -0.1550   -0.9920  -23.5680 C   0  0  0  0  0  2  0  0  0  0  0  0
   -0.5580    0.2720  -22.8440 C   0  0  0  0  0  2  0  0  0  0  0  0
   -1.6180    1.1420  -24.4020 H   0  0  0  0  0  0  0  0  0  0  0  0
  1  2  2  0  0  0  0
  3  6  1  0  0  0  0
  3  2  1  0  0  0  0
  4  5  1  0  0  0  0
  4  3  2  0  0  0  0
  5  1  1  0  0  0  0
  6 13  1  0  0  0  0
  7  8  1  0  0  0  0
  7  6  2  0  0  0  0
  8  9  2  0  0  0  0
  9 10  1  0  0  0  0
  9 11  1  0  0  0  0
 11 12  1  0  0  0  0
 13 11  2  0  0  0  0
 14 26  1  0  0  0  0
 15 14  1  0  0  0  0
 16 15  1  0  0  0  0
 17  1  1  1  0  0  0
 17 18  1  0  0  0  0
 17 16  1  0  0  0  0
 18 19  1  0  0  0  0
 19 14  1  0  0  0  0
 20 21  1  0  0  0  0
 21 23  2  0  0  0  0
 21 22  1  0  0  0  0
 22 27  1  0  0  0  0
 24 23  1  0  0  0  0
 25 24  2  0  0  0  0
 26 20  2  0  0  0  0
 26 25  1  0  0  0  0
 28 22  1  0  0  0  0
 30 29  1  0  0  0  0
 30 20  1  0  0  0  0
 31 32  1  0  0  0  0
 31  5  1  0  0  0  0
 33 37  1  0  0  0  0
 33 32  1  0  0  0  0
 34 35  1  0  0  0  0
 34 33  1  0  0  0  0
 35 36  1  0  0  0  0
 36 37  1  0  0  0  0
 38 33  1  0  0  0  0
M  END
>  <minimizedAffinity>
-6.86898136

$$$$
