
 OpenBabel11232420343D

 38 42  0  0  1  0  0  0  0  0999 V2000
   -4.4910   -1.1560  -19.1020 C   0  0  0  0  0  0  0  0  0  0  0  0
   -3.7020   -0.2260  -18.6020 N   0  0  0  0  0  0  0  0  0  0  0  0
   -3.7370   -0.3530  -17.2390 C   0  0  0  0  0  0  0  0  0  0  0  0
   -4.6410   -1.3300  -16.8940 C   0  0  0  0  0  3  0  0  0  0  0  0
   -5.1770   -1.7800  -18.0790 N   0  0  0  0  0  0  0  0  0  0  0  0
   -2.9100    0.4460  -16.3480 C   0  0  0  0  0  0  0  0  0  0  0  0
   -3.0680    1.8370  -16.2310 C   0  0  0  0  0  3  0  0  0  0  0  0
   -2.2610    2.5710  -15.3560 C   0  0  0  0  0  3  0  0  0  0  0  0
   -1.2940    1.9220  -14.5950 C   0  0  0  0  0  0  0  0  0  0  0  0
   -0.5320    2.6490  -13.7670 F   0  0  0  0  0  0  0  0  0  0  0  0
   -1.1260    0.5450  -14.6960 C   0  0  0  0  0  0  0  0  0  0  0  0
    0.0680   -0.2660  -13.7600 Cl  0  0  0  0  0  0  0  0  0  0  0  0
   -1.9320   -0.1910  -15.5680 C   0  0  0  0  0  3  0  0  0  0  0  0
   -3.9650   -0.7530  -23.2940 N   0  0  0  0  0  0  0  0  0  0  0  0
   -5.3500   -0.5980  -22.8530 C   0  0  0  0  0  2  0  0  0  0  0  0
   -5.4310   -0.4090  -21.3400 C   0  0  0  0  0  2  0  0  0  0  0  0
   -4.5680   -1.4320  -20.5830 C   0  0  1  0  0  3  0  0  0  0  0  0
   -3.1760   -1.6660  -21.1790 C   0  0  0  0  0  2  0  0  0  0  0  0
   -3.2350   -1.8630  -22.6890 C   0  0  0  0  0  2  0  0  0  0  0  0
   -1.8600    0.3440  -23.7950 C   0  0  0  0  0  0  0  0  0  0  0  0
   -1.2400    1.5550  -24.0870 C   0  0  0  0  0  0  0  0  0  0  0  0
    0.1270    1.6680  -24.2550 N   0  0  0  0  0  0  0  0  0  0  0  0
   -1.9070    2.7110  -24.1780 N   0  0  0  0  0  0  0  0  0  0  0  0
   -3.2290    2.6370  -24.0500 C   0  0  0  0  0  3  0  0  0  0  0  0
   -3.9320    1.5480  -23.7220 N   0  0  0  0  0  0  0  0  0  0  0  0
   -3.2440    0.3940  -23.6090 C   0  0  0  0  0  0  0  0  0  0  0  0
    0.4180    2.6170  -24.4600 H   0  0  0  0  0  0  0  0  0  0  0  0
    0.5950    0.9490  -24.7880 H   0  0  0  0  0  0  0  0  0  0  0  0
    0.0200   -0.9520  -22.7530 C   0  0  0  0  0  1  0  0  0  0  0  0
   -1.0880   -0.9530  -23.7970 C   0  0  0  0  0  2  0  0  0  0  0  0
   -6.2320   -2.7760  -18.1500 C   0  0  0  0  0  2  0  0  0  0  0  0
   -7.4270   -2.3450  -19.0160 C   0  0  0  0  0  2  0  0  0  0  0  0
   -8.4200   -3.4690  -19.2350 N   0  0  0  0  0  4  0  0  0  0  0  0
   -8.2440   -4.6520  -18.2900 C   0  0  0  0  0  2  0  0  0  0  0  0
   -8.3480   -5.8890  -19.1680 C   0  0  0  0  0  2  0  0  0  0  0  0
   -9.0380   -5.4160  -20.4300 C   0  0  0  0  0  2  0  0  0  0  0  0
   -8.4380   -4.0440  -20.6400 C   0  0  0  0  0  2  0  0  0  0  0  0
   -9.3640   -3.1040  -19.0380 H   0  0  0  0  0  0  0  0  0  0  0  0
  1  2  2  0  0  0  0
  1  5  1  0  0  0  0
  2  3  1  0  0  0  0
  3  4  2  0  0  0  0
  3  6  1  0  0  0  0
  5  4  1  0  0  0  0
  6  7  2  0  0  0  0
  6 13  1  0  0  0  0
  7  8  1  0  0  0  0
  8  9  2  0  0  0  0
  9 10  1  0  0  0  0
 11  9  1  0  0  0  0
 11 12  1  0  0  0  0
 13 11  2  0  0  0  0
 14 15  1  0  0  0  0
 14 19  1  0  0  0  0
 15 16  1  0  0  0  0
 16 17  1  0  0  0  0
 17  1  1  1  0  0  0
 18 17  1  0  0  0  0
 19 18  1  0  0  0  0
 20 26  1  0  0  0  0
 21 20  2  0  0  0  0
 22 21  1  0  0  0  0
 23 21  1  0  0  0  0
 23 24  2  0  0  0  0
 24 25  1  0  0  0  0
 25 26  2  0  0  0  0
 26 14  1  0  0  0  0
 27 22  1  0  0  0  0
 28 22  1  0  0  0  0
 30 20  1  0  0  0  0
 30 29  1  0  0  0  0
 31  5  1  0  0  0  0
 32 31  1  0  0  0  0
 33 38  1  0  0  0  0
 33 32  1  0  0  0  0
 33 34  1  0  0  0  0
 35 34  1  0  0  0  0
 36 35  1  0  0  0  0
 37 36  1  0  0  0  0
 37 33  1  0  0  0  0
M  END
>  <minimizedAffinity>
-6.20654583

$$$$
