
 OpenBabel11232420353D

 42 48  0  0  1  0  0  0  0  0999 V2000
   -4.9610   -2.1260  -19.5460 C   0  0  0  0  0  0  0  0  0  0  0  0
   -4.0260   -1.5670  -18.6930 N   0  0  0  0  0  0  0  0  0  0  0  0
   -3.5100   -0.5530  -19.3480 C   0  0  0  0  0  0  0  0  0  0  0  0
   -4.0350   -0.4670  -20.6030 N   0  0  0  0  0  0  0  0  0  0  0  0
   -5.0130   -1.4250  -20.7460 C   0  0  0  0  0  0  0  0  0  0  0  0
   -3.6650    0.6010  -21.5140 C   0  0  0  0  0  2  0  0  0  0  0  0
   -2.3650    1.1670  -21.2360 O   0  0  0  0  0  0  0  0  0  0  0  0
   -2.0200    1.2780  -19.9130 C   0  0  0  0  0  0  0  0  0  0  0  0
   -1.0720    2.2390  -19.5760 C   0  0  0  0  0  3  0  0  0  0  0  0
   -0.6830    2.3880  -18.2400 C   0  0  0  0  0  3  0  0  0  0  0  0
   -1.2210    1.5660  -17.2370 C   0  0  0  0  0  0  0  0  0  0  0  0
   -2.1430    0.5730  -17.5970 C   0  0  0  0  0  3  0  0  0  0  0  0
   -2.5420    0.4330  -18.9300 C   0  0  0  0  0  0  0  0  0  0  0  0
   -0.8460    1.7320  -15.8440 C   0  0  0  0  0  0  0  0  0  0  0  0
    0.0720    1.0140  -15.0420 C   0  0  0  0  0  3  0  0  0  0  0  0
    0.1040    1.4480  -13.7780 N   0  0  0  0  0  0  0  0  0  0  0  0
   -0.7910    2.4490  -13.7680 N   0  0  0  0  0  0  0  0  0  0  0  0
   -1.3910    2.6550  -14.9770 C   0  0  0  0  0  3  0  0  0  0  0  0
   -0.9480    2.9440  -12.8960 H   0  0  0  0  0  0  0  0  0  0  0  0
   -7.3350   -5.4250  -18.0400 C   0  0  0  0  0  0  0  0  0  0  0  0
   -6.0570   -5.1000  -17.5320 C   0  0  0  0  0  3  0  0  0  0  0  0
   -5.2950   -4.0420  -18.0430 C   0  0  0  0  0  3  0  0  0  0  0  0
   -5.7560   -3.2690  -19.1150 C   0  0  0  0  0  0  0  0  0  0  0  0
   -6.9860   -3.6060  -19.6730 C   0  0  0  0  0  3  0  0  0  0  0  0
   -7.7520   -4.6600  -19.1480 C   0  0  0  0  0  3  0  0  0  0  0  0
   -8.5420   -7.7150  -14.0930 C   0  0  0  0  0  1  0  0  0  0  0  0
   -8.0100   -6.8700  -15.2390 C   0  0  1  0  0  0  0  0  0  0  0  0
   -7.6130   -7.6900  -16.4950 C   0  0  0  0  0  2  0  0  0  0  0  0
   -8.2400   -6.5590  -17.3680 C   0  0  1  0  0  0  0  0  0  0  0  0
   -9.0880   -6.1760  -16.1190 C   0  0  0  0  0  2  0  0  0  0  0  0
   -9.0680   -7.1590  -18.4480 N   0  0  0  0  0  4  0  0  0  0  0  0
   -9.7310   -6.4780  -18.8390 H   0  0  0  0  0  0  0  0  0  0  0  0
   -8.4680   -7.4590  -19.2300 H   0  0  0  0  0  0  0  0  0  0  0  0
   -9.6100   -7.9750  -18.1420 H   0  0  0  0  0  0  0  0  0  0  0  0
   -6.9660   -6.0020  -14.7640 O   0  0  0  0  0  0  0  0  0  0  0  0
   -7.3160   -5.5390  -13.9790 H   0  0  0  0  0  0  0  0  0  0  0  0
   -5.8360   -1.5360  -21.9400 C   0  0  0  0  0  0  0  0  0  0  0  0
   -5.5620   -2.5090  -22.9060 C   0  0  0  0  0  3  0  0  0  0  0  0
   -6.3400   -2.5830  -24.0630 C   0  0  0  0  0  3  0  0  0  0  0  0
   -7.3970   -1.6920  -24.2560 C   0  0  0  0  0  3  0  0  0  0  0  0
   -7.6760   -0.7220  -23.2930 C   0  0  0  0  0  3  0  0  0  0  0  0
   -6.8960   -0.6420  -22.1400 C   0  0  0  0  0  3  0  0  0  0  0  0
  1 23  1  0  0  0  0
  1  2  1  0  0  0  0
  3 13  1  0  0  0  0
  3  2  2  0  0  0  0
  4  3  1  0  0  0  0
  5  4  1  0  0  0  0
  5  1  2  0  0  0  0
  6  7  1  0  0  0  0
  6  4  1  0  0  0  0
  7  8  1  0  0  0  0
  8  9  2  0  0  0  0
  8 13  1  0  0  0  0
  9 10  1  0  0  0  0
 10 11  2  0  0  0  0
 11 14  1  0  0  0  0
 12 11  1  0  0  0  0
 13 12  2  0  0  0  0
 14 15  1  0  0  0  0
 14 18  2  0  0  0  0
 15 16  2  0  0  0  0
 16 17  1  0  0  0  0
 17 19  1  0  0  0  0
 18 17  1  0  0  0  0
 20 21  1  0  0  0  0
 20 29  1  0  0  0  0
 22 21  2  0  0  0  0
 23 22  1  0  0  0  0
 24 25  1  0  0  0  0
 24 23  2  0  0  0  0
 25 20  2  0  0  0  0
 27 35  1  0  0  0  0
 27 26  1  1  0  0  0
 28 27  1  0  0  0  0
 29 31  1  6  0  0  0
 29 28  1  0  0  0  0
 29 30  1  0  0  0  0
 30 27  1  0  0  0  0
 31 34  1  0  0  0  0
 32 31  1  0  0  0  0
 33 31  1  0  0  0  0
 35 36  1  0  0  0  0
 37  5  1  0  0  0  0
 38 37  2  0  0  0  0
 39 38  1  0  0  0  0
 40 39  2  0  0  0  0
 40 41  1  0  0  0  0
 41 42  2  0  0  0  0
 42 37  1  0  0  0  0
M  END
>  <minimizedAffinity>
25.5265141

$$$$
