
 OpenBabel10152419023D

 40 43  0  0  1  0  0  0  0  0999 V2000
    9.0730  -10.1590   13.3780 C   0  0  2  0  0  3  0  0  0  0  0  0
    8.5320   -9.1040    9.7230 C   0  0  0  0  0  0  0  0  0  0  0  0
    9.7050   -9.5690    9.1300 C   0  0  0  0  0  3  0  0  0  0  0  0
   10.7560  -10.0200    9.9240 C   0  0  0  0  0  3  0  0  0  0  0  0
   10.5960  -10.1120   11.3080 C   0  0  0  0  0  3  0  0  0  0  0  0
    9.3740   -9.7860   11.9180 C   0  0  0  0  0  0  0  0  0  0  0  0
    8.3720   -9.1920   11.1140 C   0  0  0  0  0  3  0  0  0  0  0  0
    6.4220   -9.4470    8.4110 C   0  0  0  0  0  0  0  0  0  0  0  0
    5.9910   -9.2730    7.2740 O   0  0  0  0  0  0  0  0  0  0  0  0
    7.4910   -8.7120    8.8680 N   0  0  0  0  0  0  0  0  0  0  0  0
    7.5870   -7.8120    8.4120 H   0  0  0  0  0  0  0  0  0  0  0  0
    4.4990  -12.0800   11.1850 C   0  0  0  0  0  0  0  0  0  0  0  0
    5.3760  -11.0940   11.6370 C   0  0  0  0  0  3  0  0  0  0  0  0
    5.9440  -10.1920   10.7340 C   0  0  0  0  0  3  0  0  0  0  0  0
    5.6390  -10.2760    9.3700 C   0  0  0  0  0  0  0  0  0  0  0  0
    4.7790  -11.2880    8.9180 C   0  0  0  0  0  3  0  0  0  0  0  0
    4.2090  -12.1880    9.8250 C   0  0  0  0  0  3  0  0  0  0  0  0
    4.7460  -12.8730   13.3600 C   0  0  0  0  0  1  0  0  0  0  0  0
    4.0380  -12.9620   12.1230 O   0  0  0  0  0  0  0  0  0  0  0  0
    9.7520  -11.3720   13.8110 N   0  0  0  0  0  0  0  0  0  0  0  0
    9.7770  -11.5490   14.8090 H   0  0  0  0  0  0  0  0  0  0  0  0
    9.9090  -12.3870   12.8790 C   0  0  0  0  0  0  0  0  0  0  0  0
   10.7810  -12.1580   11.8810 N   0  0  0  0  0  0  0  0  0  0  0  0
   10.5810  -12.8280   10.7510 C   0  0  0  0  0  3  0  0  0  0  0  0
    9.5210  -13.5940   10.4980 N   0  0  0  0  0  0  0  0  0  0  0  0
    8.6970  -13.8610   11.5300 C   0  0  0  0  0  0  0  0  0  0  0  0
    7.4720  -14.5060   11.3620 C   0  0  0  0  0  0  0  0  0  0  0  0
    6.6970  -14.9900   12.4290 C   0  0  0  0  0  3  0  0  0  0  0  0
    7.0920  -14.7200   13.7260 C   0  0  0  0  0  3  0  0  0  0  0  0
    8.1700  -13.8630   13.9200 C   0  0  0  0  0  3  0  0  0  0  0  0
    8.9500  -13.4040   12.8200 C   0  0  0  0  0  0  0  0  0  0  0  0
    6.7310  -14.1860   10.1240 C   0  0  0  0  0  0  0  0  0  0  0  0
    5.5610  -14.9070   10.0160 N   0  0  0  0  0  0  0  0  0  0  0  0
    7.1140  -13.4040    9.2820 O   0  0  0  0  0  0  0  0  0  0  0  0
    4.9550  -14.7460    9.2260 H   0  0  0  0  0  0  0  0  0  0  0  0
    5.2460  -15.5370   10.7440 H   0  0  0  0  0  0  0  0  0  0  0  0
    7.5620  -10.2860   13.6780 C   0  0  0  0  0  2  0  0  0  0  0  0
    6.7320   -9.0040   13.7380 C   0  0  0  0  0  2  0  0  0  0  0  0
    5.3330   -9.2670   13.7010 O   0  0  0  0  0  0  0  0  0  0  0  0
    4.8880   -8.4130   13.8550 H   0  0  0  0  0  0  0  0  0  0  0  0
  1 37  1  6  0  0  0
  1 20  1  0  0  0  0
  2  7  1  0  0  0  0
  3  2  2  0  0  0  0
  3  4  1  0  0  0  0
  4  5  2  0  0  0  0
  5  6  1  0  0  0  0
  6  1  1  0  0  0  0
  7  6  2  0  0  0  0
  8 10  1  0  0  0  0
  8 15  1  0  0  0  0
  9  8  2  0  0  0  0
 10  2  1  0  0  0  0
 11 10  1  0  0  0  0
 12 13  1  0  0  0  0
 12 19  1  0  0  0  0
 14 13  2  0  0  0  0
 15 14  1  0  0  0  0
 16 15  2  0  0  0  0
 16 17  1  0  0  0  0
 17 12  2  0  0  0  0
 19 18  1  0  0  0  0
 20 21  1  0  0  0  0
 22 20  1  0  0  0  0
 23 22  2  0  0  0  0
 24 23  1  0  0  0  0
 25 24  2  0  0  0  0
 25 26  1  0  0  0  0
 26 31  1  0  0  0  0
 27 26  2  0  0  0  0
 27 28  1  0  0  0  0
 28 29  2  0  0  0  0
 29 30  1  0  0  0  0
 31 22  1  0  0  0  0
 31 30  2  0  0  0  0
 32 27  1  0  0  0  0
 33 32  1  0  0  0  0
 33 36  1  0  0  0  0
 34 32  2  0  0  0  0
 35 33  1  0  0  0  0
 37 38  1  0  0  0  0
 39 38  1  0  0  0  0
 39 40  1  0  0  0  0
M  END
>  <minimizedAffinity>
8.27589417

$$$$
