
 OpenBabel11232420543D

 42 48  0  0  1  0  0  0  0  0999 V2000
  -18.3290   21.7300   10.2810 C   0  0  0  0  0  0  0  0  0  0  0  0
  -18.4390   22.9630   10.9060 N   0  0  0  0  0  0  0  0  0  0  0  0
  -17.6710   23.7820   10.2260 C   0  0  0  0  0  0  0  0  0  0  0  0
  -17.0470   23.1270    9.2060 N   0  0  0  0  0  0  0  0  0  0  0  0
  -17.4790   21.8200    9.1820 C   0  0  0  0  0  0  0  0  0  0  0  0
  -16.2030   23.8260    8.2550 C   0  0  0  0  0  2  0  0  0  0  0  0
  -15.6190   25.0350    8.7880 O   0  0  0  0  0  0  0  0  0  0  0  0
  -16.4060   25.7690    9.6390 C   0  0  0  0  0  0  0  0  0  0  0  0
  -16.1080   27.1210    9.7800 C   0  0  0  0  0  3  0  0  0  0  0  0
  -16.8680   27.9120   10.6470 C   0  0  0  0  0  3  0  0  0  0  0  0
  -17.9170   27.3550   11.3950 C   0  0  0  0  0  0  0  0  0  0  0  0
  -18.1840   25.9840   11.2720 C   0  0  0  0  0  3  0  0  0  0  0  0
  -17.4310   25.1970   10.3960 C   0  0  0  0  0  0  0  0  0  0  0  0
  -18.7220   28.1710   12.2880 C   0  0  0  0  0  0  0  0  0  0  0  0
  -20.1210   28.2120   12.4940 C   0  0  0  0  0  3  0  0  0  0  0  0
  -20.4870   29.1350   13.3880 N   0  0  0  0  0  0  0  0  0  0  0  0
  -19.3220   29.6870   13.7640 N   0  0  0  0  0  0  0  0  0  0  0  0
  -18.2370   29.1500   13.1310 C   0  0  0  0  0  3  0  0  0  0  0  0
  -19.3410   30.4310   14.4530 H   0  0  0  0  0  0  0  0  0  0  0  0
  -20.4100   18.1980   11.7420 C   0  0  0  0  0  0  0  0  0  0  0  0
  -19.6480   18.2150   10.5530 C   0  0  0  0  0  3  0  0  0  0  0  0
  -18.9930   19.3690   10.0960 C   0  0  0  0  0  3  0  0  0  0  0  0
  -19.0830   20.5830   10.7850 C   0  0  0  0  0  0  0  0  0  0  0  0
  -19.8740   20.6070   11.9290 C   0  0  0  0  0  3  0  0  0  0  0  0
  -20.5190   19.4460   12.3900 C   0  0  0  0  0  3  0  0  0  0  0  0
  -21.3410   15.3750   15.4400 C   0  0  0  0  0  1  0  0  0  0  0  0
  -20.9110   16.4280   14.4310 C   0  0  1  0  0  0  0  0  0  0  0  0
  -20.2690   15.8390   13.1470 C   0  0  0  0  0  2  0  0  0  0  0  0
  -21.0950   16.8630   12.3100 C   0  0  1  0  0  0  0  0  0  0  0  0
  -22.0450   16.9940   13.5340 C   0  0  0  0  0  2  0  0  0  0  0  0
  -21.7490   16.1600   11.1740 N   0  0  0  0  0  4  0  0  0  0  0  0
  -22.5630   16.6790   10.8230 H   0  0  0  0  0  0  0  0  0  0  0  0
  -21.0920   16.0680   10.3850 H   0  0  0  0  0  0  0  0  0  0  0  0
  -22.0730   15.2160   11.4140 H   0  0  0  0  0  0  0  0  0  0  0  0
  -20.0970   17.4220   15.0800 O   0  0  0  0  0  0  0  0  0  0  0  0
  -20.5890   17.7190   15.8690 H   0  0  0  0  0  0  0  0  0  0  0  0
  -17.0610   20.8830    8.1500 C   0  0  0  0  0  0  0  0  0  0  0  0
  -15.9160   20.0980    8.3250 C   0  0  0  0  0  3  0  0  0  0  0  0
  -15.5090   19.2220    7.3180 C   0  0  0  0  0  3  0  0  0  0  0  0
  -16.2440   19.1240    6.1360 C   0  0  0  0  0  3  0  0  0  0  0  0
  -17.3850   19.9040    5.9570 C   0  0  0  0  0  3  0  0  0  0  0  0
  -17.7910   20.7850    6.9590 C   0  0  0  0  0  3  0  0  0  0  0  0
  1 23  1  0  0  0  0
  1  2  1  0  0  0  0
  3 13  1  0  0  0  0
  3  2  2  0  0  0  0
  4  3  1  0  0  0  0
  5  4  1  0  0  0  0
  5  1  2  0  0  0  0
  6  7  1  0  0  0  0
  6  4  1  0  0  0  0
  7  8  1  0  0  0  0
  8  9  2  0  0  0  0
  8 13  1  0  0  0  0
  9 10  1  0  0  0  0
 10 11  2  0  0  0  0
 11 14  1  0  0  0  0
 12 11  1  0  0  0  0
 13 12  2  0  0  0  0
 14 15  1  0  0  0  0
 14 18  2  0  0  0  0
 15 16  2  0  0  0  0
 16 17  1  0  0  0  0
 17 19  1  0  0  0  0
 18 17  1  0  0  0  0
 20 29  1  0  0  0  0
 20 25  1  0  0  0  0
 21 20  2  0  0  0  0
 22 21  1  0  0  0  0
 22 23  2  0  0  0  0
 23 24  1  0  0  0  0
 24 25  2  0  0  0  0
 27 35  1  0  0  0  0
 27 26  1  1  0  0  0
 28 27  1  0  0  0  0
 29 31  1  6  0  0  0
 29 28  1  0  0  0  0
 29 30  1  0  0  0  0
 30 27  1  0  0  0  0
 31 34  1  0  0  0  0
 32 31  1  0  0  0  0
 33 31  1  0  0  0  0
 35 36  1  0  0  0  0
 37 38  1  0  0  0  0
 37  5  1  0  0  0  0
 39 38  2  0  0  0  0
 40 39  1  0  0  0  0
 41 40  2  0  0  0  0
 41 42  1  0  0  0  0
 42 37  2  0  0  0  0
M  END
>  <minimizedAffinity>
-12.3303318

$$$$
