
 OpenBabel11232420543D

 42 48  0  0  1  0  0  0  0  0999 V2000
  -19.0810   22.7160   11.2110 C   0  0  0  0  0  0  0  0  0  0  0  0
  -19.1070   23.9570   11.8300 N   0  0  0  0  0  0  0  0  0  0  0  0
  -18.3130   24.7280   11.1260 C   0  0  0  0  0  0  0  0  0  0  0  0
  -17.7500   24.0340   10.0950 N   0  0  0  0  0  0  0  0  0  0  0  0
  -18.2530   22.7520   10.0910 C   0  0  0  0  0  0  0  0  0  0  0  0
  -16.8920   24.6800    9.1200 C   0  0  0  0  0  2  0  0  0  0  0  0
  -16.2310   25.8580    9.6300 O   0  0  0  0  0  0  0  0  0  0  0  0
  -16.9550   26.6400   10.4940 C   0  0  0  0  0  0  0  0  0  0  0  0
  -16.5800   27.9740   10.6180 C   0  0  0  0  0  3  0  0  0  0  0  0
  -17.2750   28.8100   11.4970 C   0  0  0  0  0  3  0  0  0  0  0  0
  -18.3350   28.3170   12.2740 C   0  0  0  0  0  0  0  0  0  0  0  0
  -18.6790   26.9610   12.1670 C   0  0  0  0  0  3  0  0  0  0  0  0
  -17.9920   26.1290   11.2800 C   0  0  0  0  0  0  0  0  0  0  0  0
  -19.0720   29.1810   13.1790 C   0  0  0  0  0  0  0  0  0  0  0  0
  -20.4610   29.4220   13.3030 C   0  0  0  0  0  3  0  0  0  0  0  0
  -20.7490   30.3240   14.2450 N   0  0  0  0  0  0  0  0  0  0  0  0
  -19.5460   30.6610   14.7350 N   0  0  0  0  0  0  0  0  0  0  0  0
  -18.5100   30.0100   14.1280 C   0  0  0  0  0  3  0  0  0  0  0  0
  -19.5040   31.3480   15.4810 H   0  0  0  0  0  0  0  0  0  0  0  0
  -21.3040   19.3710   12.8870 C   0  0  0  0  0  0  0  0  0  0  0  0
  -20.0130   19.2440   12.3290 C   0  0  0  0  0  3  0  0  0  0  0  0
  -19.3180   20.3360   11.7860 C   0  0  0  0  0  3  0  0  0  0  0  0
  -19.8830   21.6150   11.7410 C   0  0  0  0  0  0  0  0  0  0  0  0
  -21.1780   21.7550   12.2330 C   0  0  0  0  0  3  0  0  0  0  0  0
  -21.8650   20.6610   12.7880 C   0  0  0  0  0  3  0  0  0  0  0  0
  -22.2670   14.7260   12.9840 C   0  0  0  0  0  1  0  0  0  0  0  0
  -21.8130   16.1570   12.7390 C   0  0  1  0  0  0  0  0  0  0  0  0
  -22.9710   17.1890   12.7400 C   0  0  0  0  0  2  0  0  0  0  0  0
  -22.0690   18.1430   13.5810 C   0  0  1  0  0  0  0  0  0  0  0  0
  -21.2330   16.8920   13.9770 C   0  0  0  0  0  2  0  0  0  0  0  0
  -22.8480   18.6750   14.7310 N   0  0  0  0  0  4  0  0  0  0  0  0
  -22.2340   18.9950   15.4900 H   0  0  0  0  0  0  0  0  0  0  0  0
  -23.4070   19.4890   14.4370 H   0  0  0  0  0  0  0  0  0  0  0  0
  -23.4940   17.9880   15.1350 H   0  0  0  0  0  0  0  0  0  0  0  0
  -20.9910   16.2120   11.5590 O   0  0  0  0  0  0  0  0  0  0  0  0
  -20.3050   15.5250   11.6600 H   0  0  0  0  0  0  0  0  0  0  0  0
  -17.9110   21.7880    9.0570 C   0  0  0  0  0  0  0  0  0  0  0  0
  -16.7420   21.0260    9.1540 C   0  0  0  0  0  3  0  0  0  0  0  0
  -16.4100   20.1230    8.1430 C   0  0  0  0  0  3  0  0  0  0  0  0
  -17.2450   19.9750    7.0360 C   0  0  0  0  0  3  0  0  0  0  0  0
  -18.4120   20.7310    6.9340 C   0  0  0  0  0  3  0  0  0  0  0  0
  -18.7430   21.6390    7.9390 C   0  0  0  0  0  3  0  0  0  0  0  0
  1 23  1  0  0  0  0
  1  2  1  0  0  0  0
  3 13  1  0  0  0  0
  3  2  2  0  0  0  0
  4  3  1  0  0  0  0
  5  4  1  0  0  0  0
  5  1  2  0  0  0  0
  6  7  1  0  0  0  0
  6  4  1  0  0  0  0
  7  8  1  0  0  0  0
  8  9  2  0  0  0  0
  8 13  1  0  0  0  0
  9 10  1  0  0  0  0
 10 11  2  0  0  0  0
 11 14  1  0  0  0  0
 12 11  1  0  0  0  0
 13 12  2  0  0  0  0
 14 15  1  0  0  0  0
 14 18  2  0  0  0  0
 15 16  2  0  0  0  0
 16 17  1  0  0  0  0
 17 19  1  0  0  0  0
 18 17  1  0  0  0  0
 20 29  1  0  0  0  0
 21 20  2  0  0  0  0
 22 21  1  0  0  0  0
 23 22  2  0  0  0  0
 23 24  1  0  0  0  0
 24 25  2  0  0  0  0
 25 20  1  0  0  0  0
 27 28  1  0  0  0  0
 27 26  1  1  0  0  0
 27 30  1  0  0  0  0
 28 29  1  0  0  0  0
 29 30  1  0  0  0  0
 29 31  1  1  0  0  0
 31 34  1  0  0  0  0
 31 32  1  0  0  0  0
 33 31  1  0  0  0  0
 35 36  1  0  0  0  0
 35 27  1  0  0  0  0
 37 38  1  0  0  0  0
 37  5  1  0  0  0  0
 39 38  2  0  0  0  0
 40 39  1  0  0  0  0
 41 40  2  0  0  0  0
 41 42  1  0  0  0  0
 42 37  2  0  0  0  0
M  END
>  <minimizedAffinity>
-11.7302113

$$$$
