
 OpenBabel11232420543D

 42 48  0  0  1  0  0  0  0  0999 V2000
  -19.3060   20.9530   10.7080 C   0  0  0  0  0  0  0  0  0  0  0  0
  -20.0020   20.4470   11.7960 N   0  0  0  0  0  0  0  0  0  0  0  0
  -20.1180   19.1570   11.5830 C   0  0  0  0  0  0  0  0  0  0  0  0
  -19.5540   18.8100   10.3910 N   0  0  0  0  0  0  0  0  0  0  0  0
  -18.9850   19.9270    9.8210 C   0  0  0  0  0  0  0  0  0  0  0  0
  -19.4800   17.4270    9.9560 C   0  0  0  0  0  2  0  0  0  0  0  0
  -20.5110   16.5920   10.5270 O   0  0  0  0  0  0  0  0  0  0  0  0
  -20.8650   16.8600   11.8250 C   0  0  0  0  0  0  0  0  0  0  0  0
  -21.4550   15.8310   12.5530 C   0  0  0  0  0  3  0  0  0  0  0  0
  -21.8500   16.0550   13.8750 C   0  0  0  0  0  3  0  0  0  0  0  0
  -21.6780   17.3130   14.4740 C   0  0  0  0  0  0  0  0  0  0  0  0
  -21.1150   18.3520   13.7190 C   0  0  0  0  0  3  0  0  0  0  0  0
  -20.7100   18.1240   12.4010 C   0  0  0  0  0  0  0  0  0  0  0  0
  -22.0710   17.5520   15.8520 C   0  0  0  0  0  0  0  0  0  0  0  0
  -23.3120   17.3660   16.5050 C   0  0  0  0  0  3  0  0  0  0  0  0
  -23.2850   17.7380   17.7870 N   0  0  0  0  0  0  0  0  0  0  0  0
  -22.0230   18.1600   17.9650 N   0  0  0  0  0  0  0  0  0  0  0  0
  -21.2580   18.0750   16.8360 C   0  0  0  0  0  3  0  0  0  0  0  0
  -21.7520   18.5010   18.8820 H   0  0  0  0  0  0  0  0  0  0  0  0
  -18.5400   25.2350   10.5920 C   0  0  0  0  0  0  0  0  0  0  0  0
  -19.7820   24.6580   10.2490 C   0  0  0  0  0  3  0  0  0  0  0  0
  -20.0040   23.2730   10.2850 C   0  0  0  0  0  3  0  0  0  0  0  0
  -18.9890   22.3770   10.6390 C   0  0  0  0  0  0  0  0  0  0  0  0
  -17.7390   22.9170   10.9270 C   0  0  0  0  0  3  0  0  0  0  0  0
  -17.5250   24.3060   10.9020 C   0  0  0  0  0  3  0  0  0  0  0  0
  -19.8530   29.4910   12.2280 C   0  0  0  0  0  1  0  0  0  0  0  0
  -19.6370   28.0350   11.8450 C   0  0  1  0  0  0  0  0  0  0  0  0
  -19.4740   27.8070   10.3190 C   0  0  0  0  0  2  0  0  0  0  0  0
  -18.3060   26.8220   10.6300 C   0  0  1  0  0  0  0  0  0  0  0  0
  -18.1870   27.5090   12.0210 C   0  0  0  0  0  2  0  0  0  0  0  0
  -17.1450   27.1380    9.7550 N   0  0  0  0  0  4  0  0  0  0  0  0
  -16.2640   26.7870   10.1510 H   0  0  0  0  0  0  0  0  0  0  0  0
  -17.2590   26.6880    8.8350 H   0  0  0  0  0  0  0  0  0  0  0  0
  -17.0230   28.1430    9.5920 H   0  0  0  0  0  0  0  0  0  0  0  0
  -20.6560   27.2160   12.4460 O   0  0  0  0  0  0  0  0  0  0  0  0
  -20.6770   27.4410   13.3950 H   0  0  0  0  0  0  0  0  0  0  0  0
  -18.2270   19.8660    8.5820 C   0  0  0  0  0  0  0  0  0  0  0  0
  -17.2600   18.8730    8.3890 C   0  0  0  0  0  3  0  0  0  0  0  0
  -16.5200   18.8380    7.2070 C   0  0  0  0  0  3  0  0  0  0  0  0
  -16.7440   19.7910    6.2120 C   0  0  0  0  0  3  0  0  0  0  0  0
  -17.7060   20.7820    6.3990 C   0  0  0  0  0  3  0  0  0  0  0  0
  -18.4440   20.8230    7.5820 C   0  0  0  0  0  3  0  0  0  0  0  0
  1  2  1  0  0  0  0
  3  2  2  0  0  0  0
  3 13  1  0  0  0  0
  4  3  1  0  0  0  0
  5  4  1  0  0  0  0
  5  1  2  0  0  0  0
  6  4  1  0  0  0  0
  6  7  1  0  0  0  0
  7  8  1  0  0  0  0
  8 13  2  0  0  0  0
  8  9  1  0  0  0  0
  9 10  2  0  0  0  0
 10 11  1  0  0  0  0
 11 14  1  0  0  0  0
 12 11  2  0  0  0  0
 13 12  1  0  0  0  0
 14 15  1  0  0  0  0
 14 18  2  0  0  0  0
 15 16  2  0  0  0  0
 16 17  1  0  0  0  0
 17 19  1  0  0  0  0
 18 17  1  0  0  0  0
 20 29  1  0  0  0  0
 20 25  1  0  0  0  0
 21 22  1  0  0  0  0
 21 20  2  0  0  0  0
 22 23  2  0  0  0  0
 23  1  1  0  0  0  0
 23 24  1  0  0  0  0
 25 24  2  0  0  0  0
 27 30  1  0  0  0  0
 27 26  1  1  0  0  0
 27 35  1  0  0  0  0
 28 29  1  0  0  0  0
 28 27  1  0  0  0  0
 29 31  1  6  0  0  0
 29 30  1  0  0  0  0
 31 32  1  0  0  0  0
 33 31  1  0  0  0  0
 34 31  1  0  0  0  0
 35 36  1  0  0  0  0
 37  5  1  0  0  0  0
 38 37  1  0  0  0  0
 39 38  2  0  0  0  0
 40 41  2  0  0  0  0
 40 39  1  0  0  0  0
 41 42  1  0  0  0  0
 42 37  2  0  0  0  0
M  END
>  <minimizedAffinity>
-13.5041313

$$$$

 OpenBabel11232420543D

 42 48  0  0  1  0  0  0  0  0999 V2000
  -18.3290   21.7300   10.2810 C   0  0  0  0  0  0  0  0  0  0  0  0
  -18.4390   22.9630   10.9060 N   0  0  0  0  0  0  0  0  0  0  0  0
  -17.6710   23.7820   10.2260 C   0  0  0  0  0  0  0  0  0  0  0  0
  -17.0470   23.1270    9.2060 N   0  0  0  0  0  0  0  0  0  0  0  0
  -17.4790   21.8200    9.1820 C   0  0  0  0  0  0  0  0  0  0  0  0
  -16.2030   23.8260    8.2550 C   0  0  0  0  0  2  0  0  0  0  0  0
  -15.6190   25.0350    8.7880 O   0  0  0  0  0  0  0  0  0  0  0  0
  -16.4060   25.7690    9.6390 C   0  0  0  0  0  0  0  0  0  0  0  0
  -16.1080   27.1210    9.7800 C   0  0  0  0  0  3  0  0  0  0  0  0
  -16.8680   27.9120   10.6470 C   0  0  0  0  0  3  0  0  0  0  0  0
  -17.9170   27.3550   11.3950 C   0  0  0  0  0  0  0  0  0  0  0  0
  -18.1840   25.9840   11.2720 C   0  0  0  0  0  3  0  0  0  0  0  0
  -17.4310   25.1970   10.3960 C   0  0  0  0  0  0  0  0  0  0  0  0
  -18.7220   28.1710   12.2880 C   0  0  0  0  0  0  0  0  0  0  0  0
  -20.1210   28.2120   12.4940 C   0  0  0  0  0  3  0  0  0  0  0  0
  -20.4870   29.1350   13.3880 N   0  0  0  0  0  0  0  0  0  0  0  0
  -19.3220   29.6870   13.7640 N   0  0  0  0  0  0  0  0  0  0  0  0
  -18.2370   29.1500   13.1310 C   0  0  0  0  0  3  0  0  0  0  0  0
  -19.3410   30.4310   14.4530 H   0  0  0  0  0  0  0  0  0  0  0  0
  -20.4100   18.1980   11.7420 C   0  0  0  0  0  0  0  0  0  0  0  0
  -19.6480   18.2150   10.5530 C   0  0  0  0  0  3  0  0  0  0  0  0
  -18.9930   19.3690   10.0960 C   0  0  0  0  0  3  0  0  0  0  0  0
  -19.0830   20.5830   10.7850 C   0  0  0  0  0  0  0  0  0  0  0  0
  -19.8740   20.6070   11.9290 C   0  0  0  0  0  3  0  0  0  0  0  0
  -20.5190   19.4460   12.3900 C   0  0  0  0  0  3  0  0  0  0  0  0
  -21.3410   15.3750   15.4400 C   0  0  0  0  0  1  0  0  0  0  0  0
  -20.9110   16.4280   14.4310 C   0  0  1  0  0  0  0  0  0  0  0  0
  -20.2690   15.8390   13.1470 C   0  0  0  0  0  2  0  0  0  0  0  0
  -21.0950   16.8630   12.3100 C   0  0  1  0  0  0  0  0  0  0  0  0
  -22.0450   16.9940   13.5340 C   0  0  0  0  0  2  0  0  0  0  0  0
  -21.7490   16.1600   11.1740 N   0  0  0  0  0  4  0  0  0  0  0  0
  -22.5630   16.6790   10.8230 H   0  0  0  0  0  0  0  0  0  0  0  0
  -21.0920   16.0680   10.3850 H   0  0  0  0  0  0  0  0  0  0  0  0
  -22.0730   15.2160   11.4140 H   0  0  0  0  0  0  0  0  0  0  0  0
  -20.0970   17.4220   15.0800 O   0  0  0  0  0  0  0  0  0  0  0  0
  -20.5890   17.7190   15.8690 H   0  0  0  0  0  0  0  0  0  0  0  0
  -17.0610   20.8830    8.1500 C   0  0  0  0  0  0  0  0  0  0  0  0
  -15.9160   20.0980    8.3250 C   0  0  0  0  0  3  0  0  0  0  0  0
  -15.5090   19.2220    7.3180 C   0  0  0  0  0  3  0  0  0  0  0  0
  -16.2440   19.1240    6.1360 C   0  0  0  0  0  3  0  0  0  0  0  0
  -17.3850   19.9040    5.9570 C   0  0  0  0  0  3  0  0  0  0  0  0
  -17.7910   20.7850    6.9590 C   0  0  0  0  0  3  0  0  0  0  0  0
  1 23  1  0  0  0  0
  1  2  1  0  0  0  0
  3 13  1  0  0  0  0
  3  2  2  0  0  0  0
  4  3  1  0  0  0  0
  5  4  1  0  0  0  0
  5  1  2  0  0  0  0
  6  7  1  0  0  0  0
  6  4  1  0  0  0  0
  7  8  1  0  0  0  0
  8  9  2  0  0  0  0
  8 13  1  0  0  0  0
  9 10  1  0  0  0  0
 10 11  2  0  0  0  0
 11 14  1  0  0  0  0
 12 11  1  0  0  0  0
 13 12  2  0  0  0  0
 14 15  1  0  0  0  0
 14 18  2  0  0  0  0
 15 16  2  0  0  0  0
 16 17  1  0  0  0  0
 17 19  1  0  0  0  0
 18 17  1  0  0  0  0
 20 29  1  0  0  0  0
 20 25  1  0  0  0  0
 21 20  2  0  0  0  0
 22 21  1  0  0  0  0
 22 23  2  0  0  0  0
 23 24  1  0  0  0  0
 24 25  2  0  0  0  0
 27 35  1  0  0  0  0
 27 26  1  1  0  0  0
 28 27  1  0  0  0  0
 29 31  1  6  0  0  0
 29 28  1  0  0  0  0
 29 30  1  0  0  0  0
 30 27  1  0  0  0  0
 31 34  1  0  0  0  0
 32 31  1  0  0  0  0
 33 31  1  0  0  0  0
 35 36  1  0  0  0  0
 37 38  1  0  0  0  0
 37  5  1  0  0  0  0
 39 38  2  0  0  0  0
 40 39  1  0  0  0  0
 41 40  2  0  0  0  0
 41 42  1  0  0  0  0
 42 37  2  0  0  0  0
M  END
>  <minimizedAffinity>
-12.3303318

$$$$

 OpenBabel11232420543D

 42 48  0  0  1  0  0  0  0  0999 V2000
  -19.7230   23.2630   11.3630 C   0  0  0  0  0  0  0  0  0  0  0  0
  -19.8990   24.4840   11.9970 N   0  0  0  0  0  0  0  0  0  0  0  0
  -19.2350   25.3610   11.2820 C   0  0  0  0  0  0  0  0  0  0  0  0
  -18.6130   24.7580   10.2290 N   0  0  0  0  0  0  0  0  0  0  0  0
  -18.9390   23.4200   10.2220 C   0  0  0  0  0  0  0  0  0  0  0  0
  -17.8770   25.5210    9.2390 C   0  0  0  0  0  2  0  0  0  0  0  0
  -17.3650   26.7730    9.7460 O   0  0  0  0  0  0  0  0  0  0  0  0
  -18.1640   27.4430   10.6380 C   0  0  0  0  0  0  0  0  0  0  0  0
  -17.9680   28.8140   10.7680 C   0  0  0  0  0  3  0  0  0  0  0  0
  -18.7440   29.5420   11.6750 C   0  0  0  0  0  3  0  0  0  0  0  0
  -19.7060   28.9040   12.4740 C   0  0  0  0  0  0  0  0  0  0  0  0
  -19.8680   27.5160   12.3600 C   0  0  0  0  0  3  0  0  0  0  0  0
  -19.1010   26.7910   11.4440 C   0  0  0  0  0  0  0  0  0  0  0  0
  -20.5270   29.6540   13.4090 C   0  0  0  0  0  0  0  0  0  0  0  0
  -21.1830   29.2490   14.5950 C   0  0  0  0  0  3  0  0  0  0  0  0
  -21.8790   30.2350   15.1660 N   0  0  0  0  0  0  0  0  0  0  0  0
  -21.6670   31.2810   14.3510 N   0  0  0  0  0  0  0  0  0  0  0  0
  -20.8710   30.9840   13.2820 C   0  0  0  0  0  3  0  0  0  0  0  0
  -22.1040   32.1680   14.5810 H   0  0  0  0  0  0  0  0  0  0  0  0
  -21.4340   19.6420   13.0650 C   0  0  0  0  0  0  0  0  0  0  0  0
  -20.1300   19.7070   12.5290 C   0  0  0  0  0  3  0  0  0  0  0  0
  -19.6020   20.8840   11.9770 C   0  0  0  0  0  3  0  0  0  0  0  0
  -20.3560   22.0600   11.9010 C   0  0  0  0  0  0  0  0  0  0  0  0
  -21.6650   22.0060   12.3710 C   0  0  0  0  0  3  0  0  0  0  0  0
  -22.1860   20.8280   12.9350 C   0  0  0  0  0  3  0  0  0  0  0  0
  -21.8440   14.9140   13.1080 C   0  0  0  0  0  1  0  0  0  0  0  0
  -21.5730   16.3930   12.8720 C   0  0  1  0  0  0  0  0  0  0  0  0
  -22.8420   17.2820   12.9550 C   0  0  0  0  0  2  0  0  0  0  0  0
  -22.0130   18.3210   13.7700 C   0  0  1  0  0  0  0  0  0  0  0  0
  -21.0180   17.1710   14.0950 C   0  0  0  0  0  2  0  0  0  0  0  0
  -22.7870   18.7400   14.9700 N   0  0  0  0  0  4  0  0  0  0  0  0
  -22.1750   19.1170   15.7040 H   0  0  0  0  0  0  0  0  0  0  0  0
  -23.4520   19.4860   14.7230 H   0  0  0  0  0  0  0  0  0  0  0  0
  -23.3270   17.9750   15.3900 H   0  0  0  0  0  0  0  0  0  0  0  0
  -20.8260   16.5630   11.6540 O   0  0  0  0  0  0  0  0  0  0  0  0
  -20.0600   15.9600   11.7050 H   0  0  0  0  0  0  0  0  0  0  0  0
  -18.5010   22.5190    9.1680 C   0  0  0  0  0  0  0  0  0  0  0  0
  -19.4150   22.0200    8.2340 C   0  0  0  0  0  3  0  0  0  0  0  0
  -18.9900   21.1360    7.2420 C   0  0  0  0  0  3  0  0  0  0  0  0
  -17.6500   20.7510    7.1760 C   0  0  0  0  0  3  0  0  0  0  0  0
  -16.7350   21.2450    8.1040 C   0  0  0  0  0  3  0  0  0  0  0  0
  -17.1580   22.1240    9.1000 C   0  0  0  0  0  3  0  0  0  0  0  0
  1 23  1  0  0  0  0
  1  2  1  0  0  0  0
  3 13  1  0  0  0  0
  3  2  2  0  0  0  0
  4  3  1  0  0  0  0
  5  4  1  0  0  0  0
  5  1  2  0  0  0  0
  6  7  1  0  0  0  0
  6  4  1  0  0  0  0
  7  8  1  0  0  0  0
  8  9  2  0  0  0  0
  8 13  1  0  0  0  0
  9 10  1  0  0  0  0
 10 11  2  0  0  0  0
 11 14  1  0  0  0  0
 12 11  1  0  0  0  0
 13 12  2  0  0  0  0
 14 15  1  0  0  0  0
 15 16  2  0  0  0  0
 17 19  1  0  0  0  0
 17 16  1  0  0  0  0
 18 14  2  0  0  0  0
 18 17  1  0  0  0  0
 20 29  1  0  0  0  0
 21 20  2  0  0  0  0
 22 21  1  0  0  0  0
 23 22  2  0  0  0  0
 23 24  1  0  0  0  0
 24 25  2  0  0  0  0
 25 20  1  0  0  0  0
 27 28  1  0  0  0  0
 27 26  1  1  0  0  0
 27 30  1  0  0  0  0
 28 29  1  0  0  0  0
 29 30  1  0  0  0  0
 29 31  1  1  0  0  0
 31 34  1  0  0  0  0
 31 32  1  0  0  0  0
 33 31  1  0  0  0  0
 35 36  1  0  0  0  0
 35 27  1  0  0  0  0
 37  5  1  0  0  0  0
 38 37  2  0  0  0  0
 39 38  1  0  0  0  0
 40 39  2  0  0  0  0
 40 41  1  0  0  0  0
 41 42  2  0  0  0  0
 42 37  1  0  0  0  0
M  END
>  <minimizedAffinity>
-11.908123

$$$$

 OpenBabel11232420543D

 42 48  0  0  1  0  0  0  0  0999 V2000
  -19.6620   23.4600   11.2960 C   0  0  0  0  0  0  0  0  0  0  0  0
  -19.8570   24.6610   11.9610 N   0  0  0  0  0  0  0  0  0  0  0  0
  -19.2280   25.5710   11.2550 C   0  0  0  0  0  0  0  0  0  0  0  0
  -18.6100   25.0080   10.1780 N   0  0  0  0  0  0  0  0  0  0  0  0
  -18.9030   23.6620   10.1460 C   0  0  0  0  0  0  0  0  0  0  0  0
  -17.9100   25.8120    9.1940 C   0  0  0  0  0  2  0  0  0  0  0  0
  -17.4210   27.0640    9.7210 O   0  0  0  0  0  0  0  0  0  0  0  0
  -18.2200   27.6930   10.6420 C   0  0  0  0  0  0  0  0  0  0  0  0
  -18.0560   29.0660   10.8000 C   0  0  0  0  0  3  0  0  0  0  0  0
  -18.8340   29.7530   11.7370 C   0  0  0  0  0  3  0  0  0  0  0  0
  -19.7660   29.0730   12.5370 C   0  0  0  0  0  0  0  0  0  0  0  0
  -19.8950   27.6840   12.3940 C   0  0  0  0  0  3  0  0  0  0  0  0
  -19.1260   27.0000   11.4490 C   0  0  0  0  0  0  0  0  0  0  0  0
  -20.5880   29.7800   13.5030 C   0  0  0  0  0  0  0  0  0  0  0  0
  -21.2470   29.3220   14.6680 C   0  0  0  0  0  3  0  0  0  0  0  0
  -21.9440   30.2820   15.2820 N   0  0  0  0  0  0  0  0  0  0  0  0
  -21.7300   31.3640   14.5150 N   0  0  0  0  0  0  0  0  0  0  0  0
  -20.9310   31.1150   13.4360 C   0  0  0  0  0  3  0  0  0  0  0  0
  -22.1670   32.2390   14.7840 H   0  0  0  0  0  0  0  0  0  0  0  0
  -21.2530   19.7600   12.9440 C   0  0  0  0  0  0  0  0  0  0  0  0
  -19.9560   19.8720   12.3960 C   0  0  0  0  0  3  0  0  0  0  0  0
  -19.4680   21.0740   11.8620 C   0  0  0  0  0  3  0  0  0  0  0  0
  -20.2550   22.2300   11.8160 C   0  0  0  0  0  0  0  0  0  0  0  0
  -21.5570   22.1300   12.2980 C   0  0  0  0  0  3  0  0  0  0  0  0
  -22.0390   20.9270   12.8450 C   0  0  0  0  0  3  0  0  0  0  0  0
  -23.6020   17.6680   16.4970 C   0  0  0  0  0  1  0  0  0  0  0  0
  -22.9010   18.5640   15.4870 C   0  0  1  0  0  0  0  0  0  0  0  0
  -21.4690   18.0940   15.1220 C   0  0  0  0  0  2  0  0  0  0  0  0
  -21.7870   18.4100   13.6280 C   0  0  1  0  0  0  0  0  0  0  0  0
  -23.2950   18.3290   14.0040 C   0  0  0  0  0  2  0  0  0  0  0  0
  -21.3660   17.2640   12.7790 N   0  0  0  0  0  4  0  0  0  0  0  0
  -21.8630   17.2540   11.8800 H   0  0  0  0  0  0  0  0  0  0  0  0
  -20.3610   17.3300   12.5630 H   0  0  0  0  0  0  0  0  0  0  0  0
  -21.5240   16.3520   13.2220 H   0  0  0  0  0  0  0  0  0  0  0  0
  -22.9670   19.9340   15.9230 O   0  0  0  0  0  0  0  0  0  0  0  0
  -23.9020   20.1210   16.1290 H   0  0  0  0  0  0  0  0  0  0  0  0
  -18.4610   22.7970    9.0630 C   0  0  0  0  0  0  0  0  0  0  0  0
  -19.3920   22.1070    8.2810 C   0  0  0  0  0  3  0  0  0  0  0  0
  -18.9570   21.2590    7.2610 C   0  0  0  0  0  3  0  0  0  0  0  0
  -17.5920   21.1010    7.0170 C   0  0  0  0  0  3  0  0  0  0  0  0
  -16.6600   21.7870    7.7940 C   0  0  0  0  0  3  0  0  0  0  0  0
  -17.0910   22.6310    8.8180 C   0  0  0  0  0  3  0  0  0  0  0  0
  1 23  1  0  0  0  0
  1  2  1  0  0  0  0
  3 13  1  0  0  0  0
  3  2  2  0  0  0  0
  4  3  1  0  0  0  0
  5  4  1  0  0  0  0
  5  1  2  0  0  0  0
  6  7  1  0  0  0  0
  6  4  1  0  0  0  0
  7  8  1  0  0  0  0
  8  9  2  0  0  0  0
  8 13  1  0  0  0  0
  9 10  1  0  0  0  0
 10 11  2  0  0  0  0
 11 14  1  0  0  0  0
 12 11  1  0  0  0  0
 13 12  2  0  0  0  0
 14 15  1  0  0  0  0
 15 16  2  0  0  0  0
 17 19  1  0  0  0  0
 17 16  1  0  0  0  0
 18 14  2  0  0  0  0
 18 17  1  0  0  0  0
 20 29  1  0  0  0  0
 21 20  2  0  0  0  0
 22 21  1  0  0  0  0
 23 22  2  0  0  0  0
 23 24  1  0  0  0  0
 24 25  2  0  0  0  0
 25 20  1  0  0  0  0
 27 35  1  0  0  0  0
 27 26  1  1  0  0  0
 28 27  1  0  0  0  0
 29 31  1  6  0  0  0
 29 30  1  0  0  0  0
 29 28  1  0  0  0  0
 30 27  1  0  0  0  0
 31 34  1  0  0  0  0
 32 31  1  0  0  0  0
 33 31  1  0  0  0  0
 35 36  1  0  0  0  0
 37  5  1  0  0  0  0
 38 37  2  0  0  0  0
 39 38  1  0  0  0  0
 40 39  2  0  0  0  0
 40 41  1  0  0  0  0
 41 42  2  0  0  0  0
 42 37  1  0  0  0  0
M  END
>  <minimizedAffinity>
-11.8087893

$$$$

 OpenBabel11232420543D

 42 48  0  0  1  0  0  0  0  0999 V2000
  -19.8720   20.8780   11.8030 C   0  0  0  0  0  0  0  0  0  0  0  0
  -19.6680   22.2310   12.0350 N   0  0  0  0  0  0  0  0  0  0  0  0
  -18.9310   22.6610   11.0380 C   0  0  0  0  0  0  0  0  0  0  0  0
  -18.6260   21.6420   10.1850 N   0  0  0  0  0  0  0  0  0  0  0  0
  -19.2490   20.4920   10.6180 C   0  0  0  0  0  0  0  0  0  0  0  0
  -17.8860   21.8700    8.9580 C   0  0  0  0  0  2  0  0  0  0  0  0
  -17.0320   23.0330    9.0120 O   0  0  0  0  0  0  0  0  0  0  0  0
  -17.5160   24.1150    9.7040 C   0  0  0  0  0  0  0  0  0  0  0  0
  -16.9930   25.3640    9.3860 C   0  0  0  0  0  3  0  0  0  0  0  0
  -17.4390   26.4970   10.0730 C   0  0  0  0  0  3  0  0  0  0  0  0
  -18.3950   26.3900   11.0950 C   0  0  0  0  0  0  0  0  0  0  0  0
  -18.8870   25.1210   11.4310 C   0  0  0  0  0  3  0  0  0  0  0  0
  -18.4500   23.9900   10.7360 C   0  0  0  0  0  0  0  0  0  0  0  0
  -18.8760   27.5630   11.8040 C   0  0  0  0  0  0  0  0  0  0  0  0
  -18.1750   28.6540   12.3700 C   0  0  0  0  0  3  0  0  0  0  0  0
  -18.9800   29.5290   12.9780 N   0  0  0  0  0  0  0  0  0  0  0  0
  -20.2040   29.0070   12.7990 N   0  0  0  0  0  0  0  0  0  0  0  0
  -20.1950   27.8280   12.1080 C   0  0  0  0  0  3  0  0  0  0  0  0
  -21.0020   29.5040   13.1810 H   0  0  0  0  0  0  0  0  0  0  0  0
  -22.1050   18.4900   14.6740 C   0  0  0  0  0  0  0  0  0  0  0  0
  -20.8590   18.0980   14.1400 C   0  0  0  0  0  3  0  0  0  0  0  0
  -20.1610   18.8800   13.2080 C   0  0  0  0  0  3  0  0  0  0  0  0
  -20.6790   20.0890   12.7310 C   0  0  0  0  0  0  0  0  0  0  0  0
  -21.9330   20.4710   13.2000 C   0  0  0  0  0  3  0  0  0  0  0  0
  -22.6230   19.6900   14.1440 C   0  0  0  0  0  3  0  0  0  0  0  0
  -22.6220   14.3890   17.0040 C   0  0  0  0  0  1  0  0  0  0  0  0
  -22.2680   15.5760   16.1210 C   0  0  1  0  0  0  0  0  0  0  0  0
  -23.4980   16.2530   15.4600 C   0  0  0  0  0  2  0  0  0  0  0  0
  -22.8690   17.6390   15.8000 C   0  0  1  0  0  0  0  0  0  0  0  0
  -22.0100   16.9100   16.8720 C   0  0  0  0  0  2  0  0  0  0  0  0
  -23.9020   18.5130   16.4180 N   0  0  0  0  0  4  0  0  0  0  0  0
  -23.4800   19.2650   16.9760 H   0  0  0  0  0  0  0  0  0  0  0  0
  -24.4700   18.9660   15.6880 H   0  0  0  0  0  0  0  0  0  0  0  0
  -24.5460   18.0050   17.0350 H   0  0  0  0  0  0  0  0  0  0  0  0
  -21.2430   15.1980   15.1840 O   0  0  0  0  0  0  0  0  0  0  0  0
  -20.5270   14.7830   15.7010 H   0  0  0  0  0  0  0  0  0  0  0  0
  -19.1880   19.2470    9.8690 C   0  0  0  0  0  0  0  0  0  0  0  0
  -20.2410   18.3280    9.9330 C   0  0  0  0  0  3  0  0  0  0  0  0
  -20.1620   17.1240    9.2320 C   0  0  0  0  0  3  0  0  0  0  0  0
  -19.0340   16.8360    8.4620 C   0  0  0  0  0  3  0  0  0  0  0  0
  -17.9820   17.7490    8.3940 C   0  0  0  0  0  3  0  0  0  0  0  0
  -18.0560   18.9500    9.0990 C   0  0  0  0  0  3  0  0  0  0  0  0
  1  2  1  0  0  0  0
  1 23  1  0  0  0  0
  3  2  2  0  0  0  0
  4  5  1  0  0  0  0
  4  3  1  0  0  0  0
  5  1  2  0  0  0  0
  6  7  1  0  0  0  0
  6  4  1  0  0  0  0
  7  8  1  0  0  0  0
  8 13  1  0  0  0  0
  9  8  2  0  0  0  0
  9 10  1  0  0  0  0
 10 11  2  0  0  0  0
 11 12  1  0  0  0  0
 11 14  1  0  0  0  0
 13  3  1  0  0  0  0
 13 12  2  0  0  0  0
 14 18  2  0  0  0  0
 14 15  1  0  0  0  0
 15 16  2  0  0  0  0
 17 16  1  0  0  0  0
 17 19  1  0  0  0  0
 18 17  1  0  0  0  0
 20 29  1  0  0  0  0
 21 20  2  0  0  0  0
 22 21  1  0  0  0  0
 23 24  1  0  0  0  0
 23 22  2  0  0  0  0
 24 25  2  0  0  0  0
 25 20  1  0  0  0  0
 27 30  1  0  0  0  0
 27 26  1  1  0  0  0
 28 29  1  0  0  0  0
 28 27  1  0  0  0  0
 29 31  1  1  0  0  0
 29 30  1  0  0  0  0
 31 32  1  0  0  0  0
 31 34  1  0  0  0  0
 33 31  1  0  0  0  0
 35 36  1  0  0  0  0
 35 27  1  0  0  0  0
 37 38  1  0  0  0  0
 37  5  1  0  0  0  0
 39 38  2  0  0  0  0
 40 39  1  0  0  0  0
 41 40  2  0  0  0  0
 41 42  1  0  0  0  0
 42 37  2  0  0  0  0
M  END
>  <minimizedAffinity>
-11.7601271

$$$$

 OpenBabel11232420543D

 42 48  0  0  1  0  0  0  0  0999 V2000
  -19.0810   22.7160   11.2110 C   0  0  0  0  0  0  0  0  0  0  0  0
  -19.1070   23.9570   11.8300 N   0  0  0  0  0  0  0  0  0  0  0  0
  -18.3130   24.7280   11.1260 C   0  0  0  0  0  0  0  0  0  0  0  0
  -17.7500   24.0340   10.0950 N   0  0  0  0  0  0  0  0  0  0  0  0
  -18.2530   22.7520   10.0910 C   0  0  0  0  0  0  0  0  0  0  0  0
  -16.8920   24.6800    9.1200 C   0  0  0  0  0  2  0  0  0  0  0  0
  -16.2310   25.8580    9.6300 O   0  0  0  0  0  0  0  0  0  0  0  0
  -16.9550   26.6400   10.4940 C   0  0  0  0  0  0  0  0  0  0  0  0
  -16.5800   27.9740   10.6180 C   0  0  0  0  0  3  0  0  0  0  0  0
  -17.2750   28.8100   11.4970 C   0  0  0  0  0  3  0  0  0  0  0  0
  -18.3350   28.3170   12.2740 C   0  0  0  0  0  0  0  0  0  0  0  0
  -18.6790   26.9610   12.1670 C   0  0  0  0  0  3  0  0  0  0  0  0
  -17.9920   26.1290   11.2800 C   0  0  0  0  0  0  0  0  0  0  0  0
  -19.0720   29.1810   13.1790 C   0  0  0  0  0  0  0  0  0  0  0  0
  -20.4610   29.4220   13.3030 C   0  0  0  0  0  3  0  0  0  0  0  0
  -20.7490   30.3240   14.2450 N   0  0  0  0  0  0  0  0  0  0  0  0
  -19.5460   30.6610   14.7350 N   0  0  0  0  0  0  0  0  0  0  0  0
  -18.5100   30.0100   14.1280 C   0  0  0  0  0  3  0  0  0  0  0  0
  -19.5040   31.3480   15.4810 H   0  0  0  0  0  0  0  0  0  0  0  0
  -21.3040   19.3710   12.8870 C   0  0  0  0  0  0  0  0  0  0  0  0
  -20.0130   19.2440   12.3290 C   0  0  0  0  0  3  0  0  0  0  0  0
  -19.3180   20.3360   11.7860 C   0  0  0  0  0  3  0  0  0  0  0  0
  -19.8830   21.6150   11.7410 C   0  0  0  0  0  0  0  0  0  0  0  0
  -21.1780   21.7550   12.2330 C   0  0  0  0  0  3  0  0  0  0  0  0
  -21.8650   20.6610   12.7880 C   0  0  0  0  0  3  0  0  0  0  0  0
  -22.2670   14.7260   12.9840 C   0  0  0  0  0  1  0  0  0  0  0  0
  -21.8130   16.1570   12.7390 C   0  0  1  0  0  0  0  0  0  0  0  0
  -22.9710   17.1890   12.7400 C   0  0  0  0  0  2  0  0  0  0  0  0
  -22.0690   18.1430   13.5810 C   0  0  1  0  0  0  0  0  0  0  0  0
  -21.2330   16.8920   13.9770 C   0  0  0  0  0  2  0  0  0  0  0  0
  -22.8480   18.6750   14.7310 N   0  0  0  0  0  4  0  0  0  0  0  0
  -22.2340   18.9950   15.4900 H   0  0  0  0  0  0  0  0  0  0  0  0
  -23.4070   19.4890   14.4370 H   0  0  0  0  0  0  0  0  0  0  0  0
  -23.4940   17.9880   15.1350 H   0  0  0  0  0  0  0  0  0  0  0  0
  -20.9910   16.2120   11.5590 O   0  0  0  0  0  0  0  0  0  0  0  0
  -20.3050   15.5250   11.6600 H   0  0  0  0  0  0  0  0  0  0  0  0
  -17.9110   21.7880    9.0570 C   0  0  0  0  0  0  0  0  0  0  0  0
  -16.7420   21.0260    9.1540 C   0  0  0  0  0  3  0  0  0  0  0  0
  -16.4100   20.1230    8.1430 C   0  0  0  0  0  3  0  0  0  0  0  0
  -17.2450   19.9750    7.0360 C   0  0  0  0  0  3  0  0  0  0  0  0
  -18.4120   20.7310    6.9340 C   0  0  0  0  0  3  0  0  0  0  0  0
  -18.7430   21.6390    7.9390 C   0  0  0  0  0  3  0  0  0  0  0  0
  1 23  1  0  0  0  0
  1  2  1  0  0  0  0
  3 13  1  0  0  0  0
  3  2  2  0  0  0  0
  4  3  1  0  0  0  0
  5  4  1  0  0  0  0
  5  1  2  0  0  0  0
  6  7  1  0  0  0  0
  6  4  1  0  0  0  0
  7  8  1  0  0  0  0
  8  9  2  0  0  0  0
  8 13  1  0  0  0  0
  9 10  1  0  0  0  0
 10 11  2  0  0  0  0
 11 14  1  0  0  0  0
 12 11  1  0  0  0  0
 13 12  2  0  0  0  0
 14 15  1  0  0  0  0
 14 18  2  0  0  0  0
 15 16  2  0  0  0  0
 16 17  1  0  0  0  0
 17 19  1  0  0  0  0
 18 17  1  0  0  0  0
 20 29  1  0  0  0  0
 21 20  2  0  0  0  0
 22 21  1  0  0  0  0
 23 22  2  0  0  0  0
 23 24  1  0  0  0  0
 24 25  2  0  0  0  0
 25 20  1  0  0  0  0
 27 28  1  0  0  0  0
 27 26  1  1  0  0  0
 27 30  1  0  0  0  0
 28 29  1  0  0  0  0
 29 30  1  0  0  0  0
 29 31  1  1  0  0  0
 31 34  1  0  0  0  0
 31 32  1  0  0  0  0
 33 31  1  0  0  0  0
 35 36  1  0  0  0  0
 35 27  1  0  0  0  0
 37 38  1  0  0  0  0
 37  5  1  0  0  0  0
 39 38  2  0  0  0  0
 40 39  1  0  0  0  0
 41 40  2  0  0  0  0
 41 42  1  0  0  0  0
 42 37  2  0  0  0  0
M  END
>  <minimizedAffinity>
-11.7302113

$$$$
