
 OpenBabel11232420543D

 42 48  0  0  1  0  0  0  0  0999 V2000
  -19.3060   20.9530   10.7080 C   0  0  0  0  0  0  0  0  0  0  0  0
  -20.0020   20.4470   11.7960 N   0  0  0  0  0  0  0  0  0  0  0  0
  -20.1180   19.1570   11.5830 C   0  0  0  0  0  0  0  0  0  0  0  0
  -19.5540   18.8100   10.3910 N   0  0  0  0  0  0  0  0  0  0  0  0
  -18.9850   19.9270    9.8210 C   0  0  0  0  0  0  0  0  0  0  0  0
  -19.4800   17.4270    9.9560 C   0  0  0  0  0  2  0  0  0  0  0  0
  -20.5110   16.5920   10.5270 O   0  0  0  0  0  0  0  0  0  0  0  0
  -20.8650   16.8600   11.8250 C   0  0  0  0  0  0  0  0  0  0  0  0
  -21.4550   15.8310   12.5530 C   0  0  0  0  0  3  0  0  0  0  0  0
  -21.8500   16.0550   13.8750 C   0  0  0  0  0  3  0  0  0  0  0  0
  -21.6780   17.3130   14.4740 C   0  0  0  0  0  0  0  0  0  0  0  0
  -21.1150   18.3520   13.7190 C   0  0  0  0  0  3  0  0  0  0  0  0
  -20.7100   18.1240   12.4010 C   0  0  0  0  0  0  0  0  0  0  0  0
  -22.0710   17.5520   15.8520 C   0  0  0  0  0  0  0  0  0  0  0  0
  -23.3120   17.3660   16.5050 C   0  0  0  0  0  3  0  0  0  0  0  0
  -23.2850   17.7380   17.7870 N   0  0  0  0  0  0  0  0  0  0  0  0
  -22.0230   18.1600   17.9650 N   0  0  0  0  0  0  0  0  0  0  0  0
  -21.2580   18.0750   16.8360 C   0  0  0  0  0  3  0  0  0  0  0  0
  -21.7520   18.5010   18.8820 H   0  0  0  0  0  0  0  0  0  0  0  0
  -18.5400   25.2350   10.5920 C   0  0  0  0  0  0  0  0  0  0  0  0
  -19.7820   24.6580   10.2490 C   0  0  0  0  0  3  0  0  0  0  0  0
  -20.0040   23.2730   10.2850 C   0  0  0  0  0  3  0  0  0  0  0  0
  -18.9890   22.3770   10.6390 C   0  0  0  0  0  0  0  0  0  0  0  0
  -17.7390   22.9170   10.9270 C   0  0  0  0  0  3  0  0  0  0  0  0
  -17.5250   24.3060   10.9020 C   0  0  0  0  0  3  0  0  0  0  0  0
  -19.8530   29.4910   12.2280 C   0  0  0  0  0  1  0  0  0  0  0  0
  -19.6370   28.0350   11.8450 C   0  0  1  0  0  0  0  0  0  0  0  0
  -19.4740   27.8070   10.3190 C   0  0  0  0  0  2  0  0  0  0  0  0
  -18.3060   26.8220   10.6300 C   0  0  1  0  0  0  0  0  0  0  0  0
  -18.1870   27.5090   12.0210 C   0  0  0  0  0  2  0  0  0  0  0  0
  -17.1450   27.1380    9.7550 N   0  0  0  0  0  4  0  0  0  0  0  0
  -16.2640   26.7870   10.1510 H   0  0  0  0  0  0  0  0  0  0  0  0
  -17.2590   26.6880    8.8350 H   0  0  0  0  0  0  0  0  0  0  0  0
  -17.0230   28.1430    9.5920 H   0  0  0  0  0  0  0  0  0  0  0  0
  -20.6560   27.2160   12.4460 O   0  0  0  0  0  0  0  0  0  0  0  0
  -20.6770   27.4410   13.3950 H   0  0  0  0  0  0  0  0  0  0  0  0
  -18.2270   19.8660    8.5820 C   0  0  0  0  0  0  0  0  0  0  0  0
  -17.2600   18.8730    8.3890 C   0  0  0  0  0  3  0  0  0  0  0  0
  -16.5200   18.8380    7.2070 C   0  0  0  0  0  3  0  0  0  0  0  0
  -16.7440   19.7910    6.2120 C   0  0  0  0  0  3  0  0  0  0  0  0
  -17.7060   20.7820    6.3990 C   0  0  0  0  0  3  0  0  0  0  0  0
  -18.4440   20.8230    7.5820 C   0  0  0  0  0  3  0  0  0  0  0  0
  1  2  1  0  0  0  0
  3  2  2  0  0  0  0
  3 13  1  0  0  0  0
  4  3  1  0  0  0  0
  5  4  1  0  0  0  0
  5  1  2  0  0  0  0
  6  4  1  0  0  0  0
  6  7  1  0  0  0  0
  7  8  1  0  0  0  0
  8 13  2  0  0  0  0
  8  9  1  0  0  0  0
  9 10  2  0  0  0  0
 10 11  1  0  0  0  0
 11 14  1  0  0  0  0
 12 11  2  0  0  0  0
 13 12  1  0  0  0  0
 14 15  1  0  0  0  0
 14 18  2  0  0  0  0
 15 16  2  0  0  0  0
 16 17  1  0  0  0  0
 17 19  1  0  0  0  0
 18 17  1  0  0  0  0
 20 29  1  0  0  0  0
 20 25  1  0  0  0  0
 21 22  1  0  0  0  0
 21 20  2  0  0  0  0
 22 23  2  0  0  0  0
 23  1  1  0  0  0  0
 23 24  1  0  0  0  0
 25 24  2  0  0  0  0
 27 30  1  0  0  0  0
 27 26  1  1  0  0  0
 27 35  1  0  0  0  0
 28 29  1  0  0  0  0
 28 27  1  0  0  0  0
 29 31  1  6  0  0  0
 29 30  1  0  0  0  0
 31 32  1  0  0  0  0
 33 31  1  0  0  0  0
 34 31  1  0  0  0  0
 35 36  1  0  0  0  0
 37  5  1  0  0  0  0
 38 37  1  0  0  0  0
 39 38  2  0  0  0  0
 40 41  2  0  0  0  0
 40 39  1  0  0  0  0
 41 42  1  0  0  0  0
 42 37  2  0  0  0  0
M  END
>  <minimizedAffinity>
-13.5041313

$$$$
