
 OpenBabel11232420353D

 42 48  0  0  1  0  0  0  0  0999 V2000
    0.2740    6.2730   -6.5970 C   0  0  0  0  0  0  0  0  0  0  0  0
    1.3940    5.7340   -7.2150 N   0  0  0  0  0  0  0  0  0  0  0  0
    2.3990    6.5040   -6.8720 C   0  0  0  0  0  0  0  0  0  0  0  0
    1.9740    7.5430   -6.0990 N   0  0  0  0  0  0  0  0  0  0  0  0
    0.6280    7.3930   -5.8500 C   0  0  0  0  0  0  0  0  0  0  0  0
    2.9050    8.4990   -5.5270 C   0  0  0  0  0  2  0  0  0  0  0  0
    4.1300    8.6220   -6.2830 O   0  0  0  0  0  0  0  0  0  0  0  0
    4.6280    7.4640   -6.8240 C   0  0  0  0  0  0  0  0  0  0  0  0
    5.9930    7.4150   -7.0880 C   0  0  0  0  0  3  0  0  0  0  0  0
    6.5500    6.2570   -7.6420 C   0  0  0  0  0  3  0  0  0  0  0  0
    5.7440    5.1510   -7.9540 C   0  0  0  0  0  0  0  0  0  0  0  0
    4.3630    5.2300   -7.7240 C   0  0  0  0  0  3  0  0  0  0  0  0
    3.8100    6.3820   -7.1580 C   0  0  0  0  0  0  0  0  0  0  0  0
    6.3170    3.9340   -8.5010 C   0  0  0  0  0  0  0  0  0  0  0  0
    6.7390    3.6180   -9.8140 C   0  0  0  0  0  3  0  0  0  0  0  0
    7.1750    2.3610   -9.9300 N   0  0  0  0  0  0  0  0  0  0  0  0
    7.0430    1.8680   -8.6880 N   0  0  0  0  0  0  0  0  0  0  0  0
    6.5280    2.7660   -7.7980 C   0  0  0  0  0  3  0  0  0  0  0  0
    7.3150    0.9040   -8.5200 H   0  0  0  0  0  0  0  0  0  0  0  0
   -3.6350    4.3720   -6.8450 C   0  0  0  0  0  0  0  0  0  0  0  0
   -2.6920    4.0800   -5.8360 C   0  0  0  0  0  3  0  0  0  0  0  0
   -1.4340    4.6980   -5.7810 C   0  0  0  0  0  3  0  0  0  0  0  0
   -1.0280    5.6230   -6.7490 C   0  0  0  0  0  0  0  0  0  0  0  0
   -1.9160    5.8780   -7.7910 C   0  0  0  0  0  3  0  0  0  0  0  0
   -3.1820    5.2690   -7.8330 C   0  0  0  0  0  3  0  0  0  0  0  0
   -6.3780    0.5460   -7.4040 C   0  0  0  0  0  1  0  0  0  0  0  0
   -5.3030    1.6140   -7.2770 C   0  0  1  0  0  0  0  0  0  0  0  0
   -5.6070    2.9060   -8.0790 C   0  0  0  0  0  2  0  0  0  0  0  0
   -5.1070    3.7360   -6.8570 C   0  0  1  0  0  0  0  0  0  0  0  0
   -5.3660    2.4730   -5.9850 C   0  0  0  0  0  2  0  0  0  0  0  0
   -6.0800    4.8210   -6.5640 N   0  0  0  0  0  4  0  0  0  0  0  0
   -6.0000    5.1520   -5.5950 H   0  0  0  0  0  0  0  0  0  0  0  0
   -5.9000    5.6340   -7.1710 H   0  0  0  0  0  0  0  0  0  0  0  0
   -7.0560    4.5420   -6.7090 H   0  0  0  0  0  0  0  0  0  0  0  0
   -4.0140    1.0440   -7.5650 O   0  0  0  0  0  0  0  0  0  0  0  0
   -3.9280    0.2430   -7.0130 H   0  0  0  0  0  0  0  0  0  0  0  0
   -0.0930    8.2670   -4.9360 C   0  0  0  0  0  0  0  0  0  0  0  0
    0.1840    8.2500   -3.5660 C   0  0  0  0  0  3  0  0  0  0  0  0
   -0.5340    9.0760   -2.6980 C   0  0  0  0  0  3  0  0  0  0  0  0
   -1.5260    9.9200   -3.1970 C   0  0  0  0  0  3  0  0  0  0  0  0
   -1.8060    9.9410   -4.5620 C   0  0  0  0  0  3  0  0  0  0  0  0
   -1.0940    9.1130   -5.4310 C   0  0  0  0  0  3  0  0  0  0  0  0
  1  5  2  0  0  0  0
  2  3  2  0  0  0  0
  2  1  1  0  0  0  0
  3  4  1  0  0  0  0
  4  5  1  0  0  0  0
  4  6  1  0  0  0  0
  5 37  1  0  0  0  0
  7  6  1  0  0  0  0
  8  7  1  0  0  0  0
  9  8  1  0  0  0  0
 10  9  2  0  0  0  0
 11 12  2  0  0  0  0
 11 10  1  0  0  0  0
 12 13  1  0  0  0  0
 13  3  1  0  0  0  0
 13  8  2  0  0  0  0
 14 11  1  0  0  0  0
 14 18  2  0  0  0  0
 15 14  1  0  0  0  0
 16 15  2  0  0  0  0
 16 17  1  0  0  0  0
 17 19  1  0  0  0  0
 17 18  1  0  0  0  0
 20 21  1  0  0  0  0
 21 22  2  0  0  0  0
 23  1  1  0  0  0  0
 23 22  1  0  0  0  0
 24 23  2  0  0  0  0
 25 24  1  0  0  0  0
 25 20  2  0  0  0  0
 27 26  1  6  0  0  0
 27 30  1  0  0  0  0
 28 27  1  0  0  0  0
 28 29  1  0  0  0  0
 29 20  1  0  0  0  0
 29 31  1  1  0  0  0
 29 30  1  0  0  0  0
 31 32  1  0  0  0  0
 33 31  1  0  0  0  0
 34 31  1  0  0  0  0
 35 27  1  0  0  0  0
 35 36  1  0  0  0  0
 37 38  1  0  0  0  0
 38 39  2  0  0  0  0
 40 39  1  0  0  0  0
 41 40  2  0  0  0  0
 42 37  2  0  0  0  0
 42 41  1  0  0  0  0
M  END
>  <minimizedAffinity>
-13.3132448

$$$$

 OpenBabel11232420353D

 42 48  0  0  1  0  0  0  0  0999 V2000
    0.2250    6.2300   -6.6450 C   0  0  0  0  0  0  0  0  0  0  0  0
    1.3560    5.6980   -7.2480 N   0  0  0  0  0  0  0  0  0  0  0  0
    2.3480    6.4880   -6.9120 C   0  0  0  0  0  0  0  0  0  0  0  0
    1.9030    7.5330   -6.1580 N   0  0  0  0  0  0  0  0  0  0  0  0
    0.5580    7.3670   -5.9140 C   0  0  0  0  0  0  0  0  0  0  0  0
    2.8160    8.5120   -5.5970 C   0  0  0  0  0  2  0  0  0  0  0  0
    4.0440    8.6410   -6.3480 O   0  0  0  0  0  0  0  0  0  0  0  0
    4.5620    7.4820   -6.8670 C   0  0  0  0  0  0  0  0  0  0  0  0
    5.9290    7.4490   -7.1230 C   0  0  0  0  0  3  0  0  0  0  0  0
    6.5060    6.2910   -7.6550 C   0  0  0  0  0  3  0  0  0  0  0  0
    5.7180    5.1680   -7.9540 C   0  0  0  0  0  0  0  0  0  0  0  0
    4.3350    5.2300   -7.7320 C   0  0  0  0  0  3  0  0  0  0  0  0
    3.7620    6.3820   -7.1880 C   0  0  0  0  0  0  0  0  0  0  0  0
    6.3130    3.9510   -8.4770 C   0  0  0  0  0  0  0  0  0  0  0  0
    6.7600    3.6250   -9.7800 C   0  0  0  0  0  3  0  0  0  0  0  0
    7.2110    2.3710   -9.8740 N   0  0  0  0  0  0  0  0  0  0  0  0
    7.0610    1.8900   -8.6300 N   0  0  0  0  0  0  0  0  0  0  0  0
    6.5210    2.7920   -7.7580 C   0  0  0  0  0  3  0  0  0  0  0  0
    7.3390    0.9310   -8.4470 H   0  0  0  0  0  0  0  0  0  0  0  0
   -3.6460    4.2500   -6.8790 C   0  0  0  0  0  0  0  0  0  0  0  0
   -2.6610    3.9190   -5.9240 C   0  0  0  0  0  3  0  0  0  0  0  0
   -1.4160    4.5630   -5.8740 C   0  0  0  0  0  3  0  0  0  0  0  0
   -1.0670    5.5590   -6.7940 C   0  0  0  0  0  0  0  0  0  0  0  0
   -1.9970    5.8570   -7.7860 C   0  0  0  0  0  3  0  0  0  0  0  0
   -3.2500    5.2200   -7.8230 C   0  0  0  0  0  3  0  0  0  0  0  0
   -7.2170    2.3350   -4.4190 C   0  0  0  0  0  1  0  0  0  0  0  0
   -5.9550    2.9730   -4.9790 C   0  0  1  0  0  0  0  0  0  0  0  0
   -5.3500    2.2070   -6.1850 C   0  0  0  0  0  2  0  0  0  0  0  0
   -5.1030    3.5790   -6.8820 C   0  0  1  0  0  0  0  0  0  0  0  0
   -6.1840    4.1750   -5.9360 C   0  0  0  0  0  2  0  0  0  0  0  0
   -5.5750    3.5120   -8.2910 N   0  0  0  0  0  4  0  0  0  0  0  0
   -5.7710    4.4450   -8.6710 H   0  0  0  0  0  0  0  0  0  0  0  0
   -4.8490    3.0930   -8.8900 H   0  0  0  0  0  0  0  0  0  0  0  0
   -6.4270    2.9530   -8.4070 H   0  0  0  0  0  0  0  0  0  0  0  0
   -5.0160    3.2130   -3.9160 O   0  0  0  0  0  0  0  0  0  0  0  0
   -5.4980    3.6940   -3.2160 H   0  0  0  0  0  0  0  0  0  0  0  0
   -0.1810    8.2450   -5.0190 C   0  0  0  0  0  0  0  0  0  0  0  0
    0.0910    8.2580   -3.6480 C   0  0  0  0  0  3  0  0  0  0  0  0
   -0.6440    9.0860   -2.7970 C   0  0  0  0  0  3  0  0  0  0  0  0
   -1.6490    9.9050   -3.3140 C   0  0  0  0  0  3  0  0  0  0  0  0
   -1.9240    9.8950   -4.6800 C   0  0  0  0  0  3  0  0  0  0  0  0
   -1.1950    9.0640   -5.5320 C   0  0  0  0  0  3  0  0  0  0  0  0
  1  5  2  0  0  0  0
  2  3  2  0  0  0  0
  2  1  1  0  0  0  0
  3  4  1  0  0  0  0
  4  5  1  0  0  0  0
  4  6  1  0  0  0  0
  5 37  1  0  0  0  0
  7  6  1  0  0  0  0
  8  7  1  0  0  0  0
  9  8  1  0  0  0  0
 10  9  2  0  0  0  0
 11 12  2  0  0  0  0
 11 10  1  0  0  0  0
 12 13  1  0  0  0  0
 13  3  1  0  0  0  0
 13  8  2  0  0  0  0
 14 11  1  0  0  0  0
 14 18  2  0  0  0  0
 15 14  1  0  0  0  0
 16 15  2  0  0  0  0
 16 17  1  0  0  0  0
 17 19  1  0  0  0  0
 17 18  1  0  0  0  0
 20 21  1  0  0  0  0
 21 22  2  0  0  0  0
 23  1  1  0  0  0  0
 23 22  1  0  0  0  0
 24 23  2  0  0  0  0
 25 24  1  0  0  0  0
 25 20  2  0  0  0  0
 27 26  1  1  0  0  0
 27 35  1  0  0  0  0
 28 27  1  0  0  0  0
 29 31  1  6  0  0  0
 29 20  1  0  0  0  0
 29 28  1  0  0  0  0
 29 30  1  0  0  0  0
 30 27  1  0  0  0  0
 32 31  1  0  0  0  0
 33 31  1  0  0  0  0
 34 31  1  0  0  0  0
 35 36  1  0  0  0  0
 37 38  1  0  0  0  0
 38 39  2  0  0  0  0
 40 39  1  0  0  0  0
 41 40  2  0  0  0  0
 42 37  2  0  0  0  0
 42 41  1  0  0  0  0
M  END
>  <minimizedAffinity>
-12.8382978

$$$$

 OpenBabel11232420353D

 42 48  0  0  1  0  0  0  0  0999 V2000
    2.1440    6.0420   -6.9920 C   0  0  0  0  0  0  0  0  0  0  0  0
    0.7720    6.0090   -6.7820 N   0  0  0  0  0  0  0  0  0  0  0  0
    0.3280    4.9810   -7.4640 C   0  0  0  0  0  0  0  0  0  0  0  0
    1.3430    4.3730   -8.1430 N   0  0  0  0  0  0  0  0  0  0  0  0
    2.5310    4.9870   -7.8160 C   0  0  0  0  0  0  0  0  0  0  0  0
    1.1250    3.1640   -8.9150 C   0  0  0  0  0  2  0  0  0  0  0  0
   -0.2350    3.0210   -9.3800 O   0  0  0  0  0  0  0  0  0  0  0  0
   -1.2180    3.4330   -8.5170 C   0  0  0  0  0  0  0  0  0  0  0  0
   -2.4800    2.8660   -8.6630 C   0  0  0  0  0  3  0  0  0  0  0  0
   -3.5170    3.2550   -7.8090 C   0  0  0  0  0  3  0  0  0  0  0  0
   -3.3050    4.2250   -6.8170 C   0  0  0  0  0  0  0  0  0  0  0  0
   -2.0400    4.8200   -6.7080 C   0  0  0  0  0  3  0  0  0  0  0  0
   -1.0010    4.4220   -7.5530 C   0  0  0  0  0  0  0  0  0  0  0  0
   -4.3670    4.6120   -5.9050 C   0  0  0  0  0  0  0  0  0  0  0  0
   -4.3190    5.0440   -4.5580 C   0  0  0  0  0  3  0  0  0  0  0  0
   -5.5300    5.2670   -4.0420 N   0  0  0  0  0  0  0  0  0  0  0  0
   -6.3610    4.9860   -5.0590 N   0  0  0  0  0  0  0  0  0  0  0  0
   -5.7150    4.5830   -6.1930 C   0  0  0  0  0  3  0  0  0  0  0  0
   -7.3600    5.0810   -4.9060 H   0  0  0  0  0  0  0  0  0  0  0  0
    4.4670    9.0450   -4.8620 C   0  0  0  0  0  0  0  0  0  0  0  0
    3.0620    8.9440   -4.7740 C   0  0  0  0  0  3  0  0  0  0  0  0
    2.3330    7.9740   -5.4770 C   0  0  0  0  0  3  0  0  0  0  0  0
    2.9600    7.0640   -6.3370 C   0  0  0  0  0  0  0  0  0  0  0  0
    4.3380    7.1870   -6.4910 C   0  0  0  0  0  3  0  0  0  0  0  0
    5.0670    8.1500   -5.7710 C   0  0  0  0  0  3  0  0  0  0  0  0
    6.0770   10.3910   -0.6110 C   0  0  0  0  0  1  0  0  0  0  0  0
    5.4480    9.7660   -1.8460 C   0  0  1  0  0  0  0  0  0  0  0  0
    4.6820   10.7790   -2.7390 C   0  0  0  0  0  2  0  0  0  0  0  0
    5.3120   10.0930   -3.9890 C   0  0  1  0  0  0  0  0  0  0  0  0
    6.4130    9.5350   -3.0420 C   0  0  0  0  0  2  0  0  0  0  0  0
    5.8450   11.1320   -4.9090 N   0  0  0  0  0  4  0  0  0  0  0  0
    6.5640   10.7520   -5.5360 H   0  0  0  0  0  0  0  0  0  0  0  0
    5.0920   11.4990   -5.5080 H   0  0  0  0  0  0  0  0  0  0  0  0
    6.2640   11.9310   -4.4200 H   0  0  0  0  0  0  0  0  0  0  0  0
    4.6640    8.6200   -1.4680 O   0  0  0  0  0  0  0  0  0  0  0  0
    5.2370    8.0570   -0.9130 H   0  0  0  0  0  0  0  0  0  0  0  0
    3.8160    4.4790   -8.2700 C   0  0  0  0  0  0  0  0  0  0  0  0
    4.3510    3.3060   -7.7290 C   0  0  0  0  0  3  0  0  0  0  0  0
    5.5970    2.8450   -8.1560 C   0  0  0  0  0  3  0  0  0  0  0  0
    6.3100    3.5520   -9.1250 C   0  0  0  0  0  3  0  0  0  0  0  0
    5.7830    4.7210   -9.6670 C   0  0  0  0  0  3  0  0  0  0  0  0
    4.5390    5.1880   -9.2380 C   0  0  0  0  0  3  0  0  0  0  0  0
  1  2  1  0  0  0  0
  1 23  1  0  0  0  0
  3  2  2  0  0  0  0
  4  5  1  0  0  0  0
  4  3  1  0  0  0  0
  5  1  2  0  0  0  0
  6  4  1  0  0  0  0
  7  6  1  0  0  0  0
  7  8  1  0  0  0  0
  8 13  1  0  0  0  0
  9  8  2  0  0  0  0
  9 10  1  0  0  0  0
 10 11  2  0  0  0  0
 11 12  1  0  0  0  0
 11 14  1  0  0  0  0
 13  3  1  0  0  0  0
 13 12  2  0  0  0  0
 14 15  1  0  0  0  0
 15 16  2  0  0  0  0
 17 19  1  0  0  0  0
 17 16  1  0  0  0  0
 18 14  2  0  0  0  0
 18 17  1  0  0  0  0
 20 21  1  0  0  0  0
 20 29  1  0  0  0  0
 22 21  2  0  0  0  0
 23 22  1  0  0  0  0
 24 23  2  0  0  0  0
 24 25  1  0  0  0  0
 25 20  2  0  0  0  0
 27 35  1  0  0  0  0
 27 26  1  1  0  0  0
 28 27  1  0  0  0  0
 29 31  1  6  0  0  0
 29 30  1  0  0  0  0
 29 28  1  0  0  0  0
 30 27  1  0  0  0  0
 31 34  1  0  0  0  0
 32 31  1  0  0  0  0
 33 31  1  0  0  0  0
 35 36  1  0  0  0  0
 37  5  1  0  0  0  0
 37 38  1  0  0  0  0
 39 38  2  0  0  0  0
 40 39  1  0  0  0  0
 41 42  1  0  0  0  0
 41 40  2  0  0  0  0
 42 37  2  0  0  0  0
M  END
>  <minimizedAffinity>
-11.6939802

$$$$

 OpenBabel11232420353D

 42 48  0  0  1  0  0  0  0  0999 V2000
    0.9390    5.6340   -7.0470 C   0  0  0  0  0  0  0  0  0  0  0  0
   -0.3780    5.6100   -6.6070 N   0  0  0  0  0  0  0  0  0  0  0  0
   -0.9320    4.5730   -7.1880 C   0  0  0  0  0  0  0  0  0  0  0  0
   -0.0470    3.9510   -8.0190 N   0  0  0  0  0  0  0  0  0  0  0  0
    1.1790    4.5660   -7.9070 C   0  0  0  0  0  0  0  0  0  0  0  0
   -0.3940    2.7310   -8.7250 C   0  0  0  0  0  2  0  0  0  0  0  0
   -1.8130    2.5870   -8.9510 O   0  0  0  0  0  0  0  0  0  0  0  0
   -2.6350    3.0160   -7.9400 C   0  0  0  0  0  0  0  0  0  0  0  0
   -3.9040    2.4510   -7.8620 C   0  0  0  0  0  3  0  0  0  0  0  0
   -4.7820    2.8570   -6.8510 C   0  0  0  0  0  3  0  0  0  0  0  0
   -4.4040    3.8410   -5.9240 C   0  0  0  0  0  0  0  0  0  0  0  0
   -3.1380    4.4330   -6.0400 C   0  0  0  0  0  3  0  0  0  0  0  0
   -2.2580    4.0180   -7.0420 C   0  0  0  0  0  0  0  0  0  0  0  0
   -5.2960    4.2460   -4.8520 C   0  0  0  0  0  0  0  0  0  0  0  0
   -6.5300    3.7040   -4.4200 C   0  0  0  0  0  3  0  0  0  0  0  0
   -7.0760    4.3950   -3.4160 N   0  0  0  0  0  0  0  0  0  0  0  0
   -6.1890    5.3790   -3.1940 N   0  0  0  0  0  0  0  0  0  0  0  0
   -5.1110    5.3390   -4.0310 C   0  0  0  0  0  3  0  0  0  0  0  0
   -6.3890    6.0510   -2.4600 H   0  0  0  0  0  0  0  0  0  0  0  0
    3.5840    8.6690   -5.3890 C   0  0  0  0  0  0  0  0  0  0  0  0
    2.2000    8.6130   -5.1170 C   0  0  0  0  0  3  0  0  0  0  0  0
    1.3650    7.6310   -5.6710 C   0  0  0  0  0  3  0  0  0  0  0  0
    1.8550    6.6630   -6.5550 C   0  0  0  0  0  0  0  0  0  0  0  0
    3.2050    6.7380   -6.8890 C   0  0  0  0  0  3  0  0  0  0  0  0
    4.0420    7.7140   -6.3190 C   0  0  0  0  0  3  0  0  0  0  0  0
    5.2750   10.5720   -1.3900 C   0  0  0  0  0  1  0  0  0  0  0  0
    4.5880    9.8170   -2.5170 C   0  0  1  0  0  0  0  0  0  0  0  0
    4.0090   10.7350   -3.6250 C   0  0  0  0  0  2  0  0  0  0  0  0
    4.5570    9.7330   -4.6870 C   0  0  1  0  0  0  0  0  0  0  0  0
    5.5360    9.2180   -3.5920 C   0  0  0  0  0  2  0  0  0  0  0  0
    5.2660   10.4830   -5.7560 N   0  0  0  0  0  4  0  0  0  0  0  0
    5.9330    9.8870   -6.2610 H   0  0  0  0  0  0  0  0  0  0  0  0
    4.5930   10.8320   -6.4540 H   0  0  0  0  0  0  0  0  0  0  0  0
    5.7900   11.2930   -5.4060 H   0  0  0  0  0  0  0  0  0  0  0  0
    3.6290    8.8930   -1.9710 O   0  0  0  0  0  0  0  0  0  0  0  0
    4.0950    8.3720   -1.2890 H   0  0  0  0  0  0  0  0  0  0  0  0
    2.3690    4.0460   -8.5640 C   0  0  0  0  0  0  0  0  0  0  0  0
    3.5070    3.7150   -7.8220 C   0  0  0  0  0  3  0  0  0  0  0  0
    4.6500    3.2420   -8.4690 C   0  0  0  0  0  3  0  0  0  0  0  0
    4.6580    3.0960   -9.8570 C   0  0  0  0  0  3  0  0  0  0  0  0
    3.5270    3.4250  -10.6010 C   0  0  0  0  0  3  0  0  0  0  0  0
    2.3850    3.9030   -9.9580 C   0  0  0  0  0  3  0  0  0  0  0  0
  1  2  1  0  0  0  0
  1 23  1  0  0  0  0
  3 13  1  0  0  0  0
  3  2  2  0  0  0  0
  4  5  1  0  0  0  0
  4  3  1  0  0  0  0
  5  1  2  0  0  0  0
  6  4  1  0  0  0  0
  7  6  1  0  0  0  0
  7  8  1  0  0  0  0
  8  9  2  0  0  0  0
  8 13  1  0  0  0  0
  9 10  1  0  0  0  0
 10 11  2  0  0  0  0
 11 14  1  0  0  0  0
 12 11  1  0  0  0  0
 13 12  2  0  0  0  0
 14 15  1  0  0  0  0
 14 18  2  0  0  0  0
 15 16  2  0  0  0  0
 16 17  1  0  0  0  0
 17 19  1  0  0  0  0
 18 17  1  0  0  0  0
 20 21  1  0  0  0  0
 20 29  1  0  0  0  0
 22 21  2  0  0  0  0
 23 22  1  0  0  0  0
 24 23  2  0  0  0  0
 24 25  1  0  0  0  0
 25 20  2  0  0  0  0
 27 35  1  0  0  0  0
 27 26  1  1  0  0  0
 28 27  1  0  0  0  0
 29 31  1  6  0  0  0
 29 28  1  0  0  0  0
 29 30  1  0  0  0  0
 30 27  1  0  0  0  0
 31 34  1  0  0  0  0
 32 31  1  0  0  0  0
 33 31  1  0  0  0  0
 35 36  1  0  0  0  0
 37  5  1  0  0  0  0
 37 38  1  0  0  0  0
 39 38  2  0  0  0  0
 40 39  1  0  0  0  0
 41 42  1  0  0  0  0
 41 40  2  0  0  0  0
 42 37  2  0  0  0  0
M  END
>  <minimizedAffinity>
-11.5758982

$$$$

 OpenBabel11232420353D

 42 48  0  0  1  0  0  0  0  0999 V2000
    2.0270    5.8440   -7.1890 C   0  0  0  0  0  0  0  0  0  0  0  0
    0.6560    5.6440   -7.0920 N   0  0  0  0  0  0  0  0  0  0  0  0
    0.3740    4.6750   -7.9290 C   0  0  0  0  0  0  0  0  0  0  0  0
    1.4910    4.2690   -8.5970 N   0  0  0  0  0  0  0  0  0  0  0  0
    2.5800    4.9530   -8.1040 C   0  0  0  0  0  0  0  0  0  0  0  0
    1.4600    3.1570   -9.5290 C   0  0  0  0  0  2  0  0  0  0  0  0
    0.1560    2.9390  -10.1130 O   0  0  0  0  0  0  0  0  0  0  0  0
   -0.9190    3.1310   -9.2840 C   0  0  0  0  0  0  0  0  0  0  0  0
   -2.0980    2.4630   -9.5980 C   0  0  0  0  0  3  0  0  0  0  0  0
   -3.2250    2.6270   -8.7850 C   0  0  0  0  0  3  0  0  0  0  0  0
   -3.1860    3.4740   -7.6660 C   0  0  0  0  0  0  0  0  0  0  0  0
   -2.0050    4.1750   -7.3860 C   0  0  0  0  0  3  0  0  0  0  0  0
   -0.8770    4.0000   -8.1910 C   0  0  0  0  0  0  0  0  0  0  0  0
   -4.3410    3.6270   -6.7990 C   0  0  0  0  0  0  0  0  0  0  0  0
   -4.7130    4.6800   -5.9290 C   0  0  0  0  0  3  0  0  0  0  0  0
   -5.8390    4.4240   -5.2580 N   0  0  0  0  0  0  0  0  0  0  0  0
   -6.1980    3.2080   -5.7000 N   0  0  0  0  0  0  0  0  0  0  0  0
   -5.3320    2.6850   -6.6180 C   0  0  0  0  0  3  0  0  0  0  0  0
   -7.0440    2.7900   -5.3250 H   0  0  0  0  0  0  0  0  0  0  0  0
    4.0850    8.8930   -4.8590 C   0  0  0  0  0  0  0  0  0  0  0  0
    4.7490    7.9930   -5.7200 C   0  0  0  0  0  3  0  0  0  0  0  0
    4.0660    7.0120   -6.4540 C   0  0  0  0  0  3  0  0  0  0  0  0
    2.6800    6.8490   -6.3490 C   0  0  0  0  0  0  0  0  0  0  0  0
    2.0110    7.6810   -5.4560 C   0  0  0  0  0  3  0  0  0  0  0  0
    2.6970    8.6740   -4.7350 C   0  0  0  0  0  3  0  0  0  0  0  0
    5.7550   10.6400   -0.7810 C   0  0  0  0  0  1  0  0  0  0  0  0
    5.1350    9.8830   -1.9450 C   0  0  1  0  0  0  0  0  0  0  0  0
    4.2150   10.7540   -2.8400 C   0  0  0  0  0  2  0  0  0  0  0  0
    4.8500   10.0730   -4.0900 C   0  0  1  0  0  0  0  0  0  0  0  0
    6.0560    9.6930   -3.1820 C   0  0  0  0  0  2  0  0  0  0  0  0
    5.2140   11.1120   -5.0890 N   0  0  0  0  0  4  0  0  0  0  0  0
    5.9370   10.7790   -5.7380 H   0  0  0  0  0  0  0  0  0  0  0  0
    4.3930   11.3610   -5.6600 H   0  0  0  0  0  0  0  0  0  0  0  0
    5.5650   11.9780   -4.6650 H   0  0  0  0  0  0  0  0  0  0  0  0
    4.5070    8.6800   -1.4660 O   0  0  0  0  0  0  0  0  0  0  0  0
    5.1680    8.2150   -0.9190 H   0  0  0  0  0  0  0  0  0  0  0  0
    3.9410    4.6430   -8.5170 C   0  0  0  0  0  0  0  0  0  0  0  0
    4.5510    5.3530   -9.5540 C   0  0  0  0  0  3  0  0  0  0  0  0
    5.8470    5.0270   -9.9570 C   0  0  0  0  0  3  0  0  0  0  0  0
    6.5370    3.9940   -9.3220 C   0  0  0  0  0  3  0  0  0  0  0  0
    5.9340    3.2820   -8.2880 C   0  0  0  0  0  3  0  0  0  0  0  0
    4.6360    3.6020   -7.8870 C   0  0  0  0  0  3  0  0  0  0  0  0
  1  2  1  0  0  0  0
  1 23  1  0  0  0  0
  3  2  2  0  0  0  0
  4  5  1  0  0  0  0
  4  3  1  0  0  0  0
  5  1  2  0  0  0  0
  6  4  1  0  0  0  0
  7  6  1  0  0  0  0
  7  8  1  0  0  0  0
  8 13  1  0  0  0  0
  9  8  2  0  0  0  0
  9 10  1  0  0  0  0
 10 11  2  0  0  0  0
 11 12  1  0  0  0  0
 11 14  1  0  0  0  0
 13  3  1  0  0  0  0
 13 12  2  0  0  0  0
 14 18  2  0  0  0  0
 14 15  1  0  0  0  0
 15 16  2  0  0  0  0
 17 19  1  0  0  0  0
 17 16  1  0  0  0  0
 18 17  1  0  0  0  0
 20 25  1  0  0  0  0
 20 29  1  0  0  0  0
 21 20  2  0  0  0  0
 22 23  2  0  0  0  0
 22 21  1  0  0  0  0
 23 24  1  0  0  0  0
 24 25  2  0  0  0  0
 27 35  1  0  0  0  0
 27 26  1  1  0  0  0
 28 27  1  0  0  0  0
 29 31  1  6  0  0  0
 29 30  1  0  0  0  0
 29 28  1  0  0  0  0
 30 27  1  0  0  0  0
 31 34  1  0  0  0  0
 32 31  1  0  0  0  0
 33 31  1  0  0  0  0
 35 36  1  0  0  0  0
 37  5  1  0  0  0  0
 37 42  1  0  0  0  0
 38 37  2  0  0  0  0
 39 38  1  0  0  0  0
 39 40  2  0  0  0  0
 40 41  1  0  0  0  0
 41 42  2  0  0  0  0
M  END
>  <minimizedAffinity>
-11.2420521

$$$$

 OpenBabel11232420353D

 42 48  0  0  1  0  0  0  0  0999 V2000
    0.3040    5.5310   -7.0670 C   0  0  0  0  0  0  0  0  0  0  0  0
    1.2850    4.8440   -7.7700 N   0  0  0  0  0  0  0  0  0  0  0  0
    2.3740    5.5660   -7.6650 C   0  0  0  0  0  0  0  0  0  0  0  0
    2.1340    6.7110   -6.9660 N   0  0  0  0  0  0  0  0  0  0  0  0
    0.8330    6.6930   -6.5130 C   0  0  0  0  0  0  0  0  0  0  0  0
    3.1960    7.6470   -6.6470 C   0  0  0  0  0  2  0  0  0  0  0  0
    4.3000    7.5940   -7.5770 O   0  0  0  0  0  0  0  0  0  0  0  0
    4.6400    6.3500   -8.0450 C   0  0  0  0  0  0  0  0  0  0  0  0
    5.9450    6.1680   -8.4910 C   0  0  0  0  0  3  0  0  0  0  0  0
    6.3410    4.9180   -8.9800 C   0  0  0  0  0  3  0  0  0  0  0  0
    5.4320    3.8510   -9.0440 C   0  0  0  0  0  0  0  0  0  0  0  0
    4.1080    4.0610   -8.6320 C   0  0  0  0  0  3  0  0  0  0  0  0
    3.7170    5.3050   -8.1310 C   0  0  0  0  0  0  0  0  0  0  0  0
    5.8420    2.5420   -9.5210 C   0  0  0  0  0  0  0  0  0  0  0  0
    6.9420    2.1500  -10.3200 C   0  0  0  0  0  3  0  0  0  0  0  0
    6.9510    0.8410  -10.5840 N   0  0  0  0  0  0  0  0  0  0  0  0
    5.8590    0.3860   -9.9480 N   0  0  0  0  0  0  0  0  0  0  0  0
    5.1580    1.3640   -9.3030 C   0  0  0  0  0  3  0  0  0  0  0  0
    5.6470   -0.6050  -10.0050 H   0  0  0  0  0  0  0  0  0  0  0  0
   -3.7780    4.0620   -6.7010 C   0  0  0  0  0  0  0  0  0  0  0  0
   -3.1860    4.9490   -5.7770 C   0  0  0  0  0  3  0  0  0  0  0  0
   -1.8650    5.4020   -5.9090 C   0  0  0  0  0  3  0  0  0  0  0  0
   -1.0430    4.9720   -6.9580 C   0  0  0  0  0  0  0  0  0  0  0  0
   -1.5840    4.0450   -7.8460 C   0  0  0  0  0  3  0  0  0  0  0  0
   -2.9140    3.6070   -7.7180 C   0  0  0  0  0  3  0  0  0  0  0  0
   -7.4560    2.8130   -3.9840 C   0  0  0  0  0  1  0  0  0  0  0  0
   -6.1460    3.2290   -4.6340 C   0  0  1  0  0  0  0  0  0  0  0  0
   -5.7230    2.3280   -5.8240 C   0  0  0  0  0  2  0  0  0  0  0  0
   -5.3150    3.6150   -6.6030 C   0  0  1  0  0  0  0  0  0  0  0  0
   -6.2470    4.4070   -5.6420 C   0  0  0  0  0  2  0  0  0  0  0  0
   -5.8650    3.5540   -7.9830 N   0  0  0  0  0  4  0  0  0  0  0  0
   -5.9430    4.4880   -8.4030 H   0  0  0  0  0  0  0  0  0  0  0  0
   -5.2410    3.0050   -8.5920 H   0  0  0  0  0  0  0  0  0  0  0  0
   -6.7950    3.1230   -8.0310 H   0  0  0  0  0  0  0  0  0  0  0  0
   -5.1280    3.3760   -3.6280 O   0  0  0  0  0  0  0  0  0  0  0  0
   -5.4970    3.9550   -2.9340 H   0  0  0  0  0  0  0  0  0  0  0  0
    0.3120    7.7130   -5.6150 C   0  0  0  0  0  0  0  0  0  0  0  0
   -0.6640    8.6140   -6.0490 C   0  0  0  0  0  3  0  0  0  0  0  0
   -1.1360    9.6030   -5.1850 C   0  0  0  0  0  3  0  0  0  0  0  0
   -0.6370    9.6920   -3.8850 C   0  0  0  0  0  3  0  0  0  0  0  0
    0.3360    8.7960   -3.4470 C   0  0  0  0  0  3  0  0  0  0  0  0
    0.8140    7.8100   -4.3110 C   0  0  0  0  0  3  0  0  0  0  0  0
  1 23  1  0  0  0  0
  1  5  2  0  0  0  0
  2  3  2  0  0  0  0
  2  1  1  0  0  0  0
  3  4  1  0  0  0  0
  4  6  1  0  0  0  0
  4  5  1  0  0  0  0
  5 37  1  0  0  0  0
  7  6  1  0  0  0  0
  8  7  1  0  0  0  0
  9  8  2  0  0  0  0
 10  9  1  0  0  0  0
 11 10  2  0  0  0  0
 11 12  1  0  0  0  0
 12 13  2  0  0  0  0
 13  8  1  0  0  0  0
 13  3  1  0  0  0  0
 14 18  2  0  0  0  0
 14 11  1  0  0  0  0
 15 14  1  0  0  0  0
 16 15  2  0  0  0  0
 16 17  1  0  0  0  0
 17 18  1  0  0  0  0
 19 17  1  0  0  0  0
 20 29  1  0  0  0  0
 20 21  1  0  0  0  0
 22 21  2  0  0  0  0
 23 22  1  0  0  0  0
 24 25  1  0  0  0  0
 24 23  2  0  0  0  0
 25 20  2  0  0  0  0
 27 26  1  1  0  0  0
 27 35  1  0  0  0  0
 28 27  1  0  0  0  0
 29 31  1  6  0  0  0
 29 28  1  0  0  0  0
 29 30  1  0  0  0  0
 30 27  1  0  0  0  0
 32 31  1  0  0  0  0
 33 31  1  0  0  0  0
 34 31  1  0  0  0  0
 35 36  1  0  0  0  0
 37 42  1  0  0  0  0
 38 37  2  0  0  0  0
 38 39  1  0  0  0  0
 39 40  2  0  0  0  0
 40 41  1  0  0  0  0
 42 41  2  0  0  0  0
M  END
>  <minimizedAffinity>
-10.6961088

$$$$

 OpenBabel11232420353D

 42 48  0  0  1  0  0  0  0  0999 V2000
    2.5980    5.1310   -7.6410 C   0  0  0  0  0  0  0  0  0  0  0  0
    1.3840    4.4650   -7.5450 N   0  0  0  0  0  0  0  0  0  0  0  0
    0.5680    5.2910   -6.9360 C   0  0  0  0  0  0  0  0  0  0  0  0
    1.2110    6.4430   -6.5910 N   0  0  0  0  0  0  0  0  0  0  0  0
    2.4960    6.4020   -7.0820 C   0  0  0  0  0  0  0  0  0  0  0  0
    0.5080    7.5510   -5.9700 C   0  0  0  0  0  2  0  0  0  0  0  0
   -0.6700    7.1410   -5.2400 O   0  0  0  0  0  0  0  0  0  0  0  0
   -1.4060    6.1270   -5.7980 C   0  0  0  0  0  0  0  0  0  0  0  0
   -2.7530    6.0510   -5.4580 C   0  0  0  0  0  3  0  0  0  0  0  0
   -3.5470    5.0340   -5.9980 C   0  0  0  0  0  3  0  0  0  0  0  0
   -2.9970    4.0760   -6.8630 C   0  0  0  0  0  0  0  0  0  0  0  0
   -1.6290    4.1390   -7.1640 C   0  0  0  0  0  3  0  0  0  0  0  0
   -0.8400    5.1630   -6.6350 C   0  0  0  0  0  0  0  0  0  0  0  0
   -3.8200    3.0350   -7.4530 C   0  0  0  0  0  0  0  0  0  0  0  0
   -3.8120    2.4740   -8.7530 C   0  0  0  0  0  3  0  0  0  0  0  0
   -4.7670    1.5570   -8.9270 N   0  0  0  0  0  0  0  0  0  0  0  0
   -5.3880    1.5210   -7.7370 N   0  0  0  0  0  0  0  0  0  0  0  0
   -4.8640    2.3910   -6.8230 C   0  0  0  0  0  3  0  0  0  0  0  0
   -6.1700    0.8850   -7.6200 H   0  0  0  0  0  0  0  0  0  0  0  0
    6.0580    3.1920   -9.4380 C   0  0  0  0  0  0  0  0  0  0  0  0
    6.1550    4.1710   -8.4270 C   0  0  0  0  0  3  0  0  0  0  0  0
    5.0260    4.7900   -7.8690 C   0  0  0  0  0  3  0  0  0  0  0  0
    3.7320    4.4910   -8.3090 C   0  0  0  0  0  0  0  0  0  0  0  0
    3.6150    3.5750   -9.3520 C   0  0  0  0  0  3  0  0  0  0  0  0
    4.7470    2.9450   -9.8970 C   0  0  0  0  0  3  0  0  0  0  0  0
    8.5110   -0.8480   -9.7970 C   0  0  0  0  0  1  0  0  0  0  0  0
    7.5620    0.3100   -9.5350 C   0  0  1  0  0  0  0  0  0  0  0  0
    8.2730    1.6060   -9.0640 C   0  0  0  0  0  2  0  0  0  0  0  0
    7.3390    2.4170  -10.0130 C   0  0  1  0  0  0  0  0  0  0  0  0
    7.1030    1.0930  -10.7960 C   0  0  0  0  0  2  0  0  0  0  0  0
    8.1490    3.3870  -10.7960 N   0  0  0  0  0  4  0  0  0  0  0  0
    7.6710    3.6740  -11.6580 H   0  0  0  0  0  0  0  0  0  0  0  0
    8.3100    4.2440  -10.2460 H   0  0  0  0  0  0  0  0  0  0  0  0
    9.0690    3.0220  -11.0680 H   0  0  0  0  0  0  0  0  0  0  0  0
    6.4990   -0.1160   -8.6650 O   0  0  0  0  0  0  0  0  0  0  0  0
    6.1270   -0.9320   -9.0510 H   0  0  0  0  0  0  0  0  0  0  0  0
    3.3940    7.5440   -7.0010 C   0  0  0  0  0  0  0  0  0  0  0  0
    4.0060    7.8850   -5.7910 C   0  0  0  0  0  3  0  0  0  0  0  0
    4.8440    9.0000   -5.7220 C   0  0  0  0  0  3  0  0  0  0  0  0
    5.0740    9.7730   -6.8600 C   0  0  0  0  0  3  0  0  0  0  0  0
    4.4660    9.4380   -8.0680 C   0  0  0  0  0  3  0  0  0  0  0  0
    3.6240    8.3280   -8.1390 C   0  0  0  0  0  3  0  0  0  0  0  0
  1  2  1  0  0  0  0
  1  5  2  0  0  0  0
  2  3  2  0  0  0  0
  3 13  1  0  0  0  0
  3  4  1  0  0  0  0
  4  6  1  0  0  0  0
  5 37  1  0  0  0  0
  5  4  1  0  0  0  0
  6  7  1  0  0  0  0
  8  9  1  0  0  0  0
  8  7  1  0  0  0  0
 10  9  2  0  0  0  0
 11 10  1  0  0  0  0
 12 11  2  0  0  0  0
 12 13  1  0  0  0  0
 13  8  2  0  0  0  0
 14 11  1  0  0  0  0
 14 18  2  0  0  0  0
 15 14  1  0  0  0  0
 16 15  2  0  0  0  0
 16 17  1  0  0  0  0
 17 19  1  0  0  0  0
 17 18  1  0  0  0  0
 20 21  1  0  0  0  0
 21 22  2  0  0  0  0
 23 22  1  0  0  0  0
 23  1  1  0  0  0  0
 24 23  2  0  0  0  0
 25 20  2  0  0  0  0
 25 24  1  0  0  0  0
 27 26  1  6  0  0  0
 27 28  1  0  0  0  0
 27 35  1  0  0  0  0
 29 31  1  6  0  0  0
 29 20  1  0  0  0  0
 29 28  1  0  0  0  0
 30 29  1  0  0  0  0
 30 27  1  0  0  0  0
 31 33  1  0  0  0  0
 32 31  1  0  0  0  0
 34 31  1  0  0  0  0
 36 35  1  0  0  0  0
 37 38  1  0  0  0  0
 38 39  2  0  0  0  0
 40 39  1  0  0  0  0
 41 40  2  0  0  0  0
 42 41  1  0  0  0  0
 42 37  2  0  0  0  0
M  END
>  <minimizedAffinity>
-10.6124916

$$$$

 OpenBabel11232420353D

 42 48  0  0  1  0  0  0  0  0999 V2000
    0.2160    4.8250   -7.4430 C   0  0  0  0  0  0  0  0  0  0  0  0
   -1.1180    4.6290   -7.1110 N   0  0  0  0  0  0  0  0  0  0  0  0
   -1.5070    3.5760   -7.7890 C   0  0  0  0  0  0  0  0  0  0  0  0
   -0.4990    3.1090   -8.5810 N   0  0  0  0  0  0  0  0  0  0  0  0
    0.6380    3.8460   -8.3390 C   0  0  0  0  0  0  0  0  0  0  0  0
   -0.6520    1.9060   -9.3780 C   0  0  0  0  0  2  0  0  0  0  0  0
   -2.0260    1.6220   -9.7230 O   0  0  0  0  0  0  0  0  0  0  0  0
   -2.9630    1.8930   -8.7580 C   0  0  0  0  0  0  0  0  0  0  0  0
   -4.1620    1.1900   -8.8120 C   0  0  0  0  0  3  0  0  0  0  0  0
   -5.1500    1.4320   -7.8520 C   0  0  0  0  0  3  0  0  0  0  0  0
   -4.9550    2.3910   -6.8460 C   0  0  0  0  0  0  0  0  0  0  0  0
   -3.7600    3.1240   -6.8290 C   0  0  0  0  0  3  0  0  0  0  0  0
   -2.7680    2.8720   -7.7800 C   0  0  0  0  0  0  0  0  0  0  0  0
   -5.9630    2.6270   -5.8270 C   0  0  0  0  0  0  0  0  0  0  0  0
   -7.0020    1.7970   -5.3430 C   0  0  0  0  0  3  0  0  0  0  0  0
   -7.7590    2.3980   -4.4210 N   0  0  0  0  0  0  0  0  0  0  0  0
   -7.2030    3.6150   -4.3050 N   0  0  0  0  0  0  0  0  0  0  0  0
   -6.1300    3.8040   -5.1290 C   0  0  0  0  0  3  0  0  0  0  0  0
   -7.6130    4.2720   -3.6490 H   0  0  0  0  0  0  0  0  0  0  0  0
    2.3650    8.0250   -5.4180 C   0  0  0  0  0  0  0  0  0  0  0  0
    0.9730    7.8260   -5.2970 C   0  0  0  0  0  3  0  0  0  0  0  0
    0.2990    6.7940   -5.9670 C   0  0  0  0  0  3  0  0  0  0  0  0
    0.9710    5.9150   -6.8240 C   0  0  0  0  0  0  0  0  0  0  0  0
    2.3340    6.1310   -7.0110 C   0  0  0  0  0  3  0  0  0  0  0  0
    3.0070    7.1570   -6.3250 C   0  0  0  0  0  3  0  0  0  0  0  0
    6.0690   10.9650   -5.0940 C   0  0  0  0  0  1  0  0  0  0  0  0
    4.9870    9.9480   -5.4210 C   0  0  1  0  0  0  0  0  0  0  0  0
    4.6650    8.9790   -4.2530 C   0  0  0  0  0  2  0  0  0  0  0  0
    3.1510    9.1460   -4.5840 C   0  0  1  0  0  0  0  0  0  0  0  0
    3.5280   10.4690   -5.3110 C   0  0  0  0  0  2  0  0  0  0  0  0
    2.3940    9.3990   -3.3290 N   0  0  0  0  0  4  0  0  0  0  0  0
    1.4970    9.8630   -3.5130 H   0  0  0  0  0  0  0  0  0  0  0  0
    2.1780    8.5090   -2.8570 H   0  0  0  0  0  0  0  0  0  0  0  0
    2.9050    9.9850   -2.6580 H   0  0  0  0  0  0  0  0  0  0  0  0
    5.3020    9.2810   -6.6570 O   0  0  0  0  0  0  0  0  0  0  0  0
    5.4870    9.9780   -7.3150 H   0  0  0  0  0  0  0  0  0  0  0  0
    1.9240    3.5020   -8.9270 C   0  0  0  0  0  0  0  0  0  0  0  0
    2.2350    3.8860  -10.2350 C   0  0  0  0  0  3  0  0  0  0  0  0
    3.4620    3.5260  -10.7950 C   0  0  0  0  0  3  0  0  0  0  0  0
    4.3810    2.7860  -10.0510 C   0  0  0  0  0  3  0  0  0  0  0  0
    4.0760    2.4010   -8.7470 C   0  0  0  0  0  3  0  0  0  0  0  0
    2.8480    2.7540   -8.1860 C   0  0  0  0  0  3  0  0  0  0  0  0
  1  2  1  0  0  0  0
  1 23  1  0  0  0  0
  3 13  1  0  0  0  0
  3  2  2  0  0  0  0
  4  5  1  0  0  0  0
  4  3  1  0  0  0  0
  5  1  2  0  0  0  0
  6  4  1  0  0  0  0
  7  6  1  0  0  0  0
  7  8  1  0  0  0  0
  8 13  1  0  0  0  0
  9  8  2  0  0  0  0
  9 10  1  0  0  0  0
 10 11  2  0  0  0  0
 11 12  1  0  0  0  0
 11 14  1  0  0  0  0
 13 12  2  0  0  0  0
 14 15  1  0  0  0  0
 14 18  2  0  0  0  0
 15 16  2  0  0  0  0
 16 17  1  0  0  0  0
 17 19  1  0  0  0  0
 18 17  1  0  0  0  0
 20 21  1  0  0  0  0
 20 29  1  0  0  0  0
 22 21  2  0  0  0  0
 23 22  1  0  0  0  0
 24 23  2  0  0  0  0
 24 25  1  0  0  0  0
 25 20  2  0  0  0  0
 27 30  1  0  0  0  0
 27 26  1  1  0  0  0
 27 28  1  0  0  0  0
 29 28  1  0  0  0  0
 29 31  1  1  0  0  0
 30 29  1  0  0  0  0
 31 33  1  0  0  0  0
 31 34  1  0  0  0  0
 32 31  1  0  0  0  0
 35 27  1  0  0  0  0
 36 35  1  0  0  0  0
 37  5  1  0  0  0  0
 37 42  1  0  0  0  0
 38 37  2  0  0  0  0
 39 38  1  0  0  0  0
 39 40  2  0  0  0  0
 40 41  1  0  0  0  0
 41 42  2  0  0  0  0
M  END
>  <minimizedAffinity>
-10.4502268

$$$$
