
 OpenBabel11232420353D

 42 48  0  0  1  0  0  0  0  0999 V2000
    0.9390    5.6340   -7.0470 C   0  0  0  0  0  0  0  0  0  0  0  0
   -0.3780    5.6100   -6.6070 N   0  0  0  0  0  0  0  0  0  0  0  0
   -0.9320    4.5730   -7.1880 C   0  0  0  0  0  0  0  0  0  0  0  0
   -0.0470    3.9510   -8.0190 N   0  0  0  0  0  0  0  0  0  0  0  0
    1.1790    4.5660   -7.9070 C   0  0  0  0  0  0  0  0  0  0  0  0
   -0.3940    2.7310   -8.7250 C   0  0  0  0  0  2  0  0  0  0  0  0
   -1.8130    2.5870   -8.9510 O   0  0  0  0  0  0  0  0  0  0  0  0
   -2.6350    3.0160   -7.9400 C   0  0  0  0  0  0  0  0  0  0  0  0
   -3.9040    2.4510   -7.8620 C   0  0  0  0  0  3  0  0  0  0  0  0
   -4.7820    2.8570   -6.8510 C   0  0  0  0  0  3  0  0  0  0  0  0
   -4.4040    3.8410   -5.9240 C   0  0  0  0  0  0  0  0  0  0  0  0
   -3.1380    4.4330   -6.0400 C   0  0  0  0  0  3  0  0  0  0  0  0
   -2.2580    4.0180   -7.0420 C   0  0  0  0  0  0  0  0  0  0  0  0
   -5.2960    4.2460   -4.8520 C   0  0  0  0  0  0  0  0  0  0  0  0
   -6.5300    3.7040   -4.4200 C   0  0  0  0  0  3  0  0  0  0  0  0
   -7.0760    4.3950   -3.4160 N   0  0  0  0  0  0  0  0  0  0  0  0
   -6.1890    5.3790   -3.1940 N   0  0  0  0  0  0  0  0  0  0  0  0
   -5.1110    5.3390   -4.0310 C   0  0  0  0  0  3  0  0  0  0  0  0
   -6.3890    6.0510   -2.4600 H   0  0  0  0  0  0  0  0  0  0  0  0
    3.5840    8.6690   -5.3890 C   0  0  0  0  0  0  0  0  0  0  0  0
    2.2000    8.6130   -5.1170 C   0  0  0  0  0  3  0  0  0  0  0  0
    1.3650    7.6310   -5.6710 C   0  0  0  0  0  3  0  0  0  0  0  0
    1.8550    6.6630   -6.5550 C   0  0  0  0  0  0  0  0  0  0  0  0
    3.2050    6.7380   -6.8890 C   0  0  0  0  0  3  0  0  0  0  0  0
    4.0420    7.7140   -6.3190 C   0  0  0  0  0  3  0  0  0  0  0  0
    5.2750   10.5720   -1.3900 C   0  0  0  0  0  1  0  0  0  0  0  0
    4.5880    9.8170   -2.5170 C   0  0  1  0  0  0  0  0  0  0  0  0
    4.0090   10.7350   -3.6250 C   0  0  0  0  0  2  0  0  0  0  0  0
    4.5570    9.7330   -4.6870 C   0  0  1  0  0  0  0  0  0  0  0  0
    5.5360    9.2180   -3.5920 C   0  0  0  0  0  2  0  0  0  0  0  0
    5.2660   10.4830   -5.7560 N   0  0  0  0  0  4  0  0  0  0  0  0
    5.9330    9.8870   -6.2610 H   0  0  0  0  0  0  0  0  0  0  0  0
    4.5930   10.8320   -6.4540 H   0  0  0  0  0  0  0  0  0  0  0  0
    5.7900   11.2930   -5.4060 H   0  0  0  0  0  0  0  0  0  0  0  0
    3.6290    8.8930   -1.9710 O   0  0  0  0  0  0  0  0  0  0  0  0
    4.0950    8.3720   -1.2890 H   0  0  0  0  0  0  0  0  0  0  0  0
    2.3690    4.0460   -8.5640 C   0  0  0  0  0  0  0  0  0  0  0  0
    3.5070    3.7150   -7.8220 C   0  0  0  0  0  3  0  0  0  0  0  0
    4.6500    3.2420   -8.4690 C   0  0  0  0  0  3  0  0  0  0  0  0
    4.6580    3.0960   -9.8570 C   0  0  0  0  0  3  0  0  0  0  0  0
    3.5270    3.4250  -10.6010 C   0  0  0  0  0  3  0  0  0  0  0  0
    2.3850    3.9030   -9.9580 C   0  0  0  0  0  3  0  0  0  0  0  0
  1  2  1  0  0  0  0
  1 23  1  0  0  0  0
  3 13  1  0  0  0  0
  3  2  2  0  0  0  0
  4  5  1  0  0  0  0
  4  3  1  0  0  0  0
  5  1  2  0  0  0  0
  6  4  1  0  0  0  0
  7  6  1  0  0  0  0
  7  8  1  0  0  0  0
  8  9  2  0  0  0  0
  8 13  1  0  0  0  0
  9 10  1  0  0  0  0
 10 11  2  0  0  0  0
 11 14  1  0  0  0  0
 12 11  1  0  0  0  0
 13 12  2  0  0  0  0
 14 15  1  0  0  0  0
 14 18  2  0  0  0  0
 15 16  2  0  0  0  0
 16 17  1  0  0  0  0
 17 19  1  0  0  0  0
 18 17  1  0  0  0  0
 20 21  1  0  0  0  0
 20 29  1  0  0  0  0
 22 21  2  0  0  0  0
 23 22  1  0  0  0  0
 24 23  2  0  0  0  0
 24 25  1  0  0  0  0
 25 20  2  0  0  0  0
 27 35  1  0  0  0  0
 27 26  1  1  0  0  0
 28 27  1  0  0  0  0
 29 31  1  6  0  0  0
 29 28  1  0  0  0  0
 29 30  1  0  0  0  0
 30 27  1  0  0  0  0
 31 34  1  0  0  0  0
 32 31  1  0  0  0  0
 33 31  1  0  0  0  0
 35 36  1  0  0  0  0
 37  5  1  0  0  0  0
 37 38  1  0  0  0  0
 39 38  2  0  0  0  0
 40 39  1  0  0  0  0
 41 42  1  0  0  0  0
 41 40  2  0  0  0  0
 42 37  2  0  0  0  0
M  END
>  <minimizedAffinity>
-11.5758982

$$$$
