
 OpenBabel11232420353D

 42 48  0  0  1  0  0  0  0  0999 V2000
    0.3040    5.5310   -7.0670 C   0  0  0  0  0  0  0  0  0  0  0  0
    1.2850    4.8440   -7.7700 N   0  0  0  0  0  0  0  0  0  0  0  0
    2.3740    5.5660   -7.6650 C   0  0  0  0  0  0  0  0  0  0  0  0
    2.1340    6.7110   -6.9660 N   0  0  0  0  0  0  0  0  0  0  0  0
    0.8330    6.6930   -6.5130 C   0  0  0  0  0  0  0  0  0  0  0  0
    3.1960    7.6470   -6.6470 C   0  0  0  0  0  2  0  0  0  0  0  0
    4.3000    7.5940   -7.5770 O   0  0  0  0  0  0  0  0  0  0  0  0
    4.6400    6.3500   -8.0450 C   0  0  0  0  0  0  0  0  0  0  0  0
    5.9450    6.1680   -8.4910 C   0  0  0  0  0  3  0  0  0  0  0  0
    6.3410    4.9180   -8.9800 C   0  0  0  0  0  3  0  0  0  0  0  0
    5.4320    3.8510   -9.0440 C   0  0  0  0  0  0  0  0  0  0  0  0
    4.1080    4.0610   -8.6320 C   0  0  0  0  0  3  0  0  0  0  0  0
    3.7170    5.3050   -8.1310 C   0  0  0  0  0  0  0  0  0  0  0  0
    5.8420    2.5420   -9.5210 C   0  0  0  0  0  0  0  0  0  0  0  0
    6.9420    2.1500  -10.3200 C   0  0  0  0  0  3  0  0  0  0  0  0
    6.9510    0.8410  -10.5840 N   0  0  0  0  0  0  0  0  0  0  0  0
    5.8590    0.3860   -9.9480 N   0  0  0  0  0  0  0  0  0  0  0  0
    5.1580    1.3640   -9.3030 C   0  0  0  0  0  3  0  0  0  0  0  0
    5.6470   -0.6050  -10.0050 H   0  0  0  0  0  0  0  0  0  0  0  0
   -3.7780    4.0620   -6.7010 C   0  0  0  0  0  0  0  0  0  0  0  0
   -3.1860    4.9490   -5.7770 C   0  0  0  0  0  3  0  0  0  0  0  0
   -1.8650    5.4020   -5.9090 C   0  0  0  0  0  3  0  0  0  0  0  0
   -1.0430    4.9720   -6.9580 C   0  0  0  0  0  0  0  0  0  0  0  0
   -1.5840    4.0450   -7.8460 C   0  0  0  0  0  3  0  0  0  0  0  0
   -2.9140    3.6070   -7.7180 C   0  0  0  0  0  3  0  0  0  0  0  0
   -7.4560    2.8130   -3.9840 C   0  0  0  0  0  1  0  0  0  0  0  0
   -6.1460    3.2290   -4.6340 C   0  0  1  0  0  0  0  0  0  0  0  0
   -5.7230    2.3280   -5.8240 C   0  0  0  0  0  2  0  0  0  0  0  0
   -5.3150    3.6150   -6.6030 C   0  0  1  0  0  0  0  0  0  0  0  0
   -6.2470    4.4070   -5.6420 C   0  0  0  0  0  2  0  0  0  0  0  0
   -5.8650    3.5540   -7.9830 N   0  0  0  0  0  4  0  0  0  0  0  0
   -5.9430    4.4880   -8.4030 H   0  0  0  0  0  0  0  0  0  0  0  0
   -5.2410    3.0050   -8.5920 H   0  0  0  0  0  0  0  0  0  0  0  0
   -6.7950    3.1230   -8.0310 H   0  0  0  0  0  0  0  0  0  0  0  0
   -5.1280    3.3760   -3.6280 O   0  0  0  0  0  0  0  0  0  0  0  0
   -5.4970    3.9550   -2.9340 H   0  0  0  0  0  0  0  0  0  0  0  0
    0.3120    7.7130   -5.6150 C   0  0  0  0  0  0  0  0  0  0  0  0
   -0.6640    8.6140   -6.0490 C   0  0  0  0  0  3  0  0  0  0  0  0
   -1.1360    9.6030   -5.1850 C   0  0  0  0  0  3  0  0  0  0  0  0
   -0.6370    9.6920   -3.8850 C   0  0  0  0  0  3  0  0  0  0  0  0
    0.3360    8.7960   -3.4470 C   0  0  0  0  0  3  0  0  0  0  0  0
    0.8140    7.8100   -4.3110 C   0  0  0  0  0  3  0  0  0  0  0  0
  1 23  1  0  0  0  0
  1  5  2  0  0  0  0
  2  3  2  0  0  0  0
  2  1  1  0  0  0  0
  3  4  1  0  0  0  0
  4  6  1  0  0  0  0
  4  5  1  0  0  0  0
  5 37  1  0  0  0  0
  7  6  1  0  0  0  0
  8  7  1  0  0  0  0
  9  8  2  0  0  0  0
 10  9  1  0  0  0  0
 11 10  2  0  0  0  0
 11 12  1  0  0  0  0
 12 13  2  0  0  0  0
 13  8  1  0  0  0  0
 13  3  1  0  0  0  0
 14 18  2  0  0  0  0
 14 11  1  0  0  0  0
 15 14  1  0  0  0  0
 16 15  2  0  0  0  0
 16 17  1  0  0  0  0
 17 18  1  0  0  0  0
 19 17  1  0  0  0  0
 20 29  1  0  0  0  0
 20 21  1  0  0  0  0
 22 21  2  0  0  0  0
 23 22  1  0  0  0  0
 24 25  1  0  0  0  0
 24 23  2  0  0  0  0
 25 20  2  0  0  0  0
 27 26  1  1  0  0  0
 27 35  1  0  0  0  0
 28 27  1  0  0  0  0
 29 31  1  6  0  0  0
 29 28  1  0  0  0  0
 29 30  1  0  0  0  0
 30 27  1  0  0  0  0
 32 31  1  0  0  0  0
 33 31  1  0  0  0  0
 34 31  1  0  0  0  0
 35 36  1  0  0  0  0
 37 42  1  0  0  0  0
 38 37  2  0  0  0  0
 38 39  1  0  0  0  0
 39 40  2  0  0  0  0
 40 41  1  0  0  0  0
 42 41  2  0  0  0  0
M  END
>  <minimizedAffinity>
-10.6961088

$$$$
