
 OpenBabel11232420353D

 42 48  0  0  1  0  0  0  0  0999 V2000
    2.0270    5.8440   -7.1890 C   0  0  0  0  0  0  0  0  0  0  0  0
    0.6560    5.6440   -7.0920 N   0  0  0  0  0  0  0  0  0  0  0  0
    0.3740    4.6750   -7.9290 C   0  0  0  0  0  0  0  0  0  0  0  0
    1.4910    4.2690   -8.5970 N   0  0  0  0  0  0  0  0  0  0  0  0
    2.5800    4.9530   -8.1040 C   0  0  0  0  0  0  0  0  0  0  0  0
    1.4600    3.1570   -9.5290 C   0  0  0  0  0  2  0  0  0  0  0  0
    0.1560    2.9390  -10.1130 O   0  0  0  0  0  0  0  0  0  0  0  0
   -0.9190    3.1310   -9.2840 C   0  0  0  0  0  0  0  0  0  0  0  0
   -2.0980    2.4630   -9.5980 C   0  0  0  0  0  3  0  0  0  0  0  0
   -3.2250    2.6270   -8.7850 C   0  0  0  0  0  3  0  0  0  0  0  0
   -3.1860    3.4740   -7.6660 C   0  0  0  0  0  0  0  0  0  0  0  0
   -2.0050    4.1750   -7.3860 C   0  0  0  0  0  3  0  0  0  0  0  0
   -0.8770    4.0000   -8.1910 C   0  0  0  0  0  0  0  0  0  0  0  0
   -4.3410    3.6270   -6.7990 C   0  0  0  0  0  0  0  0  0  0  0  0
   -4.7130    4.6800   -5.9290 C   0  0  0  0  0  3  0  0  0  0  0  0
   -5.8390    4.4240   -5.2580 N   0  0  0  0  0  0  0  0  0  0  0  0
   -6.1980    3.2080   -5.7000 N   0  0  0  0  0  0  0  0  0  0  0  0
   -5.3320    2.6850   -6.6180 C   0  0  0  0  0  3  0  0  0  0  0  0
   -7.0440    2.7900   -5.3250 H   0  0  0  0  0  0  0  0  0  0  0  0
    4.0850    8.8930   -4.8590 C   0  0  0  0  0  0  0  0  0  0  0  0
    4.7490    7.9930   -5.7200 C   0  0  0  0  0  3  0  0  0  0  0  0
    4.0660    7.0120   -6.4540 C   0  0  0  0  0  3  0  0  0  0  0  0
    2.6800    6.8490   -6.3490 C   0  0  0  0  0  0  0  0  0  0  0  0
    2.0110    7.6810   -5.4560 C   0  0  0  0  0  3  0  0  0  0  0  0
    2.6970    8.6740   -4.7350 C   0  0  0  0  0  3  0  0  0  0  0  0
    5.7550   10.6400   -0.7810 C   0  0  0  0  0  1  0  0  0  0  0  0
    5.1350    9.8830   -1.9450 C   0  0  1  0  0  0  0  0  0  0  0  0
    4.2150   10.7540   -2.8400 C   0  0  0  0  0  2  0  0  0  0  0  0
    4.8500   10.0730   -4.0900 C   0  0  1  0  0  0  0  0  0  0  0  0
    6.0560    9.6930   -3.1820 C   0  0  0  0  0  2  0  0  0  0  0  0
    5.2140   11.1120   -5.0890 N   0  0  0  0  0  4  0  0  0  0  0  0
    5.9370   10.7790   -5.7380 H   0  0  0  0  0  0  0  0  0  0  0  0
    4.3930   11.3610   -5.6600 H   0  0  0  0  0  0  0  0  0  0  0  0
    5.5650   11.9780   -4.6650 H   0  0  0  0  0  0  0  0  0  0  0  0
    4.5070    8.6800   -1.4660 O   0  0  0  0  0  0  0  0  0  0  0  0
    5.1680    8.2150   -0.9190 H   0  0  0  0  0  0  0  0  0  0  0  0
    3.9410    4.6430   -8.5170 C   0  0  0  0  0  0  0  0  0  0  0  0
    4.5510    5.3530   -9.5540 C   0  0  0  0  0  3  0  0  0  0  0  0
    5.8470    5.0270   -9.9570 C   0  0  0  0  0  3  0  0  0  0  0  0
    6.5370    3.9940   -9.3220 C   0  0  0  0  0  3  0  0  0  0  0  0
    5.9340    3.2820   -8.2880 C   0  0  0  0  0  3  0  0  0  0  0  0
    4.6360    3.6020   -7.8870 C   0  0  0  0  0  3  0  0  0  0  0  0
  1  2  1  0  0  0  0
  1 23  1  0  0  0  0
  3  2  2  0  0  0  0
  4  5  1  0  0  0  0
  4  3  1  0  0  0  0
  5  1  2  0  0  0  0
  6  4  1  0  0  0  0
  7  6  1  0  0  0  0
  7  8  1  0  0  0  0
  8 13  1  0  0  0  0
  9  8  2  0  0  0  0
  9 10  1  0  0  0  0
 10 11  2  0  0  0  0
 11 12  1  0  0  0  0
 11 14  1  0  0  0  0
 13  3  1  0  0  0  0
 13 12  2  0  0  0  0
 14 18  2  0  0  0  0
 14 15  1  0  0  0  0
 15 16  2  0  0  0  0
 17 19  1  0  0  0  0
 17 16  1  0  0  0  0
 18 17  1  0  0  0  0
 20 25  1  0  0  0  0
 20 29  1  0  0  0  0
 21 20  2  0  0  0  0
 22 23  2  0  0  0  0
 22 21  1  0  0  0  0
 23 24  1  0  0  0  0
 24 25  2  0  0  0  0
 27 35  1  0  0  0  0
 27 26  1  1  0  0  0
 28 27  1  0  0  0  0
 29 31  1  6  0  0  0
 29 30  1  0  0  0  0
 29 28  1  0  0  0  0
 30 27  1  0  0  0  0
 31 34  1  0  0  0  0
 32 31  1  0  0  0  0
 33 31  1  0  0  0  0
 35 36  1  0  0  0  0
 37  5  1  0  0  0  0
 37 42  1  0  0  0  0
 38 37  2  0  0  0  0
 39 38  1  0  0  0  0
 39 40  2  0  0  0  0
 40 41  1  0  0  0  0
 41 42  2  0  0  0  0
M  END
>  <minimizedAffinity>
-11.2420521

$$$$
