
 OpenBabel11232420353D

 42 48  0  0  1  0  0  0  0  0999 V2000
    0.2250    6.2300   -6.6450 C   0  0  0  0  0  0  0  0  0  0  0  0
    1.3560    5.6980   -7.2480 N   0  0  0  0  0  0  0  0  0  0  0  0
    2.3480    6.4880   -6.9120 C   0  0  0  0  0  0  0  0  0  0  0  0
    1.9030    7.5330   -6.1580 N   0  0  0  0  0  0  0  0  0  0  0  0
    0.5580    7.3670   -5.9140 C   0  0  0  0  0  0  0  0  0  0  0  0
    2.8160    8.5120   -5.5970 C   0  0  0  0  0  2  0  0  0  0  0  0
    4.0440    8.6410   -6.3480 O   0  0  0  0  0  0  0  0  0  0  0  0
    4.5620    7.4820   -6.8670 C   0  0  0  0  0  0  0  0  0  0  0  0
    5.9290    7.4490   -7.1230 C   0  0  0  0  0  3  0  0  0  0  0  0
    6.5060    6.2910   -7.6550 C   0  0  0  0  0  3  0  0  0  0  0  0
    5.7180    5.1680   -7.9540 C   0  0  0  0  0  0  0  0  0  0  0  0
    4.3350    5.2300   -7.7320 C   0  0  0  0  0  3  0  0  0  0  0  0
    3.7620    6.3820   -7.1880 C   0  0  0  0  0  0  0  0  0  0  0  0
    6.3130    3.9510   -8.4770 C   0  0  0  0  0  0  0  0  0  0  0  0
    6.7600    3.6250   -9.7800 C   0  0  0  0  0  3  0  0  0  0  0  0
    7.2110    2.3710   -9.8740 N   0  0  0  0  0  0  0  0  0  0  0  0
    7.0610    1.8900   -8.6300 N   0  0  0  0  0  0  0  0  0  0  0  0
    6.5210    2.7920   -7.7580 C   0  0  0  0  0  3  0  0  0  0  0  0
    7.3390    0.9310   -8.4470 H   0  0  0  0  0  0  0  0  0  0  0  0
   -3.6460    4.2500   -6.8790 C   0  0  0  0  0  0  0  0  0  0  0  0
   -2.6610    3.9190   -5.9240 C   0  0  0  0  0  3  0  0  0  0  0  0
   -1.4160    4.5630   -5.8740 C   0  0  0  0  0  3  0  0  0  0  0  0
   -1.0670    5.5590   -6.7940 C   0  0  0  0  0  0  0  0  0  0  0  0
   -1.9970    5.8570   -7.7860 C   0  0  0  0  0  3  0  0  0  0  0  0
   -3.2500    5.2200   -7.8230 C   0  0  0  0  0  3  0  0  0  0  0  0
   -7.2170    2.3350   -4.4190 C   0  0  0  0  0  1  0  0  0  0  0  0
   -5.9550    2.9730   -4.9790 C   0  0  1  0  0  0  0  0  0  0  0  0
   -5.3500    2.2070   -6.1850 C   0  0  0  0  0  2  0  0  0  0  0  0
   -5.1030    3.5790   -6.8820 C   0  0  1  0  0  0  0  0  0  0  0  0
   -6.1840    4.1750   -5.9360 C   0  0  0  0  0  2  0  0  0  0  0  0
   -5.5750    3.5120   -8.2910 N   0  0  0  0  0  4  0  0  0  0  0  0
   -5.7710    4.4450   -8.6710 H   0  0  0  0  0  0  0  0  0  0  0  0
   -4.8490    3.0930   -8.8900 H   0  0  0  0  0  0  0  0  0  0  0  0
   -6.4270    2.9530   -8.4070 H   0  0  0  0  0  0  0  0  0  0  0  0
   -5.0160    3.2130   -3.9160 O   0  0  0  0  0  0  0  0  0  0  0  0
   -5.4980    3.6940   -3.2160 H   0  0  0  0  0  0  0  0  0  0  0  0
   -0.1810    8.2450   -5.0190 C   0  0  0  0  0  0  0  0  0  0  0  0
    0.0910    8.2580   -3.6480 C   0  0  0  0  0  3  0  0  0  0  0  0
   -0.6440    9.0860   -2.7970 C   0  0  0  0  0  3  0  0  0  0  0  0
   -1.6490    9.9050   -3.3140 C   0  0  0  0  0  3  0  0  0  0  0  0
   -1.9240    9.8950   -4.6800 C   0  0  0  0  0  3  0  0  0  0  0  0
   -1.1950    9.0640   -5.5320 C   0  0  0  0  0  3  0  0  0  0  0  0
  1  5  2  0  0  0  0
  2  3  2  0  0  0  0
  2  1  1  0  0  0  0
  3  4  1  0  0  0  0
  4  5  1  0  0  0  0
  4  6  1  0  0  0  0
  5 37  1  0  0  0  0
  7  6  1  0  0  0  0
  8  7  1  0  0  0  0
  9  8  1  0  0  0  0
 10  9  2  0  0  0  0
 11 12  2  0  0  0  0
 11 10  1  0  0  0  0
 12 13  1  0  0  0  0
 13  3  1  0  0  0  0
 13  8  2  0  0  0  0
 14 11  1  0  0  0  0
 14 18  2  0  0  0  0
 15 14  1  0  0  0  0
 16 15  2  0  0  0  0
 16 17  1  0  0  0  0
 17 19  1  0  0  0  0
 17 18  1  0  0  0  0
 20 21  1  0  0  0  0
 21 22  2  0  0  0  0
 23  1  1  0  0  0  0
 23 22  1  0  0  0  0
 24 23  2  0  0  0  0
 25 24  1  0  0  0  0
 25 20  2  0  0  0  0
 27 26  1  1  0  0  0
 27 35  1  0  0  0  0
 28 27  1  0  0  0  0
 29 31  1  6  0  0  0
 29 20  1  0  0  0  0
 29 28  1  0  0  0  0
 29 30  1  0  0  0  0
 30 27  1  0  0  0  0
 32 31  1  0  0  0  0
 33 31  1  0  0  0  0
 34 31  1  0  0  0  0
 35 36  1  0  0  0  0
 37 38  1  0  0  0  0
 38 39  2  0  0  0  0
 40 39  1  0  0  0  0
 41 40  2  0  0  0  0
 42 37  2  0  0  0  0
 42 41  1  0  0  0  0
M  END
>  <minimizedAffinity>
-12.8382978

$$$$
