
 OpenBabel11232420353D

 42 48  0  0  1  0  0  0  0  0999 V2000
    2.5980    5.1310   -7.6410 C   0  0  0  0  0  0  0  0  0  0  0  0
    1.3840    4.4650   -7.5450 N   0  0  0  0  0  0  0  0  0  0  0  0
    0.5680    5.2910   -6.9360 C   0  0  0  0  0  0  0  0  0  0  0  0
    1.2110    6.4430   -6.5910 N   0  0  0  0  0  0  0  0  0  0  0  0
    2.4960    6.4020   -7.0820 C   0  0  0  0  0  0  0  0  0  0  0  0
    0.5080    7.5510   -5.9700 C   0  0  0  0  0  2  0  0  0  0  0  0
   -0.6700    7.1410   -5.2400 O   0  0  0  0  0  0  0  0  0  0  0  0
   -1.4060    6.1270   -5.7980 C   0  0  0  0  0  0  0  0  0  0  0  0
   -2.7530    6.0510   -5.4580 C   0  0  0  0  0  3  0  0  0  0  0  0
   -3.5470    5.0340   -5.9980 C   0  0  0  0  0  3  0  0  0  0  0  0
   -2.9970    4.0760   -6.8630 C   0  0  0  0  0  0  0  0  0  0  0  0
   -1.6290    4.1390   -7.1640 C   0  0  0  0  0  3  0  0  0  0  0  0
   -0.8400    5.1630   -6.6350 C   0  0  0  0  0  0  0  0  0  0  0  0
   -3.8200    3.0350   -7.4530 C   0  0  0  0  0  0  0  0  0  0  0  0
   -3.8120    2.4740   -8.7530 C   0  0  0  0  0  3  0  0  0  0  0  0
   -4.7670    1.5570   -8.9270 N   0  0  0  0  0  0  0  0  0  0  0  0
   -5.3880    1.5210   -7.7370 N   0  0  0  0  0  0  0  0  0  0  0  0
   -4.8640    2.3910   -6.8230 C   0  0  0  0  0  3  0  0  0  0  0  0
   -6.1700    0.8850   -7.6200 H   0  0  0  0  0  0  0  0  0  0  0  0
    6.0580    3.1920   -9.4380 C   0  0  0  0  0  0  0  0  0  0  0  0
    6.1550    4.1710   -8.4270 C   0  0  0  0  0  3  0  0  0  0  0  0
    5.0260    4.7900   -7.8690 C   0  0  0  0  0  3  0  0  0  0  0  0
    3.7320    4.4910   -8.3090 C   0  0  0  0  0  0  0  0  0  0  0  0
    3.6150    3.5750   -9.3520 C   0  0  0  0  0  3  0  0  0  0  0  0
    4.7470    2.9450   -9.8970 C   0  0  0  0  0  3  0  0  0  0  0  0
    8.5110   -0.8480   -9.7970 C   0  0  0  0  0  1  0  0  0  0  0  0
    7.5620    0.3100   -9.5350 C   0  0  1  0  0  0  0  0  0  0  0  0
    8.2730    1.6060   -9.0640 C   0  0  0  0  0  2  0  0  0  0  0  0
    7.3390    2.4170  -10.0130 C   0  0  1  0  0  0  0  0  0  0  0  0
    7.1030    1.0930  -10.7960 C   0  0  0  0  0  2  0  0  0  0  0  0
    8.1490    3.3870  -10.7960 N   0  0  0  0  0  4  0  0  0  0  0  0
    7.6710    3.6740  -11.6580 H   0  0  0  0  0  0  0  0  0  0  0  0
    8.3100    4.2440  -10.2460 H   0  0  0  0  0  0  0  0  0  0  0  0
    9.0690    3.0220  -11.0680 H   0  0  0  0  0  0  0  0  0  0  0  0
    6.4990   -0.1160   -8.6650 O   0  0  0  0  0  0  0  0  0  0  0  0
    6.1270   -0.9320   -9.0510 H   0  0  0  0  0  0  0  0  0  0  0  0
    3.3940    7.5440   -7.0010 C   0  0  0  0  0  0  0  0  0  0  0  0
    4.0060    7.8850   -5.7910 C   0  0  0  0  0  3  0  0  0  0  0  0
    4.8440    9.0000   -5.7220 C   0  0  0  0  0  3  0  0  0  0  0  0
    5.0740    9.7730   -6.8600 C   0  0  0  0  0  3  0  0  0  0  0  0
    4.4660    9.4380   -8.0680 C   0  0  0  0  0  3  0  0  0  0  0  0
    3.6240    8.3280   -8.1390 C   0  0  0  0  0  3  0  0  0  0  0  0
  1  2  1  0  0  0  0
  1  5  2  0  0  0  0
  2  3  2  0  0  0  0
  3 13  1  0  0  0  0
  3  4  1  0  0  0  0
  4  6  1  0  0  0  0
  5 37  1  0  0  0  0
  5  4  1  0  0  0  0
  6  7  1  0  0  0  0
  8  9  1  0  0  0  0
  8  7  1  0  0  0  0
 10  9  2  0  0  0  0
 11 10  1  0  0  0  0
 12 11  2  0  0  0  0
 12 13  1  0  0  0  0
 13  8  2  0  0  0  0
 14 11  1  0  0  0  0
 14 18  2  0  0  0  0
 15 14  1  0  0  0  0
 16 15  2  0  0  0  0
 16 17  1  0  0  0  0
 17 19  1  0  0  0  0
 17 18  1  0  0  0  0
 20 21  1  0  0  0  0
 21 22  2  0  0  0  0
 23 22  1  0  0  0  0
 23  1  1  0  0  0  0
 24 23  2  0  0  0  0
 25 20  2  0  0  0  0
 25 24  1  0  0  0  0
 27 26  1  6  0  0  0
 27 28  1  0  0  0  0
 27 35  1  0  0  0  0
 29 31  1  6  0  0  0
 29 20  1  0  0  0  0
 29 28  1  0  0  0  0
 30 29  1  0  0  0  0
 30 27  1  0  0  0  0
 31 33  1  0  0  0  0
 32 31  1  0  0  0  0
 34 31  1  0  0  0  0
 36 35  1  0  0  0  0
 37 38  1  0  0  0  0
 38 39  2  0  0  0  0
 40 39  1  0  0  0  0
 41 40  2  0  0  0  0
 42 41  1  0  0  0  0
 42 37  2  0  0  0  0
M  END
>  <minimizedAffinity>
-10.6124916

$$$$
