
 OpenBabel11232420353D

 42 48  0  0  1  0  0  0  0  0999 V2000
    0.2740    6.2730   -6.5970 C   0  0  0  0  0  0  0  0  0  0  0  0
    1.3940    5.7340   -7.2150 N   0  0  0  0  0  0  0  0  0  0  0  0
    2.3990    6.5040   -6.8720 C   0  0  0  0  0  0  0  0  0  0  0  0
    1.9740    7.5430   -6.0990 N   0  0  0  0  0  0  0  0  0  0  0  0
    0.6280    7.3930   -5.8500 C   0  0  0  0  0  0  0  0  0  0  0  0
    2.9050    8.4990   -5.5270 C   0  0  0  0  0  2  0  0  0  0  0  0
    4.1300    8.6220   -6.2830 O   0  0  0  0  0  0  0  0  0  0  0  0
    4.6280    7.4640   -6.8240 C   0  0  0  0  0  0  0  0  0  0  0  0
    5.9930    7.4150   -7.0880 C   0  0  0  0  0  3  0  0  0  0  0  0
    6.5500    6.2570   -7.6420 C   0  0  0  0  0  3  0  0  0  0  0  0
    5.7440    5.1510   -7.9540 C   0  0  0  0  0  0  0  0  0  0  0  0
    4.3630    5.2300   -7.7240 C   0  0  0  0  0  3  0  0  0  0  0  0
    3.8100    6.3820   -7.1580 C   0  0  0  0  0  0  0  0  0  0  0  0
    6.3170    3.9340   -8.5010 C   0  0  0  0  0  0  0  0  0  0  0  0
    6.7390    3.6180   -9.8140 C   0  0  0  0  0  3  0  0  0  0  0  0
    7.1750    2.3610   -9.9300 N   0  0  0  0  0  0  0  0  0  0  0  0
    7.0430    1.8680   -8.6880 N   0  0  0  0  0  0  0  0  0  0  0  0
    6.5280    2.7660   -7.7980 C   0  0  0  0  0  3  0  0  0  0  0  0
    7.3150    0.9040   -8.5200 H   0  0  0  0  0  0  0  0  0  0  0  0
   -3.6350    4.3720   -6.8450 C   0  0  0  0  0  0  0  0  0  0  0  0
   -2.6920    4.0800   -5.8360 C   0  0  0  0  0  3  0  0  0  0  0  0
   -1.4340    4.6980   -5.7810 C   0  0  0  0  0  3  0  0  0  0  0  0
   -1.0280    5.6230   -6.7490 C   0  0  0  0  0  0  0  0  0  0  0  0
   -1.9160    5.8780   -7.7910 C   0  0  0  0  0  3  0  0  0  0  0  0
   -3.1820    5.2690   -7.8330 C   0  0  0  0  0  3  0  0  0  0  0  0
   -6.3780    0.5460   -7.4040 C   0  0  0  0  0  1  0  0  0  0  0  0
   -5.3030    1.6140   -7.2770 C   0  0  1  0  0  0  0  0  0  0  0  0
   -5.6070    2.9060   -8.0790 C   0  0  0  0  0  2  0  0  0  0  0  0
   -5.1070    3.7360   -6.8570 C   0  0  1  0  0  0  0  0  0  0  0  0
   -5.3660    2.4730   -5.9850 C   0  0  0  0  0  2  0  0  0  0  0  0
   -6.0800    4.8210   -6.5640 N   0  0  0  0  0  4  0  0  0  0  0  0
   -6.0000    5.1520   -5.5950 H   0  0  0  0  0  0  0  0  0  0  0  0
   -5.9000    5.6340   -7.1710 H   0  0  0  0  0  0  0  0  0  0  0  0
   -7.0560    4.5420   -6.7090 H   0  0  0  0  0  0  0  0  0  0  0  0
   -4.0140    1.0440   -7.5650 O   0  0  0  0  0  0  0  0  0  0  0  0
   -3.9280    0.2430   -7.0130 H   0  0  0  0  0  0  0  0  0  0  0  0
   -0.0930    8.2670   -4.9360 C   0  0  0  0  0  0  0  0  0  0  0  0
    0.1840    8.2500   -3.5660 C   0  0  0  0  0  3  0  0  0  0  0  0
   -0.5340    9.0760   -2.6980 C   0  0  0  0  0  3  0  0  0  0  0  0
   -1.5260    9.9200   -3.1970 C   0  0  0  0  0  3  0  0  0  0  0  0
   -1.8060    9.9410   -4.5620 C   0  0  0  0  0  3  0  0  0  0  0  0
   -1.0940    9.1130   -5.4310 C   0  0  0  0  0  3  0  0  0  0  0  0
  1  5  2  0  0  0  0
  2  3  2  0  0  0  0
  2  1  1  0  0  0  0
  3  4  1  0  0  0  0
  4  5  1  0  0  0  0
  4  6  1  0  0  0  0
  5 37  1  0  0  0  0
  7  6  1  0  0  0  0
  8  7  1  0  0  0  0
  9  8  1  0  0  0  0
 10  9  2  0  0  0  0
 11 12  2  0  0  0  0
 11 10  1  0  0  0  0
 12 13  1  0  0  0  0
 13  3  1  0  0  0  0
 13  8  2  0  0  0  0
 14 11  1  0  0  0  0
 14 18  2  0  0  0  0
 15 14  1  0  0  0  0
 16 15  2  0  0  0  0
 16 17  1  0  0  0  0
 17 19  1  0  0  0  0
 17 18  1  0  0  0  0
 20 21  1  0  0  0  0
 21 22  2  0  0  0  0
 23  1  1  0  0  0  0
 23 22  1  0  0  0  0
 24 23  2  0  0  0  0
 25 24  1  0  0  0  0
 25 20  2  0  0  0  0
 27 26  1  6  0  0  0
 27 30  1  0  0  0  0
 28 27  1  0  0  0  0
 28 29  1  0  0  0  0
 29 20  1  0  0  0  0
 29 31  1  1  0  0  0
 29 30  1  0  0  0  0
 31 32  1  0  0  0  0
 33 31  1  0  0  0  0
 34 31  1  0  0  0  0
 35 27  1  0  0  0  0
 35 36  1  0  0  0  0
 37 38  1  0  0  0  0
 38 39  2  0  0  0  0
 40 39  1  0  0  0  0
 41 40  2  0  0  0  0
 42 37  2  0  0  0  0
 42 41  1  0  0  0  0
M  END
>  <minimizedAffinity>
-13.3132448

$$$$
