
 OpenBabel11232418503D

 39 45  0  0  1  0  0  0  0  0999 V2000
    7.3870   -5.8510   10.7080 C   0  0  0  0  0  0  0  0  0  0  0  0
    7.2030   -6.3220    9.4240 N   0  0  0  0  0  0  0  0  0  0  0  0
    6.8130   -5.2900    8.7140 C   0  0  0  0  0  0  0  0  0  0  0  0
    6.7630   -4.1640    9.4880 N   0  0  0  0  0  0  0  0  0  0  0  0
    7.1400   -4.4840   10.7740 C   0  0  0  0  0  0  0  0  0  0  0  0
    6.4950   -2.8630    8.9070 C   0  0  0  0  0  2  0  0  0  0  0  0
    5.6460   -2.9360    7.7410 O   0  0  0  0  0  0  0  0  0  0  0  0
    5.8660   -3.9940    6.8920 C   0  0  0  0  0  0  0  0  0  0  0  0
    5.4210   -3.8490    5.5780 C   0  0  0  0  0  3  0  0  0  0  0  0
    5.5790   -4.8980    4.6710 C   0  0  0  0  0  3  0  0  0  0  0  0
    6.1720   -6.0910    5.0850 C   0  0  0  0  0  3  0  0  0  0  0  0
    6.5950   -6.2370    6.4050 C   0  0  0  0  0  0  0  0  0  0  0  0
    7.1530   -7.4020    6.7680 F   0  0  0  0  0  0  0  0  0  0  0  0
    6.4420   -5.1960    7.3200 C   0  0  0  0  0  0  0  0  0  0  0  0
    7.2760   -3.5060   11.8450 C   0  0  0  0  0  0  0  0  0  0  0  0
    8.4440   -2.7460   11.9680 C   0  0  0  0  0  3  0  0  0  0  0  0
    8.5730   -1.8190   13.0040 C   0  0  0  0  0  3  0  0  0  0  0  0
    7.5360   -1.6460   13.9190 C   0  0  0  0  0  3  0  0  0  0  0  0
    6.3690   -2.3980   13.8000 C   0  0  0  0  0  3  0  0  0  0  0  0
    6.2370   -3.3250   12.7650 C   0  0  0  0  0  3  0  0  0  0  0  0
    8.5780   -8.3490   14.0210 C   0  0  0  0  0  0  0  0  0  0  0  0
    7.2860   -7.7970   13.9130 C   0  0  0  0  0  3  0  0  0  0  0  0
    6.9070   -7.0100   12.8200 C   0  0  0  0  0  3  0  0  0  0  0  0
    7.7970   -6.7510   11.7740 C   0  0  0  0  0  0  0  0  0  0  0  0
    9.0740   -7.3060   11.8440 C   0  0  0  0  0  3  0  0  0  0  0  0
    9.4510   -8.0920   12.9430 C   0  0  0  0  0  3  0  0  0  0  0  0
    9.0230   -9.1900   15.2760 C   0  0  2  0  0  0  0  0  0  0  0  0
   10.4550   -9.7980   15.3220 C   0  0  0  0  0  2  0  0  0  0  0  0
    9.8560  -10.9870   16.1550 C   0  0  1  0  0  0  0  0  0  0  0  0
    8.5070  -10.6540   15.4260 C   0  0  0  0  0  2  0  0  0  0  0  0
    8.7480   -8.3820   16.4910 N   0  0  0  0  0  4  0  0  0  0  0  0
    7.7520   -8.1610   16.5920 H   0  0  0  0  0  0  0  0  0  0  0  0
    9.2670   -7.4970   16.4860 H   0  0  0  0  0  0  0  0  0  0  0  0
    9.0450   -8.9110   17.3360 H   0  0  0  0  0  0  0  0  0  0  0  0
   10.5110  -12.3350   15.9310 C   0  0  0  0  0  3  0  0  0  0  0  0
   11.9890  -12.5720   16.0850 C   0  0  0  0  0  2  0  0  0  0  0  0
   11.0180  -13.2560   17.0070 C   0  0  0  0  0  2  0  0  0  0  0  0
    9.7640  -10.6460   17.5720 O   0  0  0  0  0  0  0  0  0  0  0  0
    9.7420  -11.5130   18.0320 H   0  0  0  0  0  0  0  0  0  0  0  0
  1  5  2  0  0  0  0
  1 24  1  0  0  0  0
  2  1  1  0  0  0  0
  3  2  2  0  0  0  0
  3  4  1  0  0  0  0
  4  5  1  0  0  0  0
  5 15  1  0  0  0  0
  6  4  1  0  0  0  0
  7  6  1  0  0  0  0
  8 14  1  0  0  0  0
  8  7  1  0  0  0  0
  9  8  2  0  0  0  0
 10 11  2  0  0  0  0
 10  9  1  0  0  0  0
 11 12  1  0  0  0  0
 12 13  1  0  0  0  0
 12 14  2  0  0  0  0
 14  3  1  0  0  0  0
 15 16  2  0  0  0  0
 15 20  1  0  0  0  0
 16 17  1  0  0  0  0
 17 18  2  0  0  0  0
 19 18  1  0  0  0  0
 20 19  2  0  0  0  0
 21 27  1  0  0  0  0
 22 21  1  0  0  0  0
 23 22  2  0  0  0  0
 24 25  2  0  0  0  0
 24 23  1  0  0  0  0
 25 26  1  0  0  0  0
 26 21  2  0  0  0  0
 27 28  1  0  0  0  0
 27 30  1  0  0  0  0
 27 31  1  1  0  0  0
 28 29  1  0  0  0  0
 29 38  1  1  0  0  0
 30 29  1  0  0  0  0
 31 32  1  0  0  0  0
 31 34  1  0  0  0  0
 33 31  1  0  0  0  0
 35 36  1  0  0  0  0
 35 29  1  0  0  0  0
 35 37  1  0  0  0  0
 36 37  1  0  0  0  0
 38 39  1  0  0  0  0
M  END
>  <minimizedAffinity>
-11.6973791

$$$$
