
 OpenBabel11232418503D

 39 45  0  0  1  0  0  0  0  0999 V2000
    7.0270   -5.3770    9.6870 C   0  0  0  0  0  0  0  0  0  0  0  0
    6.9620   -5.7140    8.3500 N   0  0  0  0  0  0  0  0  0  0  0  0
    6.6680   -4.6060    7.7130 C   0  0  0  0  0  0  0  0  0  0  0  0
    6.5650   -3.5610    8.5880 N   0  0  0  0  0  0  0  0  0  0  0  0
    6.8050   -4.0160    9.8660 C   0  0  0  0  0  0  0  0  0  0  0  0
    6.3840   -2.2010    8.1180 C   0  0  0  0  0  2  0  0  0  0  0  0
    5.6540   -2.1330    6.8740 O   0  0  0  0  0  0  0  0  0  0  0  0
    5.9350   -3.1090    5.9480 C   0  0  0  0  0  0  0  0  0  0  0  0
    5.6260   -2.8220    4.6180 C   0  0  0  0  0  3  0  0  0  0  0  0
    5.8520   -3.7820    3.6300 C   0  0  0  0  0  3  0  0  0  0  0  0
    6.3740   -5.0280    3.9770 C   0  0  0  0  0  3  0  0  0  0  0  0
    6.6610   -5.3150    5.3110 C   0  0  0  0  0  0  0  0  0  0  0  0
    7.1540   -6.5270    5.6070 F   0  0  0  0  0  0  0  0  0  0  0  0
    6.4390   -4.3650    6.3060 C   0  0  0  0  0  0  0  0  0  0  0  0
    6.8540   -3.1530   11.0380 C   0  0  0  0  0  0  0  0  0  0  0  0
    7.2790   -1.8250   10.9230 C   0  0  0  0  0  3  0  0  0  0  0  0
    7.3350   -1.0050   12.0520 C   0  0  0  0  0  3  0  0  0  0  0  0
    6.9660   -1.5080   13.2990 C   0  0  0  0  0  3  0  0  0  0  0  0
    6.5390   -2.8290   13.4190 C   0  0  0  0  0  3  0  0  0  0  0  0
    6.4810   -3.6500   12.2920 C   0  0  0  0  0  3  0  0  0  0  0  0
    8.0340   -8.4640   12.5310 C   0  0  0  0  0  0  0  0  0  0  0  0
    8.9290   -7.4350   12.1810 C   0  0  0  0  0  3  0  0  0  0  0  0
    8.5790   -6.4250   11.2770 C   0  0  0  0  0  3  0  0  0  0  0  0
    7.3100   -6.3900   10.6920 C   0  0  0  0  0  0  0  0  0  0  0  0
    6.3960   -7.3840   11.0400 C   0  0  0  0  0  3  0  0  0  0  0  0
    6.7520   -8.3950   11.9450 C   0  0  0  0  0  3  0  0  0  0  0  0
    8.4450   -9.6310   13.5080 C   0  0  2  0  0  0  0  0  0  0  0  0
    8.3620   -9.4060   15.0460 C   0  0  0  0  0  2  0  0  0  0  0  0
    9.5850  -10.3810   15.1910 C   0  0  1  0  0  0  0  0  0  0  0  0
    9.9580   -9.9280   13.7350 C   0  0  0  0  0  2  0  0  0  0  0  0
    7.6980  -10.8490   13.1070 N   0  0  0  0  0  4  0  0  0  0  0  0
    7.9200  -11.1420   12.1490 H   0  0  0  0  0  0  0  0  0  0  0  0
    6.6830  -10.7110   13.1650 H   0  0  0  0  0  0  0  0  0  0  0  0
    7.9420  -11.6340   13.7440 H   0  0  0  0  0  0  0  0  0  0  0  0
   10.5330  -10.0730   16.3330 C   0  0  0  0  0  3  0  0  0  0  0  0
   10.3450  -10.6030   17.7280 C   0  0  0  0  0  2  0  0  0  0  0  0
   11.5410  -11.0230   16.9190 C   0  0  0  0  0  2  0  0  0  0  0  0
    9.1530  -11.7750   15.1920 O   0  0  0  0  0  0  0  0  0  0  0  0
    9.8820  -12.2580   15.6370 H   0  0  0  0  0  0  0  0  0  0  0  0
  1  5  2  0  0  0  0
  1 24  1  0  0  0  0
  2  1  1  0  0  0  0
  3  2  2  0  0  0  0
  3  4  1  0  0  0  0
  4  5  1  0  0  0  0
  5 15  1  0  0  0  0
  6  4  1  0  0  0  0
  7  6  1  0  0  0  0
  8 14  1  0  0  0  0
  8  7  1  0  0  0  0
  9  8  2  0  0  0  0
 10 11  2  0  0  0  0
 10  9  1  0  0  0  0
 11 12  1  0  0  0  0
 12 13  1  0  0  0  0
 12 14  2  0  0  0  0
 14  3  1  0  0  0  0
 15 20  1  0  0  0  0
 16 15  2  0  0  0  0
 16 17  1  0  0  0  0
 17 18  2  0  0  0  0
 18 19  1  0  0  0  0
 20 19  2  0  0  0  0
 21 27  1  0  0  0  0
 22 21  1  0  0  0  0
 23 22  2  0  0  0  0
 24 25  2  0  0  0  0
 24 23  1  0  0  0  0
 25 26  1  0  0  0  0
 26 21  2  0  0  0  0
 27 31  1  6  0  0  0
 27 30  1  0  0  0  0
 27 28  1  0  0  0  0
 28 29  1  0  0  0  0
 29 38  1  1  0  0  0
 29 35  1  0  0  0  0
 30 29  1  0  0  0  0
 31 33  1  0  0  0  0
 31 34  1  0  0  0  0
 32 31  1  0  0  0  0
 35 37  1  0  0  0  0
 35 36  1  0  0  0  0
 37 36  1  0  0  0  0
 38 39  1  0  0  0  0
M  END
>  <minimizedAffinity>
-11.8113956

$$$$
