
 OpenBabel11232418503D

 39 45  0  0  1  0  0  0  0  0999 V2000
    7.4260   -4.3890   11.3770 C   0  0  0  0  0  0  0  0  0  0  0  0
    7.2310   -4.8940   10.1070 N   0  0  0  0  0  0  0  0  0  0  0  0
    6.9380   -3.8630    9.3510 C   0  0  0  0  0  0  0  0  0  0  0  0
    6.9610   -2.7080   10.0820 N   0  0  0  0  0  0  0  0  0  0  0  0
    7.2860   -3.0060   11.3870 C   0  0  0  0  0  0  0  0  0  0  0  0
    6.8070   -1.4130    9.4480 C   0  0  0  0  0  2  0  0  0  0  0  0
    5.9780   -1.4650    8.2660 O   0  0  0  0  0  0  0  0  0  0  0  0
    6.1310   -2.5680    7.4620 C   0  0  0  0  0  0  0  0  0  0  0  0
    5.7250   -2.4400    6.1330 C   0  0  0  0  0  3  0  0  0  0  0  0
    5.8190   -3.5320    5.2690 C   0  0  0  0  0  3  0  0  0  0  0  0
    6.3080   -4.7510    5.7410 C   0  0  0  0  0  3  0  0  0  0  0  0
    6.6920   -4.8780    7.0750 C   0  0  0  0  0  0  0  0  0  0  0  0
    7.1500   -6.0680    7.4930 F   0  0  0  0  0  0  0  0  0  0  0  0
    6.6030   -3.7940    7.9460 C   0  0  0  0  0  0  0  0  0  0  0  0
    7.4760   -2.0010   12.4240 C   0  0  0  0  0  0  0  0  0  0  0  0
    8.4520   -1.0090   12.2800 C   0  0  0  0  0  3  0  0  0  0  0  0
    8.6380   -0.0550   13.2830 C   0  0  0  0  0  3  0  0  0  0  0  0
    7.8500   -0.0880   14.4320 C   0  0  0  0  0  3  0  0  0  0  0  0
    6.8740   -1.0720   14.5800 C   0  0  0  0  0  3  0  0  0  0  0  0
    6.6850   -2.0250   13.5780 C   0  0  0  0  0  3  0  0  0  0  0  0
    8.5270   -7.1240   14.5300 C   0  0  0  0  0  0  0  0  0  0  0  0
    9.4180   -6.1620   14.0150 C   0  0  0  0  0  3  0  0  0  0  0  0
    9.0380   -5.2640   13.0110 C   0  0  0  0  0  3  0  0  0  0  0  0
    7.7430   -5.2770   12.4850 C   0  0  0  0  0  0  0  0  0  0  0  0
    6.8340   -6.2040   12.9930 C   0  0  0  0  0  3  0  0  0  0  0  0
    7.2200   -7.1030   13.9980 C   0  0  0  0  0  3  0  0  0  0  0  0
    8.9690   -8.1700   15.6220 C   0  0  2  0  0  0  0  0  0  0  0  0
   10.4090   -8.7600   15.5800 C   0  0  0  0  0  2  0  0  0  0  0  0
    9.8170  -10.0840   16.1810 C   0  0  1  0  0  0  0  0  0  0  0  0
    8.4720   -9.6430   15.5030 C   0  0  0  0  0  2  0  0  0  0  0  0
    8.6680   -7.5940   16.9570 N   0  0  0  0  0  4  0  0  0  0  0  0
    7.6670   -7.4060   17.0810 H   0  0  0  0  0  0  0  0  0  0  0  0
    9.1740   -6.7160   17.1160 H   0  0  0  0  0  0  0  0  0  0  0  0
    8.9610   -8.2600   17.6990 H   0  0  0  0  0  0  0  0  0  0  0  0
   10.4930  -11.3640   15.7310 C   0  0  0  0  0  3  0  0  0  0  0  0
   11.7980  -11.8530   16.3000 C   0  0  0  0  0  2  0  0  0  0  0  0
   10.5400  -12.6530   16.5050 C   0  0  0  0  0  2  0  0  0  0  0  0
    9.7020  -10.0010   17.6340 O   0  0  0  0  0  0  0  0  0  0  0  0
    9.6870  -10.9360   17.9330 H   0  0  0  0  0  0  0  0  0  0  0  0
  1  5  2  0  0  0  0
  1 24  1  0  0  0  0
  2  1  1  0  0  0  0
  3  4  1  0  0  0  0
  3  2  2  0  0  0  0
  4  5  1  0  0  0  0
  5 15  1  0  0  0  0
  6  4  1  0  0  0  0
  7  6  1  0  0  0  0
  8 14  1  0  0  0  0
  8  7  1  0  0  0  0
  9  8  2  0  0  0  0
 10 11  2  0  0  0  0
 10  9  1  0  0  0  0
 11 12  1  0  0  0  0
 12 13  1  0  0  0  0
 12 14  2  0  0  0  0
 14  3  1  0  0  0  0
 15 20  1  0  0  0  0
 16 15  2  0  0  0  0
 16 17  1  0  0  0  0
 17 18  2  0  0  0  0
 18 19  1  0  0  0  0
 20 19  2  0  0  0  0
 21 27  1  0  0  0  0
 22 21  1  0  0  0  0
 23 22  2  0  0  0  0
 24 25  2  0  0  0  0
 24 23  1  0  0  0  0
 25 26  1  0  0  0  0
 26 21  2  0  0  0  0
 27 31  1  1  0  0  0
 28 27  1  0  0  0  0
 28 29  1  0  0  0  0
 29 38  1  1  0  0  0
 30 27  1  0  0  0  0
 30 29  1  0  0  0  0
 31 32  1  0  0  0  0
 31 33  1  0  0  0  0
 31 34  1  0  0  0  0
 35 29  1  0  0  0  0
 35 36  1  0  0  0  0
 35 37  1  0  0  0  0
 36 37  1  0  0  0  0
 38 39  1  0  0  0  0
M  END
>  <minimizedAffinity>
-13.0338907

$$$$

 OpenBabel11232418503D

 39 45  0  0  1  0  0  0  0  0999 V2000
    8.3650   -5.6540   13.2790 C   0  0  0  0  0  0  0  0  0  0  0  0
    8.4940   -4.3620   13.7450 N   0  0  0  0  0  0  0  0  0  0  0  0
    8.0010   -3.5890   12.8060 C   0  0  0  0  0  0  0  0  0  0  0  0
    7.5350   -4.3390   11.7620 N   0  0  0  0  0  0  0  0  0  0  0  0
    7.7390   -5.6730   12.0370 C   0  0  0  0  0  0  0  0  0  0  0  0
    6.8170   -3.7280   10.6600 C   0  0  0  0  0  2  0  0  0  0  0  0
    7.2380   -2.3720   10.4020 O   0  0  0  0  0  0  0  0  0  0  0  0
    7.5160   -1.5990   11.5030 C   0  0  0  0  0  0  0  0  0  0  0  0
    7.4640   -0.2150   11.3310 C   0  0  0  0  0  3  0  0  0  0  0  0
    7.7700    0.6300   12.3990 C   0  0  0  0  0  3  0  0  0  0  0  0
    8.1380    0.0880   13.6300 C   0  0  0  0  0  3  0  0  0  0  0  0
    8.2090   -1.2950   13.7900 C   0  0  0  0  0  0  0  0  0  0  0  0
    8.5750   -1.7780   14.9870 F   0  0  0  0  0  0  0  0  0  0  0  0
    7.9050   -2.1490   12.7300 C   0  0  0  0  0  0  0  0  0  0  0  0
    7.2900   -6.7560   11.1730 C   0  0  0  0  0  0  0  0  0  0  0  0
    6.3830   -7.7110   11.6460 C   0  0  0  0  0  3  0  0  0  0  0  0
    5.9650   -8.7540   10.8170 C   0  0  0  0  0  3  0  0  0  0  0  0
    6.4500   -8.8460    9.5140 C   0  0  0  0  0  3  0  0  0  0  0  0
    7.3510   -7.8970    9.0360 C   0  0  0  0  0  3  0  0  0  0  0  0
    7.7700   -6.8520    9.8620 C   0  0  0  0  0  3  0  0  0  0  0  0
    9.9270   -8.8380   15.7400 C   0  0  0  0  0  0  0  0  0  0  0  0
    9.1870   -7.7630   16.2700 C   0  0  0  0  0  3  0  0  0  0  0  0
    8.6650   -6.7520   15.4560 C   0  0  0  0  0  3  0  0  0  0  0  0
    8.8440   -6.7770   14.0700 C   0  0  0  0  0  0  0  0  0  0  0  0
    9.5520   -7.8430   13.5160 C   0  0  0  0  0  3  0  0  0  0  0  0
   10.0770   -8.8530   14.3360 C   0  0  0  0  0  3  0  0  0  0  0  0
   10.5610   -9.9490   16.6600 C   0  0  2  0  0  0  0  0  0  0  0  0
   11.7530  -10.7960   16.1270 C   0  0  0  0  0  2  0  0  0  0  0  0
   11.2130  -11.9880   16.9950 C   0  0  1  0  0  0  0  0  0  0  0  0
    9.8100  -11.3030   16.8360 C   0  0  0  0  0  2  0  0  0  0  0  0
   10.8910   -9.3280   17.9670 N   0  0  0  0  0  4  0  0  0  0  0  0
   10.0610   -8.9570   18.4410 H   0  0  0  0  0  0  0  0  0  0  0  0
   11.5630   -8.5600   17.8650 H   0  0  0  0  0  0  0  0  0  0  0  0
   11.3230  -10.0380   18.5920 H   0  0  0  0  0  0  0  0  0  0  0  0
   11.4370  -13.3710   16.4160 C   0  0  0  0  0  3  0  0  0  0  0  0
   12.7930  -13.8940   16.0270 C   0  0  0  0  0  2  0  0  0  0  0  0
   12.0280  -14.5450   17.1470 C   0  0  0  0  0  2  0  0  0  0  0  0
   11.6720  -11.8870   18.3770 O   0  0  0  0  0  0  0  0  0  0  0  0
   11.6090  -12.8030   18.7240 H   0  0  0  0  0  0  0  0  0  0  0  0
  1  2  1  0  0  0  0
  1 24  1  0  0  0  0
  3  2  2  0  0  0  0
  4  5  1  0  0  0  0
  4  3  1  0  0  0  0
  5  1  2  0  0  0  0
  6  4  1  0  0  0  0
  7  6  1  0  0  0  0
  7  8  1  0  0  0  0
  8 14  1  0  0  0  0
  9  8  2  0  0  0  0
  9 10  1  0  0  0  0
 10 11  2  0  0  0  0
 11 12  1  0  0  0  0
 12 13  1  0  0  0  0
 14  3  1  0  0  0  0
 14 12  2  0  0  0  0
 15 16  1  0  0  0  0
 15  5  1  0  0  0  0
 17 16  2  0  0  0  0
 18 17  1  0  0  0  0
 19 18  2  0  0  0  0
 19 20  1  0  0  0  0
 20 15  2  0  0  0  0
 21 22  1  0  0  0  0
 21 27  1  0  0  0  0
 23 22  2  0  0  0  0
 24 23  1  0  0  0  0
 25 24  2  0  0  0  0
 25 26  1  0  0  0  0
 26 21  2  0  0  0  0
 27 30  1  0  0  0  0
 27 31  1  1  0  0  0
 28 27  1  0  0  0  0
 28 29  1  0  0  0  0
 29 38  1  1  0  0  0
 30 29  1  0  0  0  0
 31 32  1  0  0  0  0
 31 34  1  0  0  0  0
 33 31  1  0  0  0  0
 35 29  1  0  0  0  0
 35 37  1  0  0  0  0
 36 35  1  0  0  0  0
 36 37  1  0  0  0  0
 38 39  1  0  0  0  0
M  END
>  <minimizedAffinity>
-12.6592617

$$$$

 OpenBabel11232418503D

 39 45  0  0  1  0  0  0  0  0999 V2000
    8.1270   -6.5980   11.7600 C   0  0  0  0  0  0  0  0  0  0  0  0
    8.5870   -7.8200   12.2080 N   0  0  0  0  0  0  0  0  0  0  0  0
    9.0500   -7.6090   13.4170 C   0  0  0  0  0  0  0  0  0  0  0  0
    8.8830   -6.3000   13.7750 N   0  0  0  0  0  0  0  0  0  0  0  0
    8.2790   -5.6220   12.7400 C   0  0  0  0  0  0  0  0  0  0  0  0
    9.1880   -5.8430   15.1170 C   0  0  0  0  0  2  0  0  0  0  0  0
   10.2530   -6.5970   15.7360 O   0  0  0  0  0  0  0  0  0  0  0  0
   10.2640   -7.9490   15.4920 C   0  0  0  0  0  0  0  0  0  0  0  0
   10.9510   -8.7480   16.4070 C   0  0  0  0  0  3  0  0  0  0  0  0
   11.0330  -10.1260   16.2010 C   0  0  0  0  0  3  0  0  0  0  0  0
   10.4380  -10.6980   15.0770 C   0  0  0  0  0  3  0  0  0  0  0  0
    9.7720   -9.8910   14.1560 C   0  0  0  0  0  0  0  0  0  0  0  0
    9.2190  -10.4770   13.0820 F   0  0  0  0  0  0  0  0  0  0  0  0
    9.6830   -8.5140   14.3500 C   0  0  0  0  0  0  0  0  0  0  0  0
    7.8800   -4.2230   12.8100 C   0  0  0  0  0  0  0  0  0  0  0  0
    6.5970   -3.8720   13.2430 C   0  0  0  0  0  3  0  0  0  0  0  0
    6.2160   -2.5300   13.2980 C   0  0  0  0  0  3  0  0  0  0  0  0
    7.1160   -1.5340   12.9220 C   0  0  0  0  0  3  0  0  0  0  0  0
    8.3970   -1.8770   12.4940 C   0  0  0  0  0  3  0  0  0  0  0  0
    8.7800   -3.2180   12.4390 C   0  0  0  0  0  3  0  0  0  0  0  0
    6.6740   -6.2210    7.7130 C   0  0  0  0  0  0  0  0  0  0  0  0
    7.2870   -7.3950    8.1920 C   0  0  0  0  0  3  0  0  0  0  0  0
    7.7300   -7.5110    9.5150 C   0  0  0  0  0  3  0  0  0  0  0  0
    7.5650   -6.4630   10.4260 C   0  0  0  0  0  0  0  0  0  0  0  0
    6.9390   -5.2990    9.9830 C   0  0  0  0  0  3  0  0  0  0  0  0
    6.5000   -5.1850    8.6560 C   0  0  0  0  0  3  0  0  0  0  0  0
    6.2240   -6.0680    6.2100 C   0  0  2  0  0  0  0  0  0  0  0  0
    6.7310   -4.8560    5.3780 C   0  0  0  0  0  2  0  0  0  0  0  0
    5.3700   -4.9020    4.5970 C   0  0  1  0  0  0  0  0  0  0  0  0
    4.7870   -5.5490    5.9020 C   0  0  0  0  0  2  0  0  0  0  0  0
    6.5070   -7.3490    5.5150 N   0  0  0  0  0  4  0  0  0  0  0  0
    5.9920   -8.1350    5.9240 H   0  0  0  0  0  0  0  0  0  0  0  0
    7.5060   -7.5820    5.5380 H   0  0  0  0  0  0  0  0  0  0  0  0
    6.2300   -7.2720    4.5160 H   0  0  0  0  0  0  0  0  0  0  0  0
    4.8410   -3.5610    4.1290 C   0  0  0  0  0  3  0  0  0  0  0  0
    5.7090   -2.3450    3.9520 C   0  0  0  0  0  2  0  0  0  0  0  0
    5.0350   -2.9670    2.7600 C   0  0  0  0  0  2  0  0  0  0  0  0
    5.4120   -5.8860    3.5190 O   0  0  0  0  0  0  0  0  0  0  0  0
    4.7120   -5.5960    2.8950 H   0  0  0  0  0  0  0  0  0  0  0  0
  1  2  1  0  0  0  0
  1  5  2  0  0  0  0
  2  3  2  0  0  0  0
  3  4  1  0  0  0  0
  3 14  1  0  0  0  0
  4  6  1  0  0  0  0
  5 15  1  0  0  0  0
  5  4  1  0  0  0  0
  6  7  1  0  0  0  0
  8  7  1  0  0  0  0
  8  9  1  0  0  0  0
 10  9  2  0  0  0  0
 11 10  1  0  0  0  0
 12 14  1  0  0  0  0
 12 11  2  0  0  0  0
 13 12  1  0  0  0  0
 14  8  2  0  0  0  0
 15 16  1  0  0  0  0
 16 17  2  0  0  0  0
 18 17  1  0  0  0  0
 19 18  2  0  0  0  0
 20 19  1  0  0  0  0
 20 15  2  0  0  0  0
 21 22  2  0  0  0  0
 21 26  1  0  0  0  0
 22 23  1  0  0  0  0
 23 24  2  0  0  0  0
 24  1  1  0  0  0  0
 25 24  1  0  0  0  0
 26 25  2  0  0  0  0
 27 31  1  6  0  0  0
 27 21  1  0  0  0  0
 28 27  1  0  0  0  0
 29 38  1  6  0  0  0
 29 28  1  0  0  0  0
 29 30  1  0  0  0  0
 30 27  1  0  0  0  0
 31 33  1  0  0  0  0
 31 32  1  0  0  0  0
 34 31  1  0  0  0  0
 35 29  1  0  0  0  0
 36 35  1  0  0  0  0
 37 36  1  0  0  0  0
 37 35  1  0  0  0  0
 39 38  1  0  0  0  0
M  END
>  <minimizedAffinity>
-12.2272272

$$$$

 OpenBabel11232418503D

 39 45  0  0  1  0  0  0  0  0999 V2000
    7.5560   -6.4440   11.4930 C   0  0  0  0  0  0  0  0  0  0  0  0
    7.4830   -5.1870   12.0590 N   0  0  0  0  0  0  0  0  0  0  0  0
    7.1460   -4.3730   11.0870 C   0  0  0  0  0  0  0  0  0  0  0  0
    6.9750   -5.0630    9.9190 N   0  0  0  0  0  0  0  0  0  0  0  0
    7.2160   -6.4000   10.1460 C   0  0  0  0  0  0  0  0  0  0  0  0
    6.4660   -4.4120    8.7280 C   0  0  0  0  0  2  0  0  0  0  0  0
    6.8280   -3.0150    8.6570 O   0  0  0  0  0  0  0  0  0  0  0  0
    6.8020   -2.3180    9.8410 C   0  0  0  0  0  0  0  0  0  0  0  0
    6.6830   -0.9310    9.7510 C   0  0  0  0  0  3  0  0  0  0  0  0
    6.6860   -0.1570   10.9130 C   0  0  0  0  0  3  0  0  0  0  0  0
    6.8200   -0.7720   12.1570 C   0  0  0  0  0  3  0  0  0  0  0  0
    6.9600   -2.1570   12.2380 C   0  0  0  0  0  0  0  0  0  0  0  0
    7.0950   -2.7110   13.4530 F   0  0  0  0  0  0  0  0  0  0  0  0
    6.9580   -2.9400   11.0850 C   0  0  0  0  0  0  0  0  0  0  0  0
    7.0480   -7.4360    9.1360 C   0  0  0  0  0  0  0  0  0  0  0  0
    6.3300   -8.6020    9.4270 C   0  0  0  0  0  3  0  0  0  0  0  0
    6.1820   -9.5970    8.4590 C   0  0  0  0  0  3  0  0  0  0  0  0
    6.7490   -9.4310    7.1960 C   0  0  0  0  0  3  0  0  0  0  0  0
    7.4630   -8.2720    6.8990 C   0  0  0  0  0  3  0  0  0  0  0  0
    7.6110   -7.2750    7.8650 C   0  0  0  0  0  3  0  0  0  0  0  0
    8.6080   -9.7490   14.0630 C   0  0  0  0  0  0  0  0  0  0  0  0
    7.2740   -9.3490   13.8490 C   0  0  0  0  0  3  0  0  0  0  0  0
    6.9470   -8.2920   12.9920 C   0  0  0  0  0  3  0  0  0  0  0  0
    7.9380   -7.5940   12.2960 C   0  0  0  0  0  0  0  0  0  0  0  0
    9.2650   -7.9860   12.4710 C   0  0  0  0  0  3  0  0  0  0  0  0
    9.5890   -9.0450   13.3320 C   0  0  0  0  0  3  0  0  0  0  0  0
    8.9820  -10.9040   15.0670 C   0  0  2  0  0  0  0  0  0  0  0  0
    8.3890  -10.8900   16.5050 C   0  0  0  0  0  2  0  0  0  0  0  0
    9.7130  -11.5800   16.9910 C   0  0  1  0  0  0  0  0  0  0  0  0
   10.3810  -10.8850   15.7530 C   0  0  0  0  0  2  0  0  0  0  0  0
    8.7160  -12.2010   14.3940 N   0  0  0  0  0  4  0  0  0  0  0  0
    9.2800  -12.3200   13.5460 H   0  0  0  0  0  0  0  0  0  0  0  0
    7.7290  -12.2980   14.1310 H   0  0  0  0  0  0  0  0  0  0  0  0
    8.9440  -12.9820   15.0410 H   0  0  0  0  0  0  0  0  0  0  0  0
   10.1670  -11.2090   18.3890 C   0  0  0  0  0  3  0  0  0  0  0  0
   11.1180  -12.0490   19.1990 C   0  0  0  0  0  2  0  0  0  0  0  0
   11.5210  -10.6680   18.7590 C   0  0  0  0  0  2  0  0  0  0  0  0
    9.6600  -13.0250   16.7930 O   0  0  0  0  0  0  0  0  0  0  0  0
   10.3180  -13.3840   17.4260 H   0  0  0  0  0  0  0  0  0  0  0  0
  1  2  1  0  0  0  0
  1 24  1  0  0  0  0
  3  2  2  0  0  0  0
  4  5  1  0  0  0  0
  4  3  1  0  0  0  0
  5  1  2  0  0  0  0
  6  4  1  0  0  0  0
  7  6  1  0  0  0  0
  7  8  1  0  0  0  0
  8 14  1  0  0  0  0
  9  8  2  0  0  0  0
  9 10  1  0  0  0  0
 10 11  2  0  0  0  0
 11 12  1  0  0  0  0
 12 13  1  0  0  0  0
 14  3  1  0  0  0  0
 14 12  2  0  0  0  0
 15 16  1  0  0  0  0
 15  5  1  0  0  0  0
 17 16  2  0  0  0  0
 18 17  1  0  0  0  0
 19 18  2  0  0  0  0
 19 20  1  0  0  0  0
 20 15  2  0  0  0  0
 21 27  1  0  0  0  0
 22 21  1  0  0  0  0
 23 22  2  0  0  0  0
 24 25  2  0  0  0  0
 24 23  1  0  0  0  0
 25 26  1  0  0  0  0
 26 21  2  0  0  0  0
 27 31  1  6  0  0  0
 27 30  1  0  0  0  0
 27 28  1  0  0  0  0
 28 29  1  0  0  0  0
 29 38  1  6  0  0  0
 29 35  1  0  0  0  0
 30 29  1  0  0  0  0
 31 34  1  0  0  0  0
 32 31  1  0  0  0  0
 33 31  1  0  0  0  0
 35 37  1  0  0  0  0
 35 36  1  0  0  0  0
 37 36  1  0  0  0  0
 38 39  1  0  0  0  0
M  END
>  <minimizedAffinity>
-12.1195631

$$$$

 OpenBabel11232418503D

 39 45  0  0  1  0  0  0  0  0999 V2000
    6.9550   -4.8320   10.2180 C   0  0  0  0  0  0  0  0  0  0  0  0
    6.8400   -5.2340    8.9030 N   0  0  0  0  0  0  0  0  0  0  0  0
    6.6500   -4.1380    8.2070 C   0  0  0  0  0  0  0  0  0  0  0  0
    6.6630   -3.0410    9.0240 N   0  0  0  0  0  0  0  0  0  0  0  0
    6.8720   -3.4480   10.3230 C   0  0  0  0  0  0  0  0  0  0  0  0
    6.6130   -1.6980    8.4800 C   0  0  0  0  0  2  0  0  0  0  0  0
    5.8790   -1.6250    7.2390 O   0  0  0  0  0  0  0  0  0  0  0  0
    6.0480   -2.6730    6.3670 C   0  0  0  0  0  0  0  0  0  0  0  0
    5.7530   -2.4290    5.0250 C   0  0  0  0  0  3  0  0  0  0  0  0
    5.8690   -3.4590    4.0900 C   0  0  0  0  0  3  0  0  0  0  0  0
    6.2680   -4.7310    4.5030 C   0  0  0  0  0  3  0  0  0  0  0  0
    6.5420   -4.9720    5.8480 C   0  0  0  0  0  0  0  0  0  0  0  0
    6.9150   -6.2100    6.2080 F   0  0  0  0  0  0  0  0  0  0  0  0
    6.4290   -3.9520    6.7910 C   0  0  0  0  0  0  0  0  0  0  0  0
    7.0220   -2.5310   11.4450 C   0  0  0  0  0  0  0  0  0  0  0  0
    6.6410   -2.9200   12.7340 C   0  0  0  0  0  3  0  0  0  0  0  0
    6.7770   -2.0340   13.8040 C   0  0  0  0  0  3  0  0  0  0  0  0
    7.2940   -0.7570   13.5910 C   0  0  0  0  0  3  0  0  0  0  0  0
    7.6770   -0.3650   12.3100 C   0  0  0  0  0  3  0  0  0  0  0  0
    7.5440   -1.2500   11.2390 C   0  0  0  0  0  3  0  0  0  0  0  0
    7.6080   -7.8870   13.1980 C   0  0  0  0  0  0  0  0  0  0  0  0
    8.6620   -7.2950   12.4750 C   0  0  0  0  0  3  0  0  0  0  0  0
    8.4370   -6.2870   11.5310 C   0  0  0  0  0  3  0  0  0  0  0  0
    7.1470   -5.8120   11.2760 C   0  0  0  0  0  0  0  0  0  0  0  0
    6.0880   -6.3650   11.9950 C   0  0  0  0  0  3  0  0  0  0  0  0
    6.3180   -7.3770   12.9390 C   0  0  0  0  0  3  0  0  0  0  0  0
    7.8540   -9.0590   14.2220 C   0  0  2  0  0  0  0  0  0  0  0  0
    8.5330  -10.3710   13.7360 C   0  0  0  0  0  2  0  0  0  0  0  0
    7.6730  -11.1380   14.8030 C   0  0  1  0  0  0  0  0  0  0  0  0
    6.6520   -9.9570   14.6450 C   0  0  0  0  0  2  0  0  0  0  0  0
    8.5620   -8.4970   15.4000 N   0  0  0  0  0  4  0  0  0  0  0  0
    8.0130   -7.7700   15.8720 H   0  0  0  0  0  0  0  0  0  0  0  0
    9.4670   -8.0890   15.1410 H   0  0  0  0  0  0  0  0  0  0  0  0
    8.7480   -9.2530   16.0890 H   0  0  0  0  0  0  0  0  0  0  0  0
    7.2530  -12.5420   14.4160 C   0  0  0  0  0  3  0  0  0  0  0  0
    8.0830  -13.4410   13.5390 C   0  0  0  0  0  2  0  0  0  0  0  0
    7.8270  -13.8160   14.9730 C   0  0  0  0  0  2  0  0  0  0  0  0
    8.3000  -11.0920   16.1200 O   0  0  0  0  0  0  0  0  0  0  0  0
    7.9200  -11.8600   16.6000 H   0  0  0  0  0  0  0  0  0  0  0  0
  1  5  2  0  0  0  0
  1 24  1  0  0  0  0
  2  1  1  0  0  0  0
  3  2  2  0  0  0  0
  3  4  1  0  0  0  0
  4  5  1  0  0  0  0
  5 15  1  0  0  0  0
  6  4  1  0  0  0  0
  7  6  1  0  0  0  0
  8 14  1  0  0  0  0
  8  7  1  0  0  0  0
  9  8  2  0  0  0  0
 10 11  2  0  0  0  0
 10  9  1  0  0  0  0
 11 12  1  0  0  0  0
 12 13  1  0  0  0  0
 12 14  2  0  0  0  0
 14  3  1  0  0  0  0
 15 16  1  0  0  0  0
 16 17  2  0  0  0  0
 18 17  1  0  0  0  0
 19 18  2  0  0  0  0
 20 15  2  0  0  0  0
 20 19  1  0  0  0  0
 21 27  1  0  0  0  0
 22 21  2  0  0  0  0
 23 22  1  0  0  0  0
 24 23  2  0  0  0  0
 24 25  1  0  0  0  0
 25 26  2  0  0  0  0
 26 21  1  0  0  0  0
 27 30  1  0  0  0  0
 27 31  1  1  0  0  0
 28 27  1  0  0  0  0
 28 29  1  0  0  0  0
 29 38  1  1  0  0  0
 30 29  1  0  0  0  0
 31 32  1  0  0  0  0
 31 34  1  0  0  0  0
 33 31  1  0  0  0  0
 35 29  1  0  0  0  0
 35 37  1  0  0  0  0
 36 35  1  0  0  0  0
 36 37  1  0  0  0  0
 38 39  1  0  0  0  0
M  END
>  <minimizedAffinity>
-11.9316711

$$$$

 OpenBabel11232418503D

 39 45  0  0  1  0  0  0  0  0999 V2000
    7.0270   -5.3770    9.6870 C   0  0  0  0  0  0  0  0  0  0  0  0
    6.9620   -5.7140    8.3500 N   0  0  0  0  0  0  0  0  0  0  0  0
    6.6680   -4.6060    7.7130 C   0  0  0  0  0  0  0  0  0  0  0  0
    6.5650   -3.5610    8.5880 N   0  0  0  0  0  0  0  0  0  0  0  0
    6.8050   -4.0160    9.8660 C   0  0  0  0  0  0  0  0  0  0  0  0
    6.3840   -2.2010    8.1180 C   0  0  0  0  0  2  0  0  0  0  0  0
    5.6540   -2.1330    6.8740 O   0  0  0  0  0  0  0  0  0  0  0  0
    5.9350   -3.1090    5.9480 C   0  0  0  0  0  0  0  0  0  0  0  0
    5.6260   -2.8220    4.6180 C   0  0  0  0  0  3  0  0  0  0  0  0
    5.8520   -3.7820    3.6300 C   0  0  0  0  0  3  0  0  0  0  0  0
    6.3740   -5.0280    3.9770 C   0  0  0  0  0  3  0  0  0  0  0  0
    6.6610   -5.3150    5.3110 C   0  0  0  0  0  0  0  0  0  0  0  0
    7.1540   -6.5270    5.6070 F   0  0  0  0  0  0  0  0  0  0  0  0
    6.4390   -4.3650    6.3060 C   0  0  0  0  0  0  0  0  0  0  0  0
    6.8540   -3.1530   11.0380 C   0  0  0  0  0  0  0  0  0  0  0  0
    7.2790   -1.8250   10.9230 C   0  0  0  0  0  3  0  0  0  0  0  0
    7.3350   -1.0050   12.0520 C   0  0  0  0  0  3  0  0  0  0  0  0
    6.9660   -1.5080   13.2990 C   0  0  0  0  0  3  0  0  0  0  0  0
    6.5390   -2.8290   13.4190 C   0  0  0  0  0  3  0  0  0  0  0  0
    6.4810   -3.6500   12.2920 C   0  0  0  0  0  3  0  0  0  0  0  0
    8.0340   -8.4640   12.5310 C   0  0  0  0  0  0  0  0  0  0  0  0
    8.9290   -7.4350   12.1810 C   0  0  0  0  0  3  0  0  0  0  0  0
    8.5790   -6.4250   11.2770 C   0  0  0  0  0  3  0  0  0  0  0  0
    7.3100   -6.3900   10.6920 C   0  0  0  0  0  0  0  0  0  0  0  0
    6.3960   -7.3840   11.0400 C   0  0  0  0  0  3  0  0  0  0  0  0
    6.7520   -8.3950   11.9450 C   0  0  0  0  0  3  0  0  0  0  0  0
    8.4450   -9.6310   13.5080 C   0  0  2  0  0  0  0  0  0  0  0  0
    8.3620   -9.4060   15.0460 C   0  0  0  0  0  2  0  0  0  0  0  0
    9.5850  -10.3810   15.1910 C   0  0  1  0  0  0  0  0  0  0  0  0
    9.9580   -9.9280   13.7350 C   0  0  0  0  0  2  0  0  0  0  0  0
    7.6980  -10.8490   13.1070 N   0  0  0  0  0  4  0  0  0  0  0  0
    7.9200  -11.1420   12.1490 H   0  0  0  0  0  0  0  0  0  0  0  0
    6.6830  -10.7110   13.1650 H   0  0  0  0  0  0  0  0  0  0  0  0
    7.9420  -11.6340   13.7440 H   0  0  0  0  0  0  0  0  0  0  0  0
   10.5330  -10.0730   16.3330 C   0  0  0  0  0  3  0  0  0  0  0  0
   10.3450  -10.6030   17.7280 C   0  0  0  0  0  2  0  0  0  0  0  0
   11.5410  -11.0230   16.9190 C   0  0  0  0  0  2  0  0  0  0  0  0
    9.1530  -11.7750   15.1920 O   0  0  0  0  0  0  0  0  0  0  0  0
    9.8820  -12.2580   15.6370 H   0  0  0  0  0  0  0  0  0  0  0  0
  1  5  2  0  0  0  0
  1 24  1  0  0  0  0
  2  1  1  0  0  0  0
  3  2  2  0  0  0  0
  3  4  1  0  0  0  0
  4  5  1  0  0  0  0
  5 15  1  0  0  0  0
  6  4  1  0  0  0  0
  7  6  1  0  0  0  0
  8 14  1  0  0  0  0
  8  7  1  0  0  0  0
  9  8  2  0  0  0  0
 10 11  2  0  0  0  0
 10  9  1  0  0  0  0
 11 12  1  0  0  0  0
 12 13  1  0  0  0  0
 12 14  2  0  0  0  0
 14  3  1  0  0  0  0
 15 20  1  0  0  0  0
 16 15  2  0  0  0  0
 16 17  1  0  0  0  0
 17 18  2  0  0  0  0
 18 19  1  0  0  0  0
 20 19  2  0  0  0  0
 21 27  1  0  0  0  0
 22 21  1  0  0  0  0
 23 22  2  0  0  0  0
 24 25  2  0  0  0  0
 24 23  1  0  0  0  0
 25 26  1  0  0  0  0
 26 21  2  0  0  0  0
 27 31  1  6  0  0  0
 27 30  1  0  0  0  0
 27 28  1  0  0  0  0
 28 29  1  0  0  0  0
 29 38  1  1  0  0  0
 29 35  1  0  0  0  0
 30 29  1  0  0  0  0
 31 33  1  0  0  0  0
 31 34  1  0  0  0  0
 32 31  1  0  0  0  0
 35 37  1  0  0  0  0
 35 36  1  0  0  0  0
 37 36  1  0  0  0  0
 38 39  1  0  0  0  0
M  END
>  <minimizedAffinity>
-11.8113956

$$$$

 OpenBabel11232418503D

 39 45  0  0  1  0  0  0  0  0999 V2000
    7.4390   -6.2170   11.2810 C   0  0  0  0  0  0  0  0  0  0  0  0
    7.3520   -4.9440   11.8060 N   0  0  0  0  0  0  0  0  0  0  0  0
    7.0750   -4.1560   10.7940 C   0  0  0  0  0  0  0  0  0  0  0  0
    6.9550   -4.8790    9.6400 N   0  0  0  0  0  0  0  0  0  0  0  0
    7.1680   -6.2110    9.9170 C   0  0  0  0  0  0  0  0  0  0  0  0
    6.5160   -4.2570    8.4060 C   0  0  0  0  0  2  0  0  0  0  0  0
    6.8980   -2.8680    8.3130 O   0  0  0  0  0  0  0  0  0  0  0  0
    6.8210   -2.1350    9.4720 C   0  0  0  0  0  0  0  0  0  0  0  0
    6.7230   -0.7500    9.3360 C   0  0  0  0  0  3  0  0  0  0  0  0
    6.6770    0.0580   10.4730 C   0  0  0  0  0  3  0  0  0  0  0  0
    6.7400   -0.5210   11.7410 C   0  0  0  0  0  3  0  0  0  0  0  0
    6.8590   -1.9040   11.8690 C   0  0  0  0  0  0  0  0  0  0  0  0
    6.9250   -2.4230   13.1050 F   0  0  0  0  0  0  0  0  0  0  0  0
    6.9060   -2.7210   10.7410 C   0  0  0  0  0  0  0  0  0  0  0  0
    7.0390   -7.2740    8.9310 C   0  0  0  0  0  0  0  0  0  0  0  0
    7.4600   -7.0730    7.6110 C   0  0  0  0  0  3  0  0  0  0  0  0
    7.3240   -8.0920    6.6670 C   0  0  0  0  0  3  0  0  0  0  0  0
    6.7680   -9.3160    7.0370 C   0  0  0  0  0  3  0  0  0  0  0  0
    6.3500   -9.5240    8.3500 C   0  0  0  0  0  3  0  0  0  0  0  0
    6.4870   -8.5070    9.2960 C   0  0  0  0  0  3  0  0  0  0  0  0
    8.4240   -9.7040   13.6280 C   0  0  0  0  0  0  0  0  0  0  0  0
    9.3200   -9.1360   12.7010 C   0  0  0  0  0  3  0  0  0  0  0  0
    8.9960   -7.9890   11.9670 C   0  0  0  0  0  3  0  0  0  0  0  0
    7.7650   -7.3480   12.1360 C   0  0  0  0  0  0  0  0  0  0  0  0
    6.8700   -7.8760   13.0650 C   0  0  0  0  0  3  0  0  0  0  0  0
    7.1970   -9.0270   13.7970 C   0  0  0  0  0  3  0  0  0  0  0  0
    8.7660  -11.0240   14.4170 C   0  0  2  0  0  0  0  0  0  0  0  0
    8.7410  -12.3900   13.6710 C   0  0  0  0  0  2  0  0  0  0  0  0
    8.2860  -13.0490   15.0220 C   0  0  1  0  0  0  0  0  0  0  0  0
    7.6900  -11.6380   15.3640 C   0  0  0  0  0  2  0  0  0  0  0  0
   10.0610  -10.8210   15.1130 N   0  0  0  0  0  4  0  0  0  0  0  0
   10.0220  -10.0480   15.7860 H   0  0  0  0  0  0  0  0  0  0  0  0
   10.8210  -10.6230   14.4530 H   0  0  0  0  0  0  0  0  0  0  0  0
   10.3170  -11.6830   15.6340 H   0  0  0  0  0  0  0  0  0  0  0  0
    7.3560  -14.2380   14.8880 C   0  0  0  0  0  3  0  0  0  0  0  0
    7.3180  -15.1240   13.6720 C   0  0  0  0  0  2  0  0  0  0  0  0
    7.7550  -15.6840   14.9990 C   0  0  0  0  0  2  0  0  0  0  0  0
    9.4300  -13.3370   15.8820 O   0  0  0  0  0  0  0  0  0  0  0  0
    9.1110  -14.0400   16.4880 H   0  0  0  0  0  0  0  0  0  0  0  0
  1  2  1  0  0  0  0
  1 24  1  0  0  0  0
  3  2  2  0  0  0  0
  4  5  1  0  0  0  0
  4  3  1  0  0  0  0
  5  1  2  0  0  0  0
  6  4  1  0  0  0  0
  7  6  1  0  0  0  0
  7  8  1  0  0  0  0
  8 14  1  0  0  0  0
  9  8  2  0  0  0  0
  9 10  1  0  0  0  0
 10 11  2  0  0  0  0
 11 12  1  0  0  0  0
 12 13  1  0  0  0  0
 14  3  1  0  0  0  0
 14 12  2  0  0  0  0
 15 20  1  0  0  0  0
 15  5  1  0  0  0  0
 16 15  2  0  0  0  0
 17 18  2  0  0  0  0
 17 16  1  0  0  0  0
 18 19  1  0  0  0  0
 19 20  2  0  0  0  0
 21 26  1  0  0  0  0
 21 27  1  0  0  0  0
 22 21  2  0  0  0  0
 23 24  2  0  0  0  0
 23 22  1  0  0  0  0
 24 25  1  0  0  0  0
 25 26  2  0  0  0  0
 27 31  1  1  0  0  0
 27 30  1  0  0  0  0
 28 27  1  0  0  0  0
 28 29  1  0  0  0  0
 29 30  1  0  0  0  0
 29 38  1  1  0  0  0
 31 34  1  0  0  0  0
 31 32  1  0  0  0  0
 33 31  1  0  0  0  0
 35 37  1  0  0  0  0
 35 29  1  0  0  0  0
 36 35  1  0  0  0  0
 36 37  1  0  0  0  0
 38 39  1  0  0  0  0
M  END
>  <minimizedAffinity>
-11.7952375

$$$$

 OpenBabel11232418503D

 39 45  0  0  1  0  0  0  0  0999 V2000
    7.3870   -5.8510   10.7080 C   0  0  0  0  0  0  0  0  0  0  0  0
    7.2030   -6.3220    9.4240 N   0  0  0  0  0  0  0  0  0  0  0  0
    6.8130   -5.2900    8.7140 C   0  0  0  0  0  0  0  0  0  0  0  0
    6.7630   -4.1640    9.4880 N   0  0  0  0  0  0  0  0  0  0  0  0
    7.1400   -4.4840   10.7740 C   0  0  0  0  0  0  0  0  0  0  0  0
    6.4950   -2.8630    8.9070 C   0  0  0  0  0  2  0  0  0  0  0  0
    5.6460   -2.9360    7.7410 O   0  0  0  0  0  0  0  0  0  0  0  0
    5.8660   -3.9940    6.8920 C   0  0  0  0  0  0  0  0  0  0  0  0
    5.4210   -3.8490    5.5780 C   0  0  0  0  0  3  0  0  0  0  0  0
    5.5790   -4.8980    4.6710 C   0  0  0  0  0  3  0  0  0  0  0  0
    6.1720   -6.0910    5.0850 C   0  0  0  0  0  3  0  0  0  0  0  0
    6.5950   -6.2370    6.4050 C   0  0  0  0  0  0  0  0  0  0  0  0
    7.1530   -7.4020    6.7680 F   0  0  0  0  0  0  0  0  0  0  0  0
    6.4420   -5.1960    7.3200 C   0  0  0  0  0  0  0  0  0  0  0  0
    7.2760   -3.5060   11.8450 C   0  0  0  0  0  0  0  0  0  0  0  0
    8.4440   -2.7460   11.9680 C   0  0  0  0  0  3  0  0  0  0  0  0
    8.5730   -1.8190   13.0040 C   0  0  0  0  0  3  0  0  0  0  0  0
    7.5360   -1.6460   13.9190 C   0  0  0  0  0  3  0  0  0  0  0  0
    6.3690   -2.3980   13.8000 C   0  0  0  0  0  3  0  0  0  0  0  0
    6.2370   -3.3250   12.7650 C   0  0  0  0  0  3  0  0  0  0  0  0
    8.5780   -8.3490   14.0210 C   0  0  0  0  0  0  0  0  0  0  0  0
    7.2860   -7.7970   13.9130 C   0  0  0  0  0  3  0  0  0  0  0  0
    6.9070   -7.0100   12.8200 C   0  0  0  0  0  3  0  0  0  0  0  0
    7.7970   -6.7510   11.7740 C   0  0  0  0  0  0  0  0  0  0  0  0
    9.0740   -7.3060   11.8440 C   0  0  0  0  0  3  0  0  0  0  0  0
    9.4510   -8.0920   12.9430 C   0  0  0  0  0  3  0  0  0  0  0  0
    9.0230   -9.1900   15.2760 C   0  0  2  0  0  0  0  0  0  0  0  0
   10.4550   -9.7980   15.3220 C   0  0  0  0  0  2  0  0  0  0  0  0
    9.8560  -10.9870   16.1550 C   0  0  1  0  0  0  0  0  0  0  0  0
    8.5070  -10.6540   15.4260 C   0  0  0  0  0  2  0  0  0  0  0  0
    8.7480   -8.3820   16.4910 N   0  0  0  0  0  4  0  0  0  0  0  0
    7.7520   -8.1610   16.5920 H   0  0  0  0  0  0  0  0  0  0  0  0
    9.2670   -7.4970   16.4860 H   0  0  0  0  0  0  0  0  0  0  0  0
    9.0450   -8.9110   17.3360 H   0  0  0  0  0  0  0  0  0  0  0  0
   10.5110  -12.3350   15.9310 C   0  0  0  0  0  3  0  0  0  0  0  0
   11.9890  -12.5720   16.0850 C   0  0  0  0  0  2  0  0  0  0  0  0
   11.0180  -13.2560   17.0070 C   0  0  0  0  0  2  0  0  0  0  0  0
    9.7640  -10.6460   17.5720 O   0  0  0  0  0  0  0  0  0  0  0  0
    9.7420  -11.5130   18.0320 H   0  0  0  0  0  0  0  0  0  0  0  0
  1  5  2  0  0  0  0
  1 24  1  0  0  0  0
  2  1  1  0  0  0  0
  3  2  2  0  0  0  0
  3  4  1  0  0  0  0
  4  5  1  0  0  0  0
  5 15  1  0  0  0  0
  6  4  1  0  0  0  0
  7  6  1  0  0  0  0
  8 14  1  0  0  0  0
  8  7  1  0  0  0  0
  9  8  2  0  0  0  0
 10 11  2  0  0  0  0
 10  9  1  0  0  0  0
 11 12  1  0  0  0  0
 12 13  1  0  0  0  0
 12 14  2  0  0  0  0
 14  3  1  0  0  0  0
 15 16  2  0  0  0  0
 15 20  1  0  0  0  0
 16 17  1  0  0  0  0
 17 18  2  0  0  0  0
 19 18  1  0  0  0  0
 20 19  2  0  0  0  0
 21 27  1  0  0  0  0
 22 21  1  0  0  0  0
 23 22  2  0  0  0  0
 24 25  2  0  0  0  0
 24 23  1  0  0  0  0
 25 26  1  0  0  0  0
 26 21  2  0  0  0  0
 27 28  1  0  0  0  0
 27 30  1  0  0  0  0
 27 31  1  1  0  0  0
 28 29  1  0  0  0  0
 29 38  1  1  0  0  0
 30 29  1  0  0  0  0
 31 32  1  0  0  0  0
 31 34  1  0  0  0  0
 33 31  1  0  0  0  0
 35 36  1  0  0  0  0
 35 29  1  0  0  0  0
 35 37  1  0  0  0  0
 36 37  1  0  0  0  0
 38 39  1  0  0  0  0
M  END
>  <minimizedAffinity>
-11.6973791

$$$$

 OpenBabel11232418503D

 39 45  0  0  1  0  0  0  0  0999 V2000
    8.3780  -10.4730   13.8600 C   0  0  0  0  0  0  0  0  0  0  0  0
    7.8010  -11.6110   13.3340 N   0  0  0  0  0  0  0  0  0  0  0  0
    8.3150  -12.6170   14.0010 C   0  0  0  0  0  0  0  0  0  0  0  0
    9.1840  -12.1670   14.9560 N   0  0  0  0  0  0  0  0  0  0  0  0
    9.2390  -10.7910   14.9040 C   0  0  0  0  0  0  0  0  0  0  0  0
    9.7790  -13.0730   15.9180 C   0  0  0  0  0  2  0  0  0  0  0  0
    9.9620  -14.4060   15.3920 O   0  0  0  0  0  0  0  0  0  0  0  0
    8.9610  -14.8840   14.5820 C   0  0  0  0  0  0  0  0  0  0  0  0
    8.8680  -16.2700   14.4480 C   0  0  0  0  0  3  0  0  0  0  0  0
    7.8960  -16.8230   13.6120 C   0  0  0  0  0  3  0  0  0  0  0  0
    7.0300  -15.9890   12.9060 C   0  0  0  0  0  3  0  0  0  0  0  0
    7.1420  -14.6040   13.0280 C   0  0  0  0  0  0  0  0  0  0  0  0
    6.2960  -13.8350   12.3260 F   0  0  0  0  0  0  0  0  0  0  0  0
    8.1080  -14.0400   13.8600 C   0  0  0  0  0  0  0  0  0  0  0  0
   10.0080   -9.9760   15.8340 C   0  0  0  0  0  0  0  0  0  0  0  0
    9.4930   -8.7640   16.3080 C   0  0  0  0  0  3  0  0  0  0  0  0
   10.2390   -7.9800   17.1910 C   0  0  0  0  0  3  0  0  0  0  0  0
   11.5010   -8.4050   17.6040 C   0  0  0  0  0  3  0  0  0  0  0  0
   12.0180   -9.6120   17.1380 C   0  0  0  0  0  3  0  0  0  0  0  0
   11.2730  -10.3980   16.2570 C   0  0  0  0  0  3  0  0  0  0  0  0
    7.5980   -6.5030   12.3550 C   0  0  0  0  0  0  0  0  0  0  0  0
    8.6750   -7.2890   11.9000 C   0  0  0  0  0  3  0  0  0  0  0  0
    8.9000   -8.5840   12.3780 C   0  0  0  0  0  3  0  0  0  0  0  0
    8.0480   -9.1620   13.3240 C   0  0  0  0  0  0  0  0  0  0  0  0
    6.9600   -8.4140   13.7740 C   0  0  0  0  0  3  0  0  0  0  0  0
    6.7400   -7.1150   13.2930 C   0  0  0  0  0  3  0  0  0  0  0  0
    7.3750   -5.0250   11.8560 C   0  0  2  0  0  0  0  0  0  0  0  0
    8.3380   -3.9010   12.3370 C   0  0  0  0  0  2  0  0  0  0  0  0
    7.1240   -2.9100   12.2500 C   0  0  1  0  0  0  0  0  0  0  0  0
    6.2320   -4.1780   12.4940 C   0  0  0  0  0  2  0  0  0  0  0  0
    7.2820   -5.0490   10.3750 N   0  0  0  0  0  4  0  0  0  0  0  0
    6.4950   -5.6200   10.0460 H   0  0  0  0  0  0  0  0  0  0  0  0
    8.1370   -5.4170    9.9450 H   0  0  0  0  0  0  0  0  0  0  0  0
    7.1450   -4.0830   10.0180 H   0  0  0  0  0  0  0  0  0  0  0  0
    7.1210   -1.7900   13.2720 C   0  0  0  0  0  3  0  0  0  0  0  0
    8.3170   -0.9190   13.5460 C   0  0  0  0  0  2  0  0  0  0  0  0
    7.0660   -0.3180   12.9650 C   0  0  0  0  0  2  0  0  0  0  0  0
    6.9400   -2.4150   10.8890 O   0  0  0  0  0  0  0  0  0  0  0  0
    6.4430   -1.5760   10.9980 H   0  0  0  0  0  0  0  0  0  0  0  0
  1  5  2  0  0  0  0
  2  1  1  0  0  0  0
  2  3  2  0  0  0  0
  3  4  1  0  0  0  0
  4  6  1  0  0  0  0
  5  4  1  0  0  0  0
  5 15  1  0  0  0  0
  7  6  1  0  0  0  0
  8  7  1  0  0  0  0
  9  8  1  0  0  0  0
 10  9  2  0  0  0  0
 11 12  2  0  0  0  0
 11 10  1  0  0  0  0
 12 14  1  0  0  0  0
 13 12  1  0  0  0  0
 14  3  1  0  0  0  0
 14  8  2  0  0  0  0
 15 20  2  0  0  0  0
 15 16  1  0  0  0  0
 16 17  2  0  0  0  0
 17 18  1  0  0  0  0
 19 18  2  0  0  0  0
 20 19  1  0  0  0  0
 21 26  1  0  0  0  0
 22 21  2  0  0  0  0
 22 23  1  0  0  0  0
 23 24  2  0  0  0  0
 24 25  1  0  0  0  0
 24  1  1  0  0  0  0
 26 25  2  0  0  0  0
 27 31  1  6  0  0  0
 27 28  1  0  0  0  0
 27 21  1  0  0  0  0
 27 30  1  0  0  0  0
 29 38  1  6  0  0  0
 29 28  1  0  0  0  0
 29 30  1  0  0  0  0
 29 35  1  0  0  0  0
 32 31  1  0  0  0  0
 33 31  1  0  0  0  0
 34 31  1  0  0  0  0
 35 36  1  0  0  0  0
 37 35  1  0  0  0  0
 37 36  1  0  0  0  0
 38 39  1  0  0  0  0
M  END
>  <minimizedAffinity>
-11.6590424

$$$$
