
 OpenBabel11232418503D

 39 45  0  0  1  0  0  0  0  0999 V2000
    7.4260   -4.3890   11.3770 C   0  0  0  0  0  0  0  0  0  0  0  0
    7.2310   -4.8940   10.1070 N   0  0  0  0  0  0  0  0  0  0  0  0
    6.9380   -3.8630    9.3510 C   0  0  0  0  0  0  0  0  0  0  0  0
    6.9610   -2.7080   10.0820 N   0  0  0  0  0  0  0  0  0  0  0  0
    7.2860   -3.0060   11.3870 C   0  0  0  0  0  0  0  0  0  0  0  0
    6.8070   -1.4130    9.4480 C   0  0  0  0  0  2  0  0  0  0  0  0
    5.9780   -1.4650    8.2660 O   0  0  0  0  0  0  0  0  0  0  0  0
    6.1310   -2.5680    7.4620 C   0  0  0  0  0  0  0  0  0  0  0  0
    5.7250   -2.4400    6.1330 C   0  0  0  0  0  3  0  0  0  0  0  0
    5.8190   -3.5320    5.2690 C   0  0  0  0  0  3  0  0  0  0  0  0
    6.3080   -4.7510    5.7410 C   0  0  0  0  0  3  0  0  0  0  0  0
    6.6920   -4.8780    7.0750 C   0  0  0  0  0  0  0  0  0  0  0  0
    7.1500   -6.0680    7.4930 F   0  0  0  0  0  0  0  0  0  0  0  0
    6.6030   -3.7940    7.9460 C   0  0  0  0  0  0  0  0  0  0  0  0
    7.4760   -2.0010   12.4240 C   0  0  0  0  0  0  0  0  0  0  0  0
    8.4520   -1.0090   12.2800 C   0  0  0  0  0  3  0  0  0  0  0  0
    8.6380   -0.0550   13.2830 C   0  0  0  0  0  3  0  0  0  0  0  0
    7.8500   -0.0880   14.4320 C   0  0  0  0  0  3  0  0  0  0  0  0
    6.8740   -1.0720   14.5800 C   0  0  0  0  0  3  0  0  0  0  0  0
    6.6850   -2.0250   13.5780 C   0  0  0  0  0  3  0  0  0  0  0  0
    8.5270   -7.1240   14.5300 C   0  0  0  0  0  0  0  0  0  0  0  0
    9.4180   -6.1620   14.0150 C   0  0  0  0  0  3  0  0  0  0  0  0
    9.0380   -5.2640   13.0110 C   0  0  0  0  0  3  0  0  0  0  0  0
    7.7430   -5.2770   12.4850 C   0  0  0  0  0  0  0  0  0  0  0  0
    6.8340   -6.2040   12.9930 C   0  0  0  0  0  3  0  0  0  0  0  0
    7.2200   -7.1030   13.9980 C   0  0  0  0  0  3  0  0  0  0  0  0
    8.9690   -8.1700   15.6220 C   0  0  2  0  0  0  0  0  0  0  0  0
   10.4090   -8.7600   15.5800 C   0  0  0  0  0  2  0  0  0  0  0  0
    9.8170  -10.0840   16.1810 C   0  0  1  0  0  0  0  0  0  0  0  0
    8.4720   -9.6430   15.5030 C   0  0  0  0  0  2  0  0  0  0  0  0
    8.6680   -7.5940   16.9570 N   0  0  0  0  0  4  0  0  0  0  0  0
    7.6670   -7.4060   17.0810 H   0  0  0  0  0  0  0  0  0  0  0  0
    9.1740   -6.7160   17.1160 H   0  0  0  0  0  0  0  0  0  0  0  0
    8.9610   -8.2600   17.6990 H   0  0  0  0  0  0  0  0  0  0  0  0
   10.4930  -11.3640   15.7310 C   0  0  0  0  0  3  0  0  0  0  0  0
   11.7980  -11.8530   16.3000 C   0  0  0  0  0  2  0  0  0  0  0  0
   10.5400  -12.6530   16.5050 C   0  0  0  0  0  2  0  0  0  0  0  0
    9.7020  -10.0010   17.6340 O   0  0  0  0  0  0  0  0  0  0  0  0
    9.6870  -10.9360   17.9330 H   0  0  0  0  0  0  0  0  0  0  0  0
  1  5  2  0  0  0  0
  1 24  1  0  0  0  0
  2  1  1  0  0  0  0
  3  4  1  0  0  0  0
  3  2  2  0  0  0  0
  4  5  1  0  0  0  0
  5 15  1  0  0  0  0
  6  4  1  0  0  0  0
  7  6  1  0  0  0  0
  8 14  1  0  0  0  0
  8  7  1  0  0  0  0
  9  8  2  0  0  0  0
 10 11  2  0  0  0  0
 10  9  1  0  0  0  0
 11 12  1  0  0  0  0
 12 13  1  0  0  0  0
 12 14  2  0  0  0  0
 14  3  1  0  0  0  0
 15 20  1  0  0  0  0
 16 15  2  0  0  0  0
 16 17  1  0  0  0  0
 17 18  2  0  0  0  0
 18 19  1  0  0  0  0
 20 19  2  0  0  0  0
 21 27  1  0  0  0  0
 22 21  1  0  0  0  0
 23 22  2  0  0  0  0
 24 25  2  0  0  0  0
 24 23  1  0  0  0  0
 25 26  1  0  0  0  0
 26 21  2  0  0  0  0
 27 31  1  1  0  0  0
 28 27  1  0  0  0  0
 28 29  1  0  0  0  0
 29 38  1  1  0  0  0
 30 27  1  0  0  0  0
 30 29  1  0  0  0  0
 31 32  1  0  0  0  0
 31 33  1  0  0  0  0
 31 34  1  0  0  0  0
 35 29  1  0  0  0  0
 35 36  1  0  0  0  0
 35 37  1  0  0  0  0
 36 37  1  0  0  0  0
 38 39  1  0  0  0  0
M  END
>  <minimizedAffinity>
-13.0338907

$$$$
