
 OpenBabel11232418503D

 39 45  0  0  1  0  0  0  0  0999 V2000
    6.9550   -4.8320   10.2180 C   0  0  0  0  0  0  0  0  0  0  0  0
    6.8400   -5.2340    8.9030 N   0  0  0  0  0  0  0  0  0  0  0  0
    6.6500   -4.1380    8.2070 C   0  0  0  0  0  0  0  0  0  0  0  0
    6.6630   -3.0410    9.0240 N   0  0  0  0  0  0  0  0  0  0  0  0
    6.8720   -3.4480   10.3230 C   0  0  0  0  0  0  0  0  0  0  0  0
    6.6130   -1.6980    8.4800 C   0  0  0  0  0  2  0  0  0  0  0  0
    5.8790   -1.6250    7.2390 O   0  0  0  0  0  0  0  0  0  0  0  0
    6.0480   -2.6730    6.3670 C   0  0  0  0  0  0  0  0  0  0  0  0
    5.7530   -2.4290    5.0250 C   0  0  0  0  0  3  0  0  0  0  0  0
    5.8690   -3.4590    4.0900 C   0  0  0  0  0  3  0  0  0  0  0  0
    6.2680   -4.7310    4.5030 C   0  0  0  0  0  3  0  0  0  0  0  0
    6.5420   -4.9720    5.8480 C   0  0  0  0  0  0  0  0  0  0  0  0
    6.9150   -6.2100    6.2080 F   0  0  0  0  0  0  0  0  0  0  0  0
    6.4290   -3.9520    6.7910 C   0  0  0  0  0  0  0  0  0  0  0  0
    7.0220   -2.5310   11.4450 C   0  0  0  0  0  0  0  0  0  0  0  0
    6.6410   -2.9200   12.7340 C   0  0  0  0  0  3  0  0  0  0  0  0
    6.7770   -2.0340   13.8040 C   0  0  0  0  0  3  0  0  0  0  0  0
    7.2940   -0.7570   13.5910 C   0  0  0  0  0  3  0  0  0  0  0  0
    7.6770   -0.3650   12.3100 C   0  0  0  0  0  3  0  0  0  0  0  0
    7.5440   -1.2500   11.2390 C   0  0  0  0  0  3  0  0  0  0  0  0
    7.6080   -7.8870   13.1980 C   0  0  0  0  0  0  0  0  0  0  0  0
    8.6620   -7.2950   12.4750 C   0  0  0  0  0  3  0  0  0  0  0  0
    8.4370   -6.2870   11.5310 C   0  0  0  0  0  3  0  0  0  0  0  0
    7.1470   -5.8120   11.2760 C   0  0  0  0  0  0  0  0  0  0  0  0
    6.0880   -6.3650   11.9950 C   0  0  0  0  0  3  0  0  0  0  0  0
    6.3180   -7.3770   12.9390 C   0  0  0  0  0  3  0  0  0  0  0  0
    7.8540   -9.0590   14.2220 C   0  0  2  0  0  0  0  0  0  0  0  0
    8.5330  -10.3710   13.7360 C   0  0  0  0  0  2  0  0  0  0  0  0
    7.6730  -11.1380   14.8030 C   0  0  1  0  0  0  0  0  0  0  0  0
    6.6520   -9.9570   14.6450 C   0  0  0  0  0  2  0  0  0  0  0  0
    8.5620   -8.4970   15.4000 N   0  0  0  0  0  4  0  0  0  0  0  0
    8.0130   -7.7700   15.8720 H   0  0  0  0  0  0  0  0  0  0  0  0
    9.4670   -8.0890   15.1410 H   0  0  0  0  0  0  0  0  0  0  0  0
    8.7480   -9.2530   16.0890 H   0  0  0  0  0  0  0  0  0  0  0  0
    7.2530  -12.5420   14.4160 C   0  0  0  0  0  3  0  0  0  0  0  0
    8.0830  -13.4410   13.5390 C   0  0  0  0  0  2  0  0  0  0  0  0
    7.8270  -13.8160   14.9730 C   0  0  0  0  0  2  0  0  0  0  0  0
    8.3000  -11.0920   16.1200 O   0  0  0  0  0  0  0  0  0  0  0  0
    7.9200  -11.8600   16.6000 H   0  0  0  0  0  0  0  0  0  0  0  0
  1  5  2  0  0  0  0
  1 24  1  0  0  0  0
  2  1  1  0  0  0  0
  3  2  2  0  0  0  0
  3  4  1  0  0  0  0
  4  5  1  0  0  0  0
  5 15  1  0  0  0  0
  6  4  1  0  0  0  0
  7  6  1  0  0  0  0
  8 14  1  0  0  0  0
  8  7  1  0  0  0  0
  9  8  2  0  0  0  0
 10 11  2  0  0  0  0
 10  9  1  0  0  0  0
 11 12  1  0  0  0  0
 12 13  1  0  0  0  0
 12 14  2  0  0  0  0
 14  3  1  0  0  0  0
 15 16  1  0  0  0  0
 16 17  2  0  0  0  0
 18 17  1  0  0  0  0
 19 18  2  0  0  0  0
 20 15  2  0  0  0  0
 20 19  1  0  0  0  0
 21 27  1  0  0  0  0
 22 21  2  0  0  0  0
 23 22  1  0  0  0  0
 24 23  2  0  0  0  0
 24 25  1  0  0  0  0
 25 26  2  0  0  0  0
 26 21  1  0  0  0  0
 27 30  1  0  0  0  0
 27 31  1  1  0  0  0
 28 27  1  0  0  0  0
 28 29  1  0  0  0  0
 29 38  1  1  0  0  0
 30 29  1  0  0  0  0
 31 32  1  0  0  0  0
 31 34  1  0  0  0  0
 33 31  1  0  0  0  0
 35 29  1  0  0  0  0
 35 37  1  0  0  0  0
 36 35  1  0  0  0  0
 36 37  1  0  0  0  0
 38 39  1  0  0  0  0
M  END
>  <minimizedAffinity>
-11.9316711

$$$$
