
 OpenBabel11232418503D

 39 45  0  0  1  0  0  0  0  0999 V2000
    8.1270   -6.5980   11.7600 C   0  0  0  0  0  0  0  0  0  0  0  0
    8.5870   -7.8200   12.2080 N   0  0  0  0  0  0  0  0  0  0  0  0
    9.0500   -7.6090   13.4170 C   0  0  0  0  0  0  0  0  0  0  0  0
    8.8830   -6.3000   13.7750 N   0  0  0  0  0  0  0  0  0  0  0  0
    8.2790   -5.6220   12.7400 C   0  0  0  0  0  0  0  0  0  0  0  0
    9.1880   -5.8430   15.1170 C   0  0  0  0  0  2  0  0  0  0  0  0
   10.2530   -6.5970   15.7360 O   0  0  0  0  0  0  0  0  0  0  0  0
   10.2640   -7.9490   15.4920 C   0  0  0  0  0  0  0  0  0  0  0  0
   10.9510   -8.7480   16.4070 C   0  0  0  0  0  3  0  0  0  0  0  0
   11.0330  -10.1260   16.2010 C   0  0  0  0  0  3  0  0  0  0  0  0
   10.4380  -10.6980   15.0770 C   0  0  0  0  0  3  0  0  0  0  0  0
    9.7720   -9.8910   14.1560 C   0  0  0  0  0  0  0  0  0  0  0  0
    9.2190  -10.4770   13.0820 F   0  0  0  0  0  0  0  0  0  0  0  0
    9.6830   -8.5140   14.3500 C   0  0  0  0  0  0  0  0  0  0  0  0
    7.8800   -4.2230   12.8100 C   0  0  0  0  0  0  0  0  0  0  0  0
    6.5970   -3.8720   13.2430 C   0  0  0  0  0  3  0  0  0  0  0  0
    6.2160   -2.5300   13.2980 C   0  0  0  0  0  3  0  0  0  0  0  0
    7.1160   -1.5340   12.9220 C   0  0  0  0  0  3  0  0  0  0  0  0
    8.3970   -1.8770   12.4940 C   0  0  0  0  0  3  0  0  0  0  0  0
    8.7800   -3.2180   12.4390 C   0  0  0  0  0  3  0  0  0  0  0  0
    6.6740   -6.2210    7.7130 C   0  0  0  0  0  0  0  0  0  0  0  0
    7.2870   -7.3950    8.1920 C   0  0  0  0  0  3  0  0  0  0  0  0
    7.7300   -7.5110    9.5150 C   0  0  0  0  0  3  0  0  0  0  0  0
    7.5650   -6.4630   10.4260 C   0  0  0  0  0  0  0  0  0  0  0  0
    6.9390   -5.2990    9.9830 C   0  0  0  0  0  3  0  0  0  0  0  0
    6.5000   -5.1850    8.6560 C   0  0  0  0  0  3  0  0  0  0  0  0
    6.2240   -6.0680    6.2100 C   0  0  2  0  0  0  0  0  0  0  0  0
    6.7310   -4.8560    5.3780 C   0  0  0  0  0  2  0  0  0  0  0  0
    5.3700   -4.9020    4.5970 C   0  0  1  0  0  0  0  0  0  0  0  0
    4.7870   -5.5490    5.9020 C   0  0  0  0  0  2  0  0  0  0  0  0
    6.5070   -7.3490    5.5150 N   0  0  0  0  0  4  0  0  0  0  0  0
    5.9920   -8.1350    5.9240 H   0  0  0  0  0  0  0  0  0  0  0  0
    7.5060   -7.5820    5.5380 H   0  0  0  0  0  0  0  0  0  0  0  0
    6.2300   -7.2720    4.5160 H   0  0  0  0  0  0  0  0  0  0  0  0
    4.8410   -3.5610    4.1290 C   0  0  0  0  0  3  0  0  0  0  0  0
    5.7090   -2.3450    3.9520 C   0  0  0  0  0  2  0  0  0  0  0  0
    5.0350   -2.9670    2.7600 C   0  0  0  0  0  2  0  0  0  0  0  0
    5.4120   -5.8860    3.5190 O   0  0  0  0  0  0  0  0  0  0  0  0
    4.7120   -5.5960    2.8950 H   0  0  0  0  0  0  0  0  0  0  0  0
  1  2  1  0  0  0  0
  1  5  2  0  0  0  0
  2  3  2  0  0  0  0
  3  4  1  0  0  0  0
  3 14  1  0  0  0  0
  4  6  1  0  0  0  0
  5 15  1  0  0  0  0
  5  4  1  0  0  0  0
  6  7  1  0  0  0  0
  8  7  1  0  0  0  0
  8  9  1  0  0  0  0
 10  9  2  0  0  0  0
 11 10  1  0  0  0  0
 12 14  1  0  0  0  0
 12 11  2  0  0  0  0
 13 12  1  0  0  0  0
 14  8  2  0  0  0  0
 15 16  1  0  0  0  0
 16 17  2  0  0  0  0
 18 17  1  0  0  0  0
 19 18  2  0  0  0  0
 20 19  1  0  0  0  0
 20 15  2  0  0  0  0
 21 22  2  0  0  0  0
 21 26  1  0  0  0  0
 22 23  1  0  0  0  0
 23 24  2  0  0  0  0
 24  1  1  0  0  0  0
 25 24  1  0  0  0  0
 26 25  2  0  0  0  0
 27 31  1  6  0  0  0
 27 21  1  0  0  0  0
 28 27  1  0  0  0  0
 29 38  1  6  0  0  0
 29 28  1  0  0  0  0
 29 30  1  0  0  0  0
 30 27  1  0  0  0  0
 31 33  1  0  0  0  0
 31 32  1  0  0  0  0
 34 31  1  0  0  0  0
 35 29  1  0  0  0  0
 36 35  1  0  0  0  0
 37 36  1  0  0  0  0
 37 35  1  0  0  0  0
 39 38  1  0  0  0  0
M  END
>  <minimizedAffinity>
-12.2272272

$$$$
