
 OpenBabel11232418503D

 39 45  0  0  1  0  0  0  0  0999 V2000
    8.3780  -10.4730   13.8600 C   0  0  0  0  0  0  0  0  0  0  0  0
    7.8010  -11.6110   13.3340 N   0  0  0  0  0  0  0  0  0  0  0  0
    8.3150  -12.6170   14.0010 C   0  0  0  0  0  0  0  0  0  0  0  0
    9.1840  -12.1670   14.9560 N   0  0  0  0  0  0  0  0  0  0  0  0
    9.2390  -10.7910   14.9040 C   0  0  0  0  0  0  0  0  0  0  0  0
    9.7790  -13.0730   15.9180 C   0  0  0  0  0  2  0  0  0  0  0  0
    9.9620  -14.4060   15.3920 O   0  0  0  0  0  0  0  0  0  0  0  0
    8.9610  -14.8840   14.5820 C   0  0  0  0  0  0  0  0  0  0  0  0
    8.8680  -16.2700   14.4480 C   0  0  0  0  0  3  0  0  0  0  0  0
    7.8960  -16.8230   13.6120 C   0  0  0  0  0  3  0  0  0  0  0  0
    7.0300  -15.9890   12.9060 C   0  0  0  0  0  3  0  0  0  0  0  0
    7.1420  -14.6040   13.0280 C   0  0  0  0  0  0  0  0  0  0  0  0
    6.2960  -13.8350   12.3260 F   0  0  0  0  0  0  0  0  0  0  0  0
    8.1080  -14.0400   13.8600 C   0  0  0  0  0  0  0  0  0  0  0  0
   10.0080   -9.9760   15.8340 C   0  0  0  0  0  0  0  0  0  0  0  0
    9.4930   -8.7640   16.3080 C   0  0  0  0  0  3  0  0  0  0  0  0
   10.2390   -7.9800   17.1910 C   0  0  0  0  0  3  0  0  0  0  0  0
   11.5010   -8.4050   17.6040 C   0  0  0  0  0  3  0  0  0  0  0  0
   12.0180   -9.6120   17.1380 C   0  0  0  0  0  3  0  0  0  0  0  0
   11.2730  -10.3980   16.2570 C   0  0  0  0  0  3  0  0  0  0  0  0
    7.5980   -6.5030   12.3550 C   0  0  0  0  0  0  0  0  0  0  0  0
    8.6750   -7.2890   11.9000 C   0  0  0  0  0  3  0  0  0  0  0  0
    8.9000   -8.5840   12.3780 C   0  0  0  0  0  3  0  0  0  0  0  0
    8.0480   -9.1620   13.3240 C   0  0  0  0  0  0  0  0  0  0  0  0
    6.9600   -8.4140   13.7740 C   0  0  0  0  0  3  0  0  0  0  0  0
    6.7400   -7.1150   13.2930 C   0  0  0  0  0  3  0  0  0  0  0  0
    7.3750   -5.0250   11.8560 C   0  0  2  0  0  0  0  0  0  0  0  0
    8.3380   -3.9010   12.3370 C   0  0  0  0  0  2  0  0  0  0  0  0
    7.1240   -2.9100   12.2500 C   0  0  1  0  0  0  0  0  0  0  0  0
    6.2320   -4.1780   12.4940 C   0  0  0  0  0  2  0  0  0  0  0  0
    7.2820   -5.0490   10.3750 N   0  0  0  0  0  4  0  0  0  0  0  0
    6.4950   -5.6200   10.0460 H   0  0  0  0  0  0  0  0  0  0  0  0
    8.1370   -5.4170    9.9450 H   0  0  0  0  0  0  0  0  0  0  0  0
    7.1450   -4.0830   10.0180 H   0  0  0  0  0  0  0  0  0  0  0  0
    7.1210   -1.7900   13.2720 C   0  0  0  0  0  3  0  0  0  0  0  0
    8.3170   -0.9190   13.5460 C   0  0  0  0  0  2  0  0  0  0  0  0
    7.0660   -0.3180   12.9650 C   0  0  0  0  0  2  0  0  0  0  0  0
    6.9400   -2.4150   10.8890 O   0  0  0  0  0  0  0  0  0  0  0  0
    6.4430   -1.5760   10.9980 H   0  0  0  0  0  0  0  0  0  0  0  0
  1  5  2  0  0  0  0
  2  1  1  0  0  0  0
  2  3  2  0  0  0  0
  3  4  1  0  0  0  0
  4  6  1  0  0  0  0
  5  4  1  0  0  0  0
  5 15  1  0  0  0  0
  7  6  1  0  0  0  0
  8  7  1  0  0  0  0
  9  8  1  0  0  0  0
 10  9  2  0  0  0  0
 11 12  2  0  0  0  0
 11 10  1  0  0  0  0
 12 14  1  0  0  0  0
 13 12  1  0  0  0  0
 14  3  1  0  0  0  0
 14  8  2  0  0  0  0
 15 20  2  0  0  0  0
 15 16  1  0  0  0  0
 16 17  2  0  0  0  0
 17 18  1  0  0  0  0
 19 18  2  0  0  0  0
 20 19  1  0  0  0  0
 21 26  1  0  0  0  0
 22 21  2  0  0  0  0
 22 23  1  0  0  0  0
 23 24  2  0  0  0  0
 24 25  1  0  0  0  0
 24  1  1  0  0  0  0
 26 25  2  0  0  0  0
 27 31  1  6  0  0  0
 27 28  1  0  0  0  0
 27 21  1  0  0  0  0
 27 30  1  0  0  0  0
 29 38  1  6  0  0  0
 29 28  1  0  0  0  0
 29 30  1  0  0  0  0
 29 35  1  0  0  0  0
 32 31  1  0  0  0  0
 33 31  1  0  0  0  0
 34 31  1  0  0  0  0
 35 36  1  0  0  0  0
 37 35  1  0  0  0  0
 37 36  1  0  0  0  0
 38 39  1  0  0  0  0
M  END
>  <minimizedAffinity>
-11.6590424

$$$$
