
 OpenBabel11232420323D

 38 42  0  0  1  0  0  0  0  0999 V2000
   -9.0530  -10.0830    9.0230 C   0  0  0  0  0  0  0  0  0  0  0  0
   -8.8700   -8.8280    9.3780 N   0  0  0  0  0  0  0  0  0  0  0  0
   -7.5190   -8.5920    9.3660 C   0  0  0  0  0  0  0  0  0  0  0  0
   -6.8530   -9.7520    9.0460 C   0  0  0  0  0  3  0  0  0  0  0  0
   -7.8300  -10.7030    8.8700 N   0  0  0  0  0  0  0  0  0  0  0  0
   -6.9400   -7.2920    9.6650 C   0  0  0  0  0  0  0  0  0  0  0  0
   -6.3120   -6.5100    8.6830 C   0  0  0  0  0  3  0  0  0  0  0  0
   -5.7710   -5.2620    9.0080 C   0  0  0  0  0  3  0  0  0  0  0  0
   -5.8550   -4.7900   10.3140 C   0  0  0  0  0  0  0  0  0  0  0  0
   -5.3280   -3.5910   10.5990 F   0  0  0  0  0  0  0  0  0  0  0  0
   -6.4790   -5.5490   11.2990 C   0  0  0  0  0  0  0  0  0  0  0  0
   -6.5850   -4.9710   12.9170 Cl  0  0  0  0  0  0  0  0  0  0  0  0
   -7.0210   -6.7950   10.9770 C   0  0  0  0  0  3  0  0  0  0  0  0
  -13.2850  -10.5310    8.7440 N   0  0  0  0  0  0  0  0  0  0  0  0
  -12.6500  -11.2550    9.8460 C   0  0  0  0  0  2  0  0  0  0  0  0
  -11.2340  -10.7390   10.0960 C   0  0  0  0  0  2  0  0  0  0  0  0
  -10.4240  -10.6680    8.7940 C   0  0  1  0  0  3  0  0  0  0  0  0
  -11.1740  -10.0090    7.6300 C   0  0  0  0  0  2  0  0  0  0  0  0
  -12.5750  -10.5930    7.4690 C   0  0  0  0  0  2  0  0  0  0  0  0
  -15.3700   -9.4030    9.2950 C   0  0  0  0  0  0  0  0  0  0  0  0
  -15.9630   -8.1740    9.5770 C   0  0  0  0  0  0  0  0  0  0  0  0
  -17.3240   -8.0340    9.7730 N   0  0  0  0  0  0  0  0  0  0  0  0
  -15.2770   -7.0260    9.6310 N   0  0  0  0  0  0  0  0  0  0  0  0
  -13.9600   -7.1260    9.4820 C   0  0  0  0  0  3  0  0  0  0  0  0
  -13.2910   -8.2300    9.1390 N   0  0  0  0  0  0  0  0  0  0  0  0
  -13.9940   -9.3770    9.0560 C   0  0  0  0  0  0  0  0  0  0  0  0
  -17.5920   -7.0770    9.9730 H   0  0  0  0  0  0  0  0  0  0  0  0
  -17.7900   -8.7350   10.3330 H   0  0  0  0  0  0  0  0  0  0  0  0
  -16.2180  -11.2090   10.8170 C   0  0  0  0  0  1  0  0  0  0  0  0
  -16.1600  -10.6860    9.3870 C   0  0  0  0  0  2  0  0  0  0  0  0
   -7.5340  -12.1040    8.6210 C   0  0  0  0  0  2  0  0  0  0  0  0
   -6.1780  -12.2470    7.9180 C   0  0  0  0  0  2  0  0  0  0  0  0
   -6.0370  -13.4660    7.0360 N   0  0  0  0  0  4  0  0  0  0  0  0
   -5.6350  -13.2350    5.5920 C   0  0  0  0  0  2  0  0  0  0  0  0
   -6.6490  -14.0200    4.7800 C   0  0  0  0  0  2  0  0  0  0  0  0
   -7.0690  -15.1430    5.7070 C   0  0  0  0  0  2  0  0  0  0  0  0
   -7.2040  -14.4380    7.0410 C   0  0  0  0  0  2  0  0  0  0  0  0
   -5.2570  -14.0000    7.4470 H   0  0  0  0  0  0  0  0  0  0  0  0
  1  2  2  0  0  0  0
  3  2  1  0  0  0  0
  3  6  1  0  0  0  0
  4  3  2  0  0  0  0
  5  1  1  0  0  0  0
  5  4  1  0  0  0  0
  6 13  1  0  0  0  0
  7  8  1  0  0  0  0
  7  6  2  0  0  0  0
  8  9  2  0  0  0  0
  9 10  1  0  0  0  0
  9 11  1  0  0  0  0
 11 12  1  0  0  0  0
 13 11  2  0  0  0  0
 14 26  1  0  0  0  0
 14 15  1  0  0  0  0
 15 16  1  0  0  0  0
 17  1  1  1  0  0  0
 17 16  1  0  0  0  0
 18 17  1  0  0  0  0
 19 18  1  0  0  0  0
 19 14  1  0  0  0  0
 20 30  1  0  0  0  0
 20 21  1  0  0  0  0
 21 23  2  0  0  0  0
 21 22  1  0  0  0  0
 22 27  1  0  0  0  0
 22 28  1  0  0  0  0
 24 23  1  0  0  0  0
 25 24  2  0  0  0  0
 26 25  1  0  0  0  0
 26 20  2  0  0  0  0
 30 29  1  0  0  0  0
 31  5  1  0  0  0  0
 32 31  1  0  0  0  0
 33 37  1  0  0  0  0
 33 38  1  0  0  0  0
 33 32  1  0  0  0  0
 34 33  1  0  0  0  0
 35 34  1  0  0  0  0
 35 36  1  0  0  0  0
 36 37  1  0  0  0  0
M  END
>  <minimizedAffinity>
-5.6750741

$$$$
