
 OpenBabel11232420323D

 38 42  0  0  1  0  0  0  0  0999 V2000
   -8.5180   -9.4750    8.9180 C   0  0  0  0  0  0  0  0  0  0  0  0
   -9.3250   -8.9070    8.0440 N   0  0  0  0  0  0  0  0  0  0  0  0
  -10.5130   -9.5900    8.0790 C   0  0  0  0  0  0  0  0  0  0  0  0
  -10.4140  -10.6400    8.9610 C   0  0  0  0  0  3  0  0  0  0  0  0
   -9.1330  -10.5860    9.4580 N   0  0  0  0  0  0  0  0  0  0  0  0
  -11.6640   -9.2170    7.2720 C   0  0  0  0  0  0  0  0  0  0  0  0
  -12.6440  -10.1480    6.8940 C   0  0  0  0  0  3  0  0  0  0  0  0
  -13.7410   -9.7500    6.1210 C   0  0  0  0  0  3  0  0  0  0  0  0
  -13.8630   -8.4220    5.7250 C   0  0  0  0  0  0  0  0  0  0  0  0
  -14.9220   -8.0680    4.9840 F   0  0  0  0  0  0  0  0  0  0  0  0
  -12.9040   -7.4850    6.0950 C   0  0  0  0  0  0  0  0  0  0  0  0
  -13.0480   -5.8410    5.6070 Cl  0  0  0  0  0  0  0  0  0  0  0  0
  -11.8090   -7.8790    6.8680 C   0  0  0  0  0  3  0  0  0  0  0  0
   -5.4100   -7.1400   10.6710 N   0  0  0  0  0  0  0  0  0  0  0  0
   -5.7020   -6.8420    9.2670 C   0  0  0  0  0  2  0  0  0  0  0  0
   -7.0480   -7.4330    8.8510 C   0  0  0  0  0  2  0  0  0  0  0  0
   -7.1620   -8.9100    9.2540 C   0  0  1  0  0  3  0  0  0  0  0  0
   -6.7310   -9.1960   10.6970 C   0  0  0  0  0  2  0  0  0  0  0  0
   -5.3770   -8.5610   11.0100 C   0  0  0  0  0  2  0  0  0  0  0  0
   -4.9700   -5.5360   12.4460 C   0  0  0  0  0  0  0  0  0  0  0  0
   -5.5490   -4.6760   13.3770 C   0  0  0  0  0  0  0  0  0  0  0  0
   -4.8000   -3.9650   14.2960 N   0  0  0  0  0  0  0  0  0  0  0  0
   -6.8710   -4.5070   13.4930 N   0  0  0  0  0  0  0  0  0  0  0  0
   -7.6210   -5.1480   12.6020 C   0  0  0  0  0  3  0  0  0  0  0  0
   -7.1890   -6.0490   11.7160 N   0  0  0  0  0  0  0  0  0  0  0  0
   -5.8570   -6.2360   11.6270 C   0  0  0  0  0  0  0  0  0  0  0  0
   -5.3730   -3.3820   14.8970 H   0  0  0  0  0  0  0  0  0  0  0  0
   -3.9470   -3.5320   13.9700 H   0  0  0  0  0  0  0  0  0  0  0  0
   -2.8400   -6.7070   13.0720 C   0  0  0  0  0  1  0  0  0  0  0  0
   -3.4720   -5.5830   12.2590 C   0  0  0  0  0  2  0  0  0  0  0  0
   -8.5880  -11.5940   10.3530 C   0  0  0  0  0  2  0  0  0  0  0  0
   -8.5050  -12.9500    9.6410 C   0  0  0  0  0  2  0  0  0  0  0  0
   -7.1870  -13.2400    8.9610 N   0  0  0  0  0  4  0  0  0  0  0  0
   -5.9880  -12.4200    9.3960 C   0  0  0  0  0  2  0  0  0  0  0  0
   -5.3830  -11.9090    8.1000 C   0  0  0  0  0  2  0  0  0  0  0  0
   -5.7670  -12.9600    7.0780 C   0  0  0  0  0  2  0  0  0  0  0  0
   -7.2050  -13.2660    7.4430 C   0  0  0  0  0  2  0  0  0  0  0  0
   -6.9590  -14.2090    9.2320 H   0  0  0  0  0  0  0  0  0  0  0  0
  1  5  1  0  0  0  0
  2  3  1  0  0  0  0
  2  1  2  0  0  0  0
  3  4  2  0  0  0  0
  4  5  1  0  0  0  0
  5 31  1  0  0  0  0
  6  3  1  0  0  0  0
  7  6  1  0  0  0  0
  8  7  2  0  0  0  0
  9 11  2  0  0  0  0
  9  8  1  0  0  0  0
 10  9  1  0  0  0  0
 11 13  1  0  0  0  0
 12 11  1  0  0  0  0
 13  6  2  0  0  0  0
 14 19  1  0  0  0  0
 14 26  1  0  0  0  0
 15 14  1  0  0  0  0
 16 17  1  0  0  0  0
 16 15  1  0  0  0  0
 17  1  1  1  0  0  0
 17 18  1  0  0  0  0
 18 19  1  0  0  0  0
 20 21  1  0  0  0  0
 21 23  2  0  0  0  0
 21 22  1  0  0  0  0
 22 27  1  0  0  0  0
 24 23  1  0  0  0  0
 25 24  2  0  0  0  0
 26 25  1  0  0  0  0
 26 20  2  0  0  0  0
 28 22  1  0  0  0  0
 30 20  1  0  0  0  0
 30 29  1  0  0  0  0
 32 31  1  0  0  0  0
 33 38  1  0  0  0  0
 33 34  1  0  0  0  0
 33 32  1  0  0  0  0
 35 34  1  0  0  0  0
 36 37  1  0  0  0  0
 36 35  1  0  0  0  0
 37 33  1  0  0  0  0
M  END
>  <minimizedAffinity>
-5.81323671

$$$$

 OpenBabel11232420323D

 38 42  0  0  1  0  0  0  0  0999 V2000
   -7.3090   -8.6280    9.0550 C   0  0  0  0  0  0  0  0  0  0  0  0
   -8.4370   -8.2330    8.5000 N   0  0  0  0  0  0  0  0  0  0  0  0
   -9.2260   -9.3440    8.3400 C   0  0  0  0  0  0  0  0  0  0  0  0
   -8.5400  -10.4590    8.7600 C   0  0  0  0  0  3  0  0  0  0  0  0
   -7.3100  -10.0030    9.1730 N   0  0  0  0  0  0  0  0  0  0  0  0
  -10.5720   -9.2850    7.7930 C   0  0  0  0  0  0  0  0  0  0  0  0
  -10.9140   -8.4190    6.7420 C   0  0  0  0  0  3  0  0  0  0  0  0
  -12.2190   -8.3940    6.2390 C   0  0  0  0  0  3  0  0  0  0  0  0
  -13.1860   -9.2350    6.7810 C   0  0  0  0  0  0  0  0  0  0  0  0
  -14.4290   -9.1910    6.2820 F   0  0  0  0  0  0  0  0  0  0  0  0
  -12.8630  -10.1040    7.8190 C   0  0  0  0  0  0  0  0  0  0  0  0
  -14.0550  -11.1450    8.4950 Cl  0  0  0  0  0  0  0  0  0  0  0  0
  -11.5610  -10.1310    8.3220 C   0  0  0  0  0  3  0  0  0  0  0  0
   -5.2040   -5.6370   11.2470 N   0  0  0  0  0  0  0  0  0  0  0  0
   -5.6710   -5.2300    9.9210 C   0  0  0  0  0  2  0  0  0  0  0  0
   -6.7190   -6.2040    9.3860 C   0  0  0  0  0  2  0  0  0  0  0  0
   -6.2460   -7.6590    9.5060 C   0  0  1  0  0  3  0  0  0  0  0  0
   -5.6530   -8.0100   10.8760 C   0  0  0  0  0  2  0  0  0  0  0  0
   -4.6210   -6.9740   11.3170 C   0  0  0  0  0  2  0  0  0  0  0  0
   -5.2380   -4.6500   13.4710 C   0  0  0  0  0  0  0  0  0  0  0  0
   -6.0520   -4.2180   14.5160 C   0  0  0  0  0  0  0  0  0  0  0  0
   -5.5390   -3.7530   15.7130 N   0  0  0  0  0  0  0  0  0  0  0  0
   -7.3880   -4.2640   14.4690 N   0  0  0  0  0  0  0  0  0  0  0  0
   -7.9180   -4.6720   13.3200 C   0  0  0  0  0  3  0  0  0  0  0  0
   -7.2460   -5.1760   12.2820 N   0  0  0  0  0  0  0  0  0  0  0  0
   -5.8990   -5.1540   12.3500 C   0  0  0  0  0  0  0  0  0  0  0  0
   -6.2640   -3.4730   16.3640 H   0  0  0  0  0  0  0  0  0  0  0  0
   -4.7410   -3.1340   15.6710 H   0  0  0  0  0  0  0  0  0  0  0  0
   -3.0360   -5.6110   14.1970 C   0  0  0  0  0  1  0  0  0  0  0  0
   -3.7420   -4.4450   13.5150 C   0  0  0  0  0  2  0  0  0  0  0  0
   -6.2390  -10.8900    9.5970 C   0  0  0  0  0  2  0  0  0  0  0  0
   -5.5360  -11.4990    8.3770 C   0  0  0  0  0  2  0  0  0  0  0  0
   -5.7180  -12.9900    8.2080 N   0  0  0  0  0  4  0  0  0  0  0  0
   -6.2500  -13.4770    6.8740 C   0  0  0  0  0  2  0  0  0  0  0  0
   -7.3960  -14.4040    7.2330 C   0  0  0  0  0  2  0  0  0  0  0  0
   -7.0220  -14.9350    8.6030 C   0  0  0  0  0  2  0  0  0  0  0  0
   -6.4930  -13.7000    9.3030 C   0  0  0  0  0  2  0  0  0  0  0  0
   -4.7650  -13.3800    8.2740 H   0  0  0  0  0  0  0  0  0  0  0  0
  1  5  1  0  0  0  0
  2  1  2  0  0  0  0
  3  2  1  0  0  0  0
  3  4  2  0  0  0  0
  4  5  1  0  0  0  0
  5 31  1  0  0  0  0
  6 13  1  0  0  0  0
  6  3  1  0  0  0  0
  7  6  2  0  0  0  0
  8  7  1  0  0  0  0
  8  9  2  0  0  0  0
  9 11  1  0  0  0  0
 10  9  1  0  0  0  0
 11 13  2  0  0  0  0
 11 12  1  0  0  0  0
 14 19  1  0  0  0  0
 14 26  1  0  0  0  0
 15 14  1  0  0  0  0
 16 17  1  0  0  0  0
 16 15  1  0  0  0  0
 17  1  1  1  0  0  0
 17 18  1  0  0  0  0
 18 19  1  0  0  0  0
 20 30  1  0  0  0  0
 20 21  1  0  0  0  0
 21 22  1  0  0  0  0
 22 27  1  0  0  0  0
 23 21  2  0  0  0  0
 24 23  1  0  0  0  0
 25 26  1  0  0  0  0
 25 24  2  0  0  0  0
 26 20  2  0  0  0  0
 28 22  1  0  0  0  0
 30 29  1  0  0  0  0
 32 31  1  0  0  0  0
 33 38  1  0  0  0  0
 33 32  1  0  0  0  0
 33 37  1  0  0  0  0
 34 35  1  0  0  0  0
 34 33  1  0  0  0  0
 35 36  1  0  0  0  0
 36 37  1  0  0  0  0
M  END
>  <minimizedAffinity>
-5.68490171

$$$$

 OpenBabel11232420323D

 38 42  0  0  1  0  0  0  0  0999 V2000
   -9.0530  -10.0830    9.0230 C   0  0  0  0  0  0  0  0  0  0  0  0
   -8.8700   -8.8280    9.3780 N   0  0  0  0  0  0  0  0  0  0  0  0
   -7.5190   -8.5920    9.3660 C   0  0  0  0  0  0  0  0  0  0  0  0
   -6.8530   -9.7520    9.0460 C   0  0  0  0  0  3  0  0  0  0  0  0
   -7.8300  -10.7030    8.8700 N   0  0  0  0  0  0  0  0  0  0  0  0
   -6.9400   -7.2920    9.6650 C   0  0  0  0  0  0  0  0  0  0  0  0
   -6.3120   -6.5100    8.6830 C   0  0  0  0  0  3  0  0  0  0  0  0
   -5.7710   -5.2620    9.0080 C   0  0  0  0  0  3  0  0  0  0  0  0
   -5.8550   -4.7900   10.3140 C   0  0  0  0  0  0  0  0  0  0  0  0
   -5.3280   -3.5910   10.5990 F   0  0  0  0  0  0  0  0  0  0  0  0
   -6.4790   -5.5490   11.2990 C   0  0  0  0  0  0  0  0  0  0  0  0
   -6.5850   -4.9710   12.9170 Cl  0  0  0  0  0  0  0  0  0  0  0  0
   -7.0210   -6.7950   10.9770 C   0  0  0  0  0  3  0  0  0  0  0  0
  -13.2850  -10.5310    8.7440 N   0  0  0  0  0  0  0  0  0  0  0  0
  -12.6500  -11.2550    9.8460 C   0  0  0  0  0  2  0  0  0  0  0  0
  -11.2340  -10.7390   10.0960 C   0  0  0  0  0  2  0  0  0  0  0  0
  -10.4240  -10.6680    8.7940 C   0  0  1  0  0  3  0  0  0  0  0  0
  -11.1740  -10.0090    7.6300 C   0  0  0  0  0  2  0  0  0  0  0  0
  -12.5750  -10.5930    7.4690 C   0  0  0  0  0  2  0  0  0  0  0  0
  -15.3700   -9.4030    9.2950 C   0  0  0  0  0  0  0  0  0  0  0  0
  -15.9630   -8.1740    9.5770 C   0  0  0  0  0  0  0  0  0  0  0  0
  -17.3240   -8.0340    9.7730 N   0  0  0  0  0  0  0  0  0  0  0  0
  -15.2770   -7.0260    9.6310 N   0  0  0  0  0  0  0  0  0  0  0  0
  -13.9600   -7.1260    9.4820 C   0  0  0  0  0  3  0  0  0  0  0  0
  -13.2910   -8.2300    9.1390 N   0  0  0  0  0  0  0  0  0  0  0  0
  -13.9940   -9.3770    9.0560 C   0  0  0  0  0  0  0  0  0  0  0  0
  -17.5920   -7.0770    9.9730 H   0  0  0  0  0  0  0  0  0  0  0  0
  -17.7900   -8.7350   10.3330 H   0  0  0  0  0  0  0  0  0  0  0  0
  -16.2180  -11.2090   10.8170 C   0  0  0  0  0  1  0  0  0  0  0  0
  -16.1600  -10.6860    9.3870 C   0  0  0  0  0  2  0  0  0  0  0  0
   -7.5340  -12.1040    8.6210 C   0  0  0  0  0  2  0  0  0  0  0  0
   -6.1780  -12.2470    7.9180 C   0  0  0  0  0  2  0  0  0  0  0  0
   -6.0370  -13.4660    7.0360 N   0  0  0  0  0  4  0  0  0  0  0  0
   -5.6350  -13.2350    5.5920 C   0  0  0  0  0  2  0  0  0  0  0  0
   -6.6490  -14.0200    4.7800 C   0  0  0  0  0  2  0  0  0  0  0  0
   -7.0690  -15.1430    5.7070 C   0  0  0  0  0  2  0  0  0  0  0  0
   -7.2040  -14.4380    7.0410 C   0  0  0  0  0  2  0  0  0  0  0  0
   -5.2570  -14.0000    7.4470 H   0  0  0  0  0  0  0  0  0  0  0  0
  1  2  2  0  0  0  0
  3  2  1  0  0  0  0
  3  6  1  0  0  0  0
  4  3  2  0  0  0  0
  5  1  1  0  0  0  0
  5  4  1  0  0  0  0
  6 13  1  0  0  0  0
  7  8  1  0  0  0  0
  7  6  2  0  0  0  0
  8  9  2  0  0  0  0
  9 10  1  0  0  0  0
  9 11  1  0  0  0  0
 11 12  1  0  0  0  0
 13 11  2  0  0  0  0
 14 26  1  0  0  0  0
 14 15  1  0  0  0  0
 15 16  1  0  0  0  0
 17  1  1  1  0  0  0
 17 16  1  0  0  0  0
 18 17  1  0  0  0  0
 19 18  1  0  0  0  0
 19 14  1  0  0  0  0
 20 30  1  0  0  0  0
 20 21  1  0  0  0  0
 21 23  2  0  0  0  0
 21 22  1  0  0  0  0
 22 27  1  0  0  0  0
 22 28  1  0  0  0  0
 24 23  1  0  0  0  0
 25 24  2  0  0  0  0
 26 25  1  0  0  0  0
 26 20  2  0  0  0  0
 30 29  1  0  0  0  0
 31  5  1  0  0  0  0
 32 31  1  0  0  0  0
 33 37  1  0  0  0  0
 33 38  1  0  0  0  0
 33 32  1  0  0  0  0
 34 33  1  0  0  0  0
 35 34  1  0  0  0  0
 35 36  1  0  0  0  0
 36 37  1  0  0  0  0
M  END
>  <minimizedAffinity>
-5.6750741

$$$$

 OpenBabel11232420323D

 38 42  0  0  1  0  0  0  0  0999 V2000
   -8.3810   -8.9960    9.2430 C   0  0  0  0  0  0  0  0  0  0  0  0
   -9.3340   -8.7400    8.3690 N   0  0  0  0  0  0  0  0  0  0  0  0
  -10.1850   -9.8150    8.3650 C   0  0  0  0  0  0  0  0  0  0  0  0
   -9.7100  -10.7800    9.2220 C   0  0  0  0  0  3  0  0  0  0  0  0
   -8.5440  -10.2720    9.7430 N   0  0  0  0  0  0  0  0  0  0  0  0
  -11.3860   -9.8700    7.5480 C   0  0  0  0  0  0  0  0  0  0  0  0
  -12.2990  -10.9340    7.6320 C   0  0  0  0  0  3  0  0  0  0  0  0
  -13.4470  -10.9490    6.8330 C   0  0  0  0  0  3  0  0  0  0  0  0
  -13.6890   -9.9020    5.9480 C   0  0  0  0  0  0  0  0  0  0  0  0
  -14.7950   -9.9420    5.1930 F   0  0  0  0  0  0  0  0  0  0  0  0
  -12.7980   -8.8380    5.8560 C   0  0  0  0  0  0  0  0  0  0  0  0
  -13.0900   -7.5410    4.7620 Cl  0  0  0  0  0  0  0  0  0  0  0  0
  -11.6520   -8.8190    6.6530 C   0  0  0  0  0  3  0  0  0  0  0  0
   -5.1060   -7.0580   11.1670 N   0  0  0  0  0  0  0  0  0  0  0  0
   -6.4250   -6.4910   11.4530 C   0  0  0  0  0  2  0  0  0  0  0  0
   -7.5360   -7.4580   11.0480 C   0  0  0  0  0  2  0  0  0  0  0  0
   -7.3320   -7.9800    9.6180 C   0  0  1  0  0  3  0  0  0  0  0  0
   -5.9030   -8.4520    9.3260 C   0  0  0  0  0  2  0  0  0  0  0  0
   -4.8730   -7.4160    9.7710 C   0  0  0  0  0  2  0  0  0  0  0  0
   -3.3330   -7.4090   12.7970 C   0  0  0  0  0  0  0  0  0  0  0  0
   -2.8230   -8.2770   13.7600 C   0  0  0  0  0  0  0  0  0  0  0  0
   -1.6380   -8.0320   14.4270 N   0  0  0  0  0  0  0  0  0  0  0  0
   -3.4070   -9.4380   14.0800 N   0  0  0  0  0  0  0  0  0  0  0  0
   -4.5680   -9.6910   13.4840 C   0  0  0  0  0  3  0  0  0  0  0  0
   -5.1170   -8.9750   12.4990 N   0  0  0  0  0  0  0  0  0  0  0  0
   -4.5060   -7.8220   12.1610 C   0  0  0  0  0  0  0  0  0  0  0  0
   -1.4110   -8.7580   15.0980 H   0  0  0  0  0  0  0  0  0  0  0  0
   -1.4670   -7.0880   14.7460 H   0  0  0  0  0  0  0  0  0  0  0  0
   -3.3790   -4.9840   13.4410 C   0  0  0  0  0  1  0  0  0  0  0  0
   -2.7180   -6.0480   12.5740 C   0  0  0  0  0  2  0  0  0  0  0  0
   -7.6710  -11.0330   10.6210 C   0  0  0  0  0  2  0  0  0  0  0  0
   -7.8620  -12.5370   10.3890 C   0  0  0  0  0  2  0  0  0  0  0  0
   -6.9290  -13.1540    9.3720 N   0  0  0  0  0  4  0  0  0  0  0  0
   -5.6940  -12.3590    8.9920 C   0  0  0  0  0  2  0  0  0  0  0  0
   -5.6990  -12.3450    7.4740 C   0  0  0  0  0  2  0  0  0  0  0  0
   -6.4240  -13.6210    7.0990 C   0  0  0  0  0  2  0  0  0  0  0  0
   -7.5690  -13.6550    8.0900 C   0  0  0  0  0  2  0  0  0  0  0  0
   -6.5680  -14.0050    9.8280 H   0  0  0  0  0  0  0  0  0  0  0  0
  1  5  1  0  0  0  0
  2  1  2  0  0  0  0
  3  2  1  0  0  0  0
  3  4  2  0  0  0  0
  4  5  1  0  0  0  0
  5 31  1  0  0  0  0
  6  7  1  0  0  0  0
  6  3  1  0  0  0  0
  8  7  2  0  0  0  0
  9  8  1  0  0  0  0
 10  9  1  0  0  0  0
 11  9  2  0  0  0  0
 11 13  1  0  0  0  0
 12 11  1  0  0  0  0
 13  6  2  0  0  0  0
 14 15  1  0  0  0  0
 14 26  1  0  0  0  0
 16 15  1  0  0  0  0
 17  1  1  1  0  0  0
 17 16  1  0  0  0  0
 18 17  1  0  0  0  0
 18 19  1  0  0  0  0
 19 14  1  0  0  0  0
 20 21  1  0  0  0  0
 21 23  2  0  0  0  0
 21 22  1  0  0  0  0
 22 28  1  0  0  0  0
 22 27  1  0  0  0  0
 24 23  1  0  0  0  0
 25 24  2  0  0  0  0
 26 25  1  0  0  0  0
 26 20  2  0  0  0  0
 30 20  1  0  0  0  0
 30 29  1  0  0  0  0
 32 31  1  0  0  0  0
 33 38  1  0  0  0  0
 33 32  1  0  0  0  0
 34 33  1  0  0  0  0
 35 34  1  0  0  0  0
 36 35  1  0  0  0  0
 36 37  1  0  0  0  0
 37 33  1  0  0  0  0
M  END
>  <minimizedAffinity>
-5.5409255

$$$$

 OpenBabel11232420323D

 38 42  0  0  1  0  0  0  0  0999 V2000
   -5.1250   -8.2520   11.5400 C   0  0  0  0  0  0  0  0  0  0  0  0
   -5.4840   -9.4810   11.2310 N   0  0  0  0  0  0  0  0  0  0  0  0
   -5.8270   -9.4850    9.9030 C   0  0  0  0  0  0  0  0  0  0  0  0
   -5.7260   -8.2110    9.3980 C   0  0  0  0  0  3  0  0  0  0  0  0
   -5.3200   -7.4260   10.4520 N   0  0  0  0  0  0  0  0  0  0  0  0
   -6.2380  -10.6880    9.1960 C   0  0  0  0  0  0  0  0  0  0  0  0
   -5.3810  -11.3640    8.3130 C   0  0  0  0  0  3  0  0  0  0  0  0
   -5.8090  -12.5210    7.6540 C   0  0  0  0  0  3  0  0  0  0  0  0
   -7.0940  -13.0080    7.8750 C   0  0  0  0  0  0  0  0  0  0  0  0
   -7.4800  -14.1170    7.2300 F   0  0  0  0  0  0  0  0  0  0  0  0
   -7.9550  -12.3530    8.7500 C   0  0  0  0  0  0  0  0  0  0  0  0
   -9.5460  -12.9490    9.0260 Cl  0  0  0  0  0  0  0  0  0  0  0  0
   -7.5290  -11.1990    9.4100 C   0  0  0  0  0  3  0  0  0  0  0  0
   -2.8510   -8.3450   15.1470 N   0  0  0  0  0  0  0  0  0  0  0  0
   -4.2850   -8.5980   15.3030 C   0  0  0  0  0  2  0  0  0  0  0  0
   -4.9330   -8.9230   13.9590 C   0  0  0  0  0  2  0  0  0  0  0  0
   -4.5540   -7.8910   12.8880 C   0  0  1  0  0  3  0  0  0  0  0  0
   -3.0560   -7.5660   12.8400 C   0  0  0  0  0  2  0  0  0  0  0  0
   -2.5080   -7.2590   14.2320 C   0  0  0  0  0  2  0  0  0  0  0  0
   -0.8330   -9.3870   16.0190 C   0  0  0  0  0  0  0  0  0  0  0  0
   -0.0480  -10.5380   16.0120 C   0  0  0  0  0  0  0  0  0  0  0  0
    1.1580  -10.6190   16.6830 N   0  0  0  0  0  0  0  0  0  0  0  0
   -0.3680  -11.6370   15.3180 N   0  0  0  0  0  0  0  0  0  0  0  0
   -1.5380  -11.6090   14.6880 C   0  0  0  0  0  3  0  0  0  0  0  0
   -2.3370  -10.5460   14.5640 N   0  0  0  0  0  0  0  0  0  0  0  0
   -1.9920   -9.4330   15.2420 C   0  0  0  0  0  0  0  0  0  0  0  0
    1.6000  -11.5250   16.5800 H   0  0  0  0  0  0  0  0  0  0  0  0
    1.2030  -10.2240   17.6120 H   0  0  0  0  0  0  0  0  0  0  0  0
    0.4510   -7.2460   16.2640 C   0  0  0  0  0  1  0  0  0  0  0  0
   -0.5040   -8.2290   16.9300 C   0  0  0  0  0  2  0  0  0  0  0  0
   -5.1940   -5.9810   10.3600 C   0  0  0  0  0  2  0  0  0  0  0  0
   -6.5520   -5.3110   10.6060 C   0  0  0  0  0  2  0  0  0  0  0  0
   -6.6750   -4.5700   11.9180 N   0  0  0  0  0  4  0  0  0  0  0  0
   -5.4090   -4.3910   12.7340 C   0  0  0  0  0  2  0  0  0  0  0  0
   -5.7830   -4.8570   14.1300 C   0  0  0  0  0  2  0  0  0  0  0  0
   -7.2730   -4.5930   14.2160 C   0  0  0  0  0  2  0  0  0  0  0  0
   -7.7690   -5.0440   12.8580 C   0  0  0  0  0  2  0  0  0  0  0  0
   -6.9590   -3.6140   11.6550 H   0  0  0  0  0  0  0  0  0  0  0  0
  2  1  2  0  0  0  0
  3  2  1  0  0  0  0
  4  3  2  0  0  0  0
  4  5  1  0  0  0  0
  5  1  1  0  0  0  0
  6 13  1  0  0  0  0
  6  3  1  0  0  0  0
  7  6  2  0  0  0  0
  8  9  2  0  0  0  0
  8  7  1  0  0  0  0
  9 11  1  0  0  0  0
 10  9  1  0  0  0  0
 11 12  1  0  0  0  0
 11 13  2  0  0  0  0
 14 26  1  0  0  0  0
 14 15  1  0  0  0  0
 16 15  1  0  0  0  0
 17  1  1  6  0  0  0
 17 16  1  0  0  0  0
 18 17  1  0  0  0  0
 18 19  1  0  0  0  0
 19 14  1  0  0  0  0
 20 30  1  0  0  0  0
 21 20  1  0  0  0  0
 21 22  1  0  0  0  0
 22 28  1  0  0  0  0
 23 21  2  0  0  0  0
 24 23  1  0  0  0  0
 25 24  2  0  0  0  0
 25 26  1  0  0  0  0
 26 20  2  0  0  0  0
 27 22  1  0  0  0  0
 29 30  1  0  0  0  0
 31  5  1  0  0  0  0
 31 32  1  0  0  0  0
 32 33  1  0  0  0  0
 33 34  1  0  0  0  0
 33 37  1  0  0  0  0
 34 35  1  0  0  0  0
 35 36  1  0  0  0  0
 37 36  1  0  0  0  0
 38 33  1  0  0  0  0
M  END
>  <minimizedAffinity>
-5.44749832

$$$$

 OpenBabel11232420323D

 38 42  0  0  1  0  0  0  0  0999 V2000
   -4.3720   -6.9070   12.3140 C   0  0  0  0  0  0  0  0  0  0  0  0
   -3.4150   -7.7970   12.4830 N   0  0  0  0  0  0  0  0  0  0  0  0
   -2.5390   -7.2860   13.4060 C   0  0  0  0  0  0  0  0  0  0  0  0
   -2.9430   -6.0240   13.7740 C   0  0  0  0  0  3  0  0  0  0  0  0
   -4.0830   -5.7740   13.0460 N   0  0  0  0  0  0  0  0  0  0  0  0
   -1.3730   -8.0150   13.8780 C   0  0  0  0  0  0  0  0  0  0  0  0
   -0.0840   -7.7660   13.3780 C   0  0  0  0  0  3  0  0  0  0  0  0
    1.0150   -8.4840   13.8600 C   0  0  0  0  0  3  0  0  0  0  0  0
    0.8330   -9.4530   14.8420 C   0  0  0  0  0  0  0  0  0  0  0  0
    1.9020  -10.1280   15.2850 F   0  0  0  0  0  0  0  0  0  0  0  0
   -0.4360   -9.7090   15.3520 C   0  0  0  0  0  0  0  0  0  0  0  0
   -0.6690  -10.9080   16.5650 Cl  0  0  0  0  0  0  0  0  0  0  0  0
   -1.5350   -8.9930   14.8730 C   0  0  0  0  0  3  0  0  0  0  0  0
   -7.1360   -8.7620    9.6480 N   0  0  0  0  0  0  0  0  0  0  0  0
   -6.4620   -7.5730    9.1240 C   0  0  0  0  0  2  0  0  0  0  0  0
   -5.2420   -7.2170    9.9720 C   0  0  0  0  0  2  0  0  0  0  0  0
   -5.5900   -7.1780   11.4670 C   0  0  1  0  0  3  0  0  0  0  0  0
   -6.4010   -8.3870   11.9480 C   0  0  0  0  0  2  0  0  0  0  0  0
   -7.5930   -8.6570   11.0320 C   0  0  0  0  0  2  0  0  0  0  0  0
   -7.6270  -11.0160    8.8760 C   0  0  0  0  0  0  0  0  0  0  0  0
   -7.0750  -12.2160    8.4310 C   0  0  0  0  0  0  0  0  0  0  0  0
   -7.8450  -13.3300    8.1560 N   0  0  0  0  0  0  0  0  0  0  0  0
   -5.7590  -12.4050    8.2830 N   0  0  0  0  0  0  0  0  0  0  0  0
   -4.9880  -11.3440    8.5050 C   0  0  0  0  0  3  0  0  0  0  0  0
   -5.3920  -10.1720    9.0010 N   0  0  0  0  0  0  0  0  0  0  0  0
   -6.7180  -10.0000    9.1760 C   0  0  0  0  0  0  0  0  0  0  0  0
   -7.2910  -14.1170    7.8380 H   0  0  0  0  0  0  0  0  0  0  0  0
   -8.7110  -13.1880    7.6540 H   0  0  0  0  0  0  0  0  0  0  0  0
   -9.7530  -11.3450   10.1670 C   0  0  0  0  0  1  0  0  0  0  0  0
   -9.1220  -10.8070    8.8890 C   0  0  0  0  0  2  0  0  0  0  0  0
   -4.7690   -4.4920   13.0660 C   0  0  0  0  0  2  0  0  0  0  0  0
   -5.5210   -4.3110   14.3910 C   0  0  0  0  0  2  0  0  0  0  0  0
   -7.0160   -4.5190   14.3160 N   0  0  0  0  0  4  0  0  0  0  0  0
   -7.5990   -5.6570   15.1310 C   0  0  0  0  0  2  0  0  0  0  0  0
   -8.4660   -6.4260   14.1500 C   0  0  0  0  0  2  0  0  0  0  0  0
   -8.8900   -5.3800   13.1390 C   0  0  0  0  0  2  0  0  0  0  0  0
   -7.6150   -4.5920   12.9220 C   0  0  0  0  0  2  0  0  0  0  0  0
   -7.4210   -3.6640   14.7250 H   0  0  0  0  0  0  0  0  0  0  0  0
  1  2  2  0  0  0  0
  1  5  1  0  0  0  0
  2  3  1  0  0  0  0
  3  4  2  0  0  0  0
  3  6  1  0  0  0  0
  5 31  1  0  0  0  0
  5  4  1  0  0  0  0
  6 13  1  0  0  0  0
  7  8  1  0  0  0  0
  7  6  2  0  0  0  0
  8  9  2  0  0  0  0
  9 10  1  0  0  0  0
  9 11  1  0  0  0  0
 11 12  1  0  0  0  0
 13 11  2  0  0  0  0
 14 19  1  0  0  0  0
 15 14  1  0  0  0  0
 15 16  1  0  0  0  0
 16 17  1  0  0  0  0
 17 18  1  0  0  0  0
 17  1  1  1  0  0  0
 19 18  1  0  0  0  0
 20 30  1  0  0  0  0
 20 26  1  0  0  0  0
 21 20  2  0  0  0  0
 22 21  1  0  0  0  0
 23 21  1  0  0  0  0
 23 24  2  0  0  0  0
 24 25  1  0  0  0  0
 25 26  2  0  0  0  0
 26 14  1  0  0  0  0
 27 22  1  0  0  0  0
 28 22  1  0  0  0  0
 30 29  1  0  0  0  0
 31 32  1  0  0  0  0
 33 32  1  0  0  0  0
 33 38  1  0  0  0  0
 33 34  1  0  0  0  0
 35 34  1  0  0  0  0
 36 35  1  0  0  0  0
 37 36  1  0  0  0  0
 37 33  1  0  0  0  0
M  END
>  <minimizedAffinity>
-5.38386059

$$$$

 OpenBabel11232420323D

 38 42  0  0  1  0  0  0  0  0999 V2000
   -9.2270   -9.5650    8.5170 C   0  0  0  0  0  0  0  0  0  0  0  0
   -9.8320   -8.6420    7.7960 N   0  0  0  0  0  0  0  0  0  0  0  0
  -11.1120   -9.0760    7.5660 C   0  0  0  0  0  0  0  0  0  0  0  0
  -11.2810  -10.3240    8.1190 C   0  0  0  0  0  3  0  0  0  0  0  0
  -10.0700  -10.6450    8.6840 N   0  0  0  0  0  0  0  0  0  0  0  0
  -12.0940   -8.2910    6.8350 C   0  0  0  0  0  0  0  0  0  0  0  0
  -11.9420   -6.9110    6.6270 C   0  0  0  0  0  3  0  0  0  0  0  0
  -12.9050   -6.1900    5.9130 C   0  0  0  0  0  3  0  0  0  0  0  0
  -14.0220   -6.8440    5.4040 C   0  0  0  0  0  0  0  0  0  0  0  0
  -14.9310   -6.1300    4.7250 F   0  0  0  0  0  0  0  0  0  0  0  0
  -14.1860   -8.2120    5.5960 C   0  0  0  0  0  0  0  0  0  0  0  0
  -15.5670   -9.0270    4.9700 Cl  0  0  0  0  0  0  0  0  0  0  0  0
  -13.2260   -8.9340    6.3070 C   0  0  0  0  0  3  0  0  0  0  0  0
   -5.8950   -8.0040   10.6720 N   0  0  0  0  0  0  0  0  0  0  0  0
   -5.8350   -7.8370    9.2180 C   0  0  0  0  0  2  0  0  0  0  0  0
   -7.2060   -8.0660    8.5840 C   0  0  0  0  0  2  0  0  0  0  0  0
   -7.8410   -9.3740    9.0780 C   0  0  1  0  0  3  0  0  0  0  0  0
   -7.7740   -9.5630   10.5980 C   0  0  0  0  0  2  0  0  0  0  0  0
   -6.3650   -9.3090   11.1290 C   0  0  0  0  0  2  0  0  0  0  0  0
   -5.1980   -6.1420   12.0750 C   0  0  0  0  0  0  0  0  0  0  0  0
   -5.6350   -5.0530   12.8270 C   0  0  0  0  0  0  0  0  0  0  0  0
   -4.7710   -4.2660   13.5650 N   0  0  0  0  0  0  0  0  0  0  0  0
   -6.9240   -4.7110   12.9370 N   0  0  0  0  0  0  0  0  0  0  0  0
   -7.7810   -5.4230   12.2130 C   0  0  0  0  0  3  0  0  0  0  0  0
   -7.4920   -6.5260   11.5170 N   0  0  0  0  0  0  0  0  0  0  0  0
   -6.1950   -6.8820   11.4360 C   0  0  0  0  0  0  0  0  0  0  0  0
   -5.2480   -3.5140   14.0490 H   0  0  0  0  0  0  0  0  0  0  0  0
   -3.8910   -4.0100   13.1380 H   0  0  0  0  0  0  0  0  0  0  0  0
   -3.1680   -7.3530   12.9170 C   0  0  0  0  0  1  0  0  0  0  0  0
   -3.7250   -6.4010   11.8660 C   0  0  0  0  0  2  0  0  0  0  0  0
   -9.7950  -11.9400    9.2850 C   0  0  0  0  0  2  0  0  0  0  0  0
   -8.6170  -12.6190    8.5750 C   0  0  0  0  0  2  0  0  0  0  0  0
   -7.7130  -13.4360    9.4690 N   0  0  0  0  0  4  0  0  0  0  0  0
   -7.9270  -13.3180   10.9660 C   0  0  0  0  0  2  0  0  0  0  0  0
   -6.5450  -13.0450   11.5310 C   0  0  0  0  0  2  0  0  0  0  0  0
   -5.6070  -13.6990   10.5350 C   0  0  0  0  0  2  0  0  0  0  0  0
   -6.2220  -13.3220    9.2040 C   0  0  0  0  0  2  0  0  0  0  0  0
   -7.9390  -14.4170    9.2450 H   0  0  0  0  0  0  0  0  0  0  0  0
  1  5  1  0  0  0  0
  2  1  2  0  0  0  0
  3  2  1  0  0  0  0
  3  4  2  0  0  0  0
  4  5  1  0  0  0  0
  5 31  1  0  0  0  0
  6  3  1  0  0  0  0
  7  6  1  0  0  0  0
  8  7  2  0  0  0  0
  9 11  2  0  0  0  0
  9  8  1  0  0  0  0
 10  9  1  0  0  0  0
 11 13  1  0  0  0  0
 12 11  1  0  0  0  0
 13  6  2  0  0  0  0
 14 19  1  0  0  0  0
 14 26  1  0  0  0  0
 15 14  1  0  0  0  0
 16 17  1  0  0  0  0
 16 15  1  0  0  0  0
 17  1  1  1  0  0  0
 17 18  1  0  0  0  0
 18 19  1  0  0  0  0
 20 21  1  0  0  0  0
 21 23  2  0  0  0  0
 21 22  1  0  0  0  0
 22 27  1  0  0  0  0
 24 23  1  0  0  0  0
 25 24  2  0  0  0  0
 26 25  1  0  0  0  0
 26 20  2  0  0  0  0
 28 22  1  0  0  0  0
 30 20  1  0  0  0  0
 30 29  1  0  0  0  0
 32 31  1  0  0  0  0
 32 33  1  0  0  0  0
 33 34  1  0  0  0  0
 34 35  1  0  0  0  0
 36 35  1  0  0  0  0
 37 33  1  0  0  0  0
 37 36  1  0  0  0  0
 38 33  1  0  0  0  0
M  END
>  <minimizedAffinity>
-5.32958889

$$$$

 OpenBabel11232420323D

 38 42  0  0  1  0  0  0  0  0999 V2000
   -7.2710  -11.2440    9.0150 C   0  0  0  0  0  0  0  0  0  0  0  0
   -6.8070  -12.1170    8.1430 N   0  0  0  0  0  0  0  0  0  0  0  0
   -7.6270  -13.2150    8.1880 C   0  0  0  0  0  0  0  0  0  0  0  0
   -8.5900  -13.0310    9.1520 C   0  0  0  0  0  3  0  0  0  0  0  0
   -8.3330  -11.7970    9.7010 N   0  0  0  0  0  0  0  0  0  0  0  0
   -7.4470  -14.3720    7.3260 C   0  0  0  0  0  0  0  0  0  0  0  0
   -8.4340  -15.3620    7.1880 C   0  0  0  0  0  3  0  0  0  0  0  0
   -8.2270  -16.4580    6.3440 C   0  0  0  0  0  3  0  0  0  0  0  0
   -7.0350  -16.5710    5.6360 C   0  0  0  0  0  0  0  0  0  0  0  0
   -6.8610  -17.6320    4.8360 F   0  0  0  0  0  0  0  0  0  0  0  0
   -6.0480  -15.5980    5.7570 C   0  0  0  0  0  0  0  0  0  0  0  0
   -4.5710  -15.7320    4.8840 Cl  0  0  0  0  0  0  0  0  0  0  0  0
   -6.2530  -14.5010    6.5970 C   0  0  0  0  0  3  0  0  0  0  0  0
   -6.6140   -7.2290   10.2930 N   0  0  0  0  0  0  0  0  0  0  0  0
   -7.1660   -7.3750    8.9440 C   0  0  0  0  0  2  0  0  0  0  0  0
   -7.7170   -8.7830    8.7290 C   0  0  0  0  0  2  0  0  0  0  0  0
   -6.7010   -9.8550    9.1500 C   0  0  1  0  0  3  0  0  0  0  0  0
   -6.0580   -9.5980   10.5180 C   0  0  0  0  0  2  0  0  0  0  0  0
   -5.5440   -8.1640   10.6310 C   0  0  0  0  0  2  0  0  0  0  0  0
   -7.3080   -5.5870   11.9490 C   0  0  0  0  0  0  0  0  0  0  0  0
   -8.2290   -5.2980   12.9530 C   0  0  0  0  0  0  0  0  0  0  0  0
   -8.1510   -4.1530   13.7250 N   0  0  0  0  0  0  0  0  0  0  0  0
   -9.2290   -6.1210   13.2880 N   0  0  0  0  0  0  0  0  0  0  0  0
   -9.3570   -7.2160   12.5440 C   0  0  0  0  0  3  0  0  0  0  0  0
   -8.5000   -7.6330   11.6090 N   0  0  0  0  0  0  0  0  0  0  0  0
   -7.4770   -6.8110   11.2990 C   0  0  0  0  0  0  0  0  0  0  0  0
   -8.8990   -4.0920   14.4060 H   0  0  0  0  0  0  0  0  0  0  0  0
   -7.9290   -3.2860   13.2540 H   0  0  0  0  0  0  0  0  0  0  0  0
   -4.9640   -4.7420   12.2490 C   0  0  0  0  0  1  0  0  0  0  0  0
   -6.2870   -4.5630   11.5130 C   0  0  0  0  0  2  0  0  0  0  0  0
   -9.0680  -11.2670   10.8370 C   0  0  0  0  0  2  0  0  0  0  0  0
  -10.5640  -11.1760   10.5090 C   0  0  0  0  0  2  0  0  0  0  0  0
  -10.9840   -9.9280    9.7680 N   0  0  0  0  0  4  0  0  0  0  0  0
  -12.1130   -9.1120   10.3680 C   0  0  0  0  0  2  0  0  0  0  0  0
  -13.0820   -8.8930    9.2200 C   0  0  0  0  0  2  0  0  0  0  0  0
  -12.2010   -8.9350    7.9860 C   0  0  0  0  0  2  0  0  0  0  0  0
  -11.2680  -10.0900    8.2850 C   0  0  0  0  0  2  0  0  0  0  0  0
  -10.1590   -9.3100    9.8050 H   0  0  0  0  0  0  0  0  0  0  0  0
  1  5  1  0  0  0  0
  2  3  1  0  0  0  0
  2  1  2  0  0  0  0
  3  4  2  0  0  0  0
  4  5  1  0  0  0  0
  5 31  1  0  0  0  0
  6  3  1  0  0  0  0
  7  6  1  0  0  0  0
  8  7  2  0  0  0  0
  9 11  2  0  0  0  0
  9  8  1  0  0  0  0
 10  9  1  0  0  0  0
 11 13  1  0  0  0  0
 12 11  1  0  0  0  0
 13  6  2  0  0  0  0
 14 19  1  0  0  0  0
 14 26  1  0  0  0  0
 15 14  1  0  0  0  0
 16 15  1  0  0  0  0
 16 17  1  0  0  0  0
 17  1  1  1  0  0  0
 17 18  1  0  0  0  0
 18 19  1  0  0  0  0
 20 21  1  0  0  0  0
 21 23  2  0  0  0  0
 21 22  1  0  0  0  0
 22 27  1  0  0  0  0
 24 23  1  0  0  0  0
 25 24  2  0  0  0  0
 26 25  1  0  0  0  0
 26 20  2  0  0  0  0
 28 22  1  0  0  0  0
 30 20  1  0  0  0  0
 30 29  1  0  0  0  0
 32 31  1  0  0  0  0
 33 38  1  0  0  0  0
 33 34  1  0  0  0  0
 33 32  1  0  0  0  0
 35 34  1  0  0  0  0
 36 37  1  0  0  0  0
 36 35  1  0  0  0  0
 37 33  1  0  0  0  0
M  END
>  <minimizedAffinity>
-5.24352932

$$$$

 OpenBabel11232420323D

 38 42  0  0  1  0  0  0  0  0999 V2000
   -6.4900  -11.9050   11.3910 C   0  0  0  0  0  0  0  0  0  0  0  0
   -5.9620  -10.6970   11.3960 N   0  0  0  0  0  0  0  0  0  0  0  0
   -6.5990   -9.9680   10.4250 C   0  0  0  0  0  0  0  0  0  0  0  0
   -7.5060  -10.7670    9.7700 C   0  0  0  0  0  3  0  0  0  0  0  0
   -7.4020  -12.0050   10.3600 N   0  0  0  0  0  0  0  0  0  0  0  0
   -6.3070   -8.5670   10.1680 C   0  0  0  0  0  0  0  0  0  0  0  0
   -6.9020   -7.8610    9.1100 C   0  0  0  0  0  3  0  0  0  0  0  0
   -6.5990   -6.5120    8.8980 C   0  0  0  0  0  3  0  0  0  0  0  0
   -5.7030   -5.8630    9.7410 C   0  0  0  0  0  0  0  0  0  0  0  0
   -5.4290   -4.5710    9.5140 F   0  0  0  0  0  0  0  0  0  0  0  0
   -5.1070   -6.5450   10.7960 C   0  0  0  0  0  0  0  0  0  0  0  0
   -3.9960   -5.7480   11.8410 Cl  0  0  0  0  0  0  0  0  0  0  0  0
   -5.4090   -7.8920   11.0120 C   0  0  0  0  0  3  0  0  0  0  0  0
   -4.2740  -14.5800   13.8640 N   0  0  0  0  0  0  0  0  0  0  0  0
   -5.0760  -15.2140   12.8160 C   0  0  0  0  0  2  0  0  0  0  0  0
   -5.5110  -14.1930   11.7670 C   0  0  0  0  0  2  0  0  0  0  0  0
   -6.1330  -12.9490   12.4180 C   0  0  1  0  0  3  0  0  0  0  0  0
   -5.3190  -12.3880   13.5900 C   0  0  0  0  0  2  0  0  0  0  0  0
   -4.9330  -13.4880   14.5770 C   0  0  0  0  0  2  0  0  0  0  0  0
   -1.9990  -14.9190   14.6600 C   0  0  0  0  0  0  0  0  0  0  0  0
   -0.6480  -14.7830   14.3470 C   0  0  0  0  0  0  0  0  0  0  0  0
    0.3560  -15.0820   15.2490 N   0  0  0  0  0  0  0  0  0  0  0  0
   -0.2130  -14.3060   13.1750 N   0  0  0  0  0  0  0  0  0  0  0  0
   -1.1500  -14.0400   12.2700 C   0  0  0  0  0  3  0  0  0  0  0  0
   -2.4690  -14.0620   12.4760 N   0  0  0  0  0  0  0  0  0  0  0  0
   -2.8990  -14.5150   13.6710 C   0  0  0  0  0  0  0  0  0  0  0  0
    1.2820  -14.9340   14.8630 H   0  0  0  0  0  0  0  0  0  0  0  0
    0.2530  -15.9220   15.8020 H   0  0  0  0  0  0  0  0  0  0  0  0
   -2.5520  -14.6000   17.0870 C   0  0  0  0  0  1  0  0  0  0  0  0
   -2.4370  -15.5940   15.9380 C   0  0  0  0  0  2  0  0  0  0  0  0
   -8.1260  -13.1720    9.8840 C   0  0  0  0  0  2  0  0  0  0  0  0
   -8.1480  -13.1970    8.3500 C   0  0  0  0  0  2  0  0  0  0  0  0
   -6.9040  -13.7580    7.6990 N   0  0  0  0  0  4  0  0  0  0  0  0
   -5.9400  -12.7660    7.0780 C   0  0  0  0  0  2  0  0  0  0  0  0
   -5.6820  -13.3040    5.6810 C   0  0  0  0  0  2  0  0  0  0  0  0
   -5.8870  -14.7990    5.8230 C   0  0  0  0  0  2  0  0  0  0  0  0
   -7.1170  -14.8840    6.7020 C   0  0  0  0  0  2  0  0  0  0  0  0
   -6.3770  -14.1940    8.4710 H   0  0  0  0  0  0  0  0  0  0  0  0
  1  2  2  0  0  0  0
  3  2  1  0  0  0  0
  4  5  1  0  0  0  0
  4  3  2  0  0  0  0
  5  1  1  0  0  0  0
  6  3  1  0  0  0  0
  6 13  1  0  0  0  0
  7  6  2  0  0  0  0
  8  7  1  0  0  0  0
  8  9  2  0  0  0  0
  9 11  1  0  0  0  0
 10  9  1  0  0  0  0
 11 13  2  0  0  0  0
 11 12  1  0  0  0  0
 14 19  1  0  0  0  0
 15 14  1  0  0  0  0
 16 17  1  0  0  0  0
 16 15  1  0  0  0  0
 17  1  1  6  0  0  0
 17 18  1  0  0  0  0
 18 19  1  0  0  0  0
 20 30  1  0  0  0  0
 21 20  1  0  0  0  0
 21 22  1  0  0  0  0
 22 28  1  0  0  0  0
 23 21  2  0  0  0  0
 24 25  2  0  0  0  0
 24 23  1  0  0  0  0
 25 26  1  0  0  0  0
 26 14  1  0  0  0  0
 26 20  2  0  0  0  0
 27 22  1  0  0  0  0
 30 29  1  0  0  0  0
 31  5  1  0  0  0  0
 32 31  1  0  0  0  0
 33 32  1  0  0  0  0
 33 38  1  0  0  0  0
 34 33  1  0  0  0  0
 35 36  1  0  0  0  0
 35 34  1  0  0  0  0
 36 37  1  0  0  0  0
 37 33  1  0  0  0  0
M  END
>  <minimizedAffinity>
-5.2216506

$$$$
