
 OpenBabel11232420323D

 38 42  0  0  1  0  0  0  0  0999 V2000
   -8.3810   -8.9960    9.2430 C   0  0  0  0  0  0  0  0  0  0  0  0
   -9.3340   -8.7400    8.3690 N   0  0  0  0  0  0  0  0  0  0  0  0
  -10.1850   -9.8150    8.3650 C   0  0  0  0  0  0  0  0  0  0  0  0
   -9.7100  -10.7800    9.2220 C   0  0  0  0  0  3  0  0  0  0  0  0
   -8.5440  -10.2720    9.7430 N   0  0  0  0  0  0  0  0  0  0  0  0
  -11.3860   -9.8700    7.5480 C   0  0  0  0  0  0  0  0  0  0  0  0
  -12.2990  -10.9340    7.6320 C   0  0  0  0  0  3  0  0  0  0  0  0
  -13.4470  -10.9490    6.8330 C   0  0  0  0  0  3  0  0  0  0  0  0
  -13.6890   -9.9020    5.9480 C   0  0  0  0  0  0  0  0  0  0  0  0
  -14.7950   -9.9420    5.1930 F   0  0  0  0  0  0  0  0  0  0  0  0
  -12.7980   -8.8380    5.8560 C   0  0  0  0  0  0  0  0  0  0  0  0
  -13.0900   -7.5410    4.7620 Cl  0  0  0  0  0  0  0  0  0  0  0  0
  -11.6520   -8.8190    6.6530 C   0  0  0  0  0  3  0  0  0  0  0  0
   -5.1060   -7.0580   11.1670 N   0  0  0  0  0  0  0  0  0  0  0  0
   -6.4250   -6.4910   11.4530 C   0  0  0  0  0  2  0  0  0  0  0  0
   -7.5360   -7.4580   11.0480 C   0  0  0  0  0  2  0  0  0  0  0  0
   -7.3320   -7.9800    9.6180 C   0  0  1  0  0  3  0  0  0  0  0  0
   -5.9030   -8.4520    9.3260 C   0  0  0  0  0  2  0  0  0  0  0  0
   -4.8730   -7.4160    9.7710 C   0  0  0  0  0  2  0  0  0  0  0  0
   -3.3330   -7.4090   12.7970 C   0  0  0  0  0  0  0  0  0  0  0  0
   -2.8230   -8.2770   13.7600 C   0  0  0  0  0  0  0  0  0  0  0  0
   -1.6380   -8.0320   14.4270 N   0  0  0  0  0  0  0  0  0  0  0  0
   -3.4070   -9.4380   14.0800 N   0  0  0  0  0  0  0  0  0  0  0  0
   -4.5680   -9.6910   13.4840 C   0  0  0  0  0  3  0  0  0  0  0  0
   -5.1170   -8.9750   12.4990 N   0  0  0  0  0  0  0  0  0  0  0  0
   -4.5060   -7.8220   12.1610 C   0  0  0  0  0  0  0  0  0  0  0  0
   -1.4110   -8.7580   15.0980 H   0  0  0  0  0  0  0  0  0  0  0  0
   -1.4670   -7.0880   14.7460 H   0  0  0  0  0  0  0  0  0  0  0  0
   -3.3790   -4.9840   13.4410 C   0  0  0  0  0  1  0  0  0  0  0  0
   -2.7180   -6.0480   12.5740 C   0  0  0  0  0  2  0  0  0  0  0  0
   -7.6710  -11.0330   10.6210 C   0  0  0  0  0  2  0  0  0  0  0  0
   -7.8620  -12.5370   10.3890 C   0  0  0  0  0  2  0  0  0  0  0  0
   -6.9290  -13.1540    9.3720 N   0  0  0  0  0  4  0  0  0  0  0  0
   -5.6940  -12.3590    8.9920 C   0  0  0  0  0  2  0  0  0  0  0  0
   -5.6990  -12.3450    7.4740 C   0  0  0  0  0  2  0  0  0  0  0  0
   -6.4240  -13.6210    7.0990 C   0  0  0  0  0  2  0  0  0  0  0  0
   -7.5690  -13.6550    8.0900 C   0  0  0  0  0  2  0  0  0  0  0  0
   -6.5680  -14.0050    9.8280 H   0  0  0  0  0  0  0  0  0  0  0  0
  1  5  1  0  0  0  0
  2  1  2  0  0  0  0
  3  2  1  0  0  0  0
  3  4  2  0  0  0  0
  4  5  1  0  0  0  0
  5 31  1  0  0  0  0
  6  7  1  0  0  0  0
  6  3  1  0  0  0  0
  8  7  2  0  0  0  0
  9  8  1  0  0  0  0
 10  9  1  0  0  0  0
 11  9  2  0  0  0  0
 11 13  1  0  0  0  0
 12 11  1  0  0  0  0
 13  6  2  0  0  0  0
 14 15  1  0  0  0  0
 14 26  1  0  0  0  0
 16 15  1  0  0  0  0
 17  1  1  1  0  0  0
 17 16  1  0  0  0  0
 18 17  1  0  0  0  0
 18 19  1  0  0  0  0
 19 14  1  0  0  0  0
 20 21  1  0  0  0  0
 21 23  2  0  0  0  0
 21 22  1  0  0  0  0
 22 28  1  0  0  0  0
 22 27  1  0  0  0  0
 24 23  1  0  0  0  0
 25 24  2  0  0  0  0
 26 25  1  0  0  0  0
 26 20  2  0  0  0  0
 30 20  1  0  0  0  0
 30 29  1  0  0  0  0
 32 31  1  0  0  0  0
 33 38  1  0  0  0  0
 33 32  1  0  0  0  0
 34 33  1  0  0  0  0
 35 34  1  0  0  0  0
 36 35  1  0  0  0  0
 36 37  1  0  0  0  0
 37 33  1  0  0  0  0
M  END
>  <minimizedAffinity>
-5.5409255

$$$$
