
 OpenBabel11232420323D

 38 42  0  0  1  0  0  0  0  0999 V2000
   -9.2270   -9.5650    8.5170 C   0  0  0  0  0  0  0  0  0  0  0  0
   -9.8320   -8.6420    7.7960 N   0  0  0  0  0  0  0  0  0  0  0  0
  -11.1120   -9.0760    7.5660 C   0  0  0  0  0  0  0  0  0  0  0  0
  -11.2810  -10.3240    8.1190 C   0  0  0  0  0  3  0  0  0  0  0  0
  -10.0700  -10.6450    8.6840 N   0  0  0  0  0  0  0  0  0  0  0  0
  -12.0940   -8.2910    6.8350 C   0  0  0  0  0  0  0  0  0  0  0  0
  -11.9420   -6.9110    6.6270 C   0  0  0  0  0  3  0  0  0  0  0  0
  -12.9050   -6.1900    5.9130 C   0  0  0  0  0  3  0  0  0  0  0  0
  -14.0220   -6.8440    5.4040 C   0  0  0  0  0  0  0  0  0  0  0  0
  -14.9310   -6.1300    4.7250 F   0  0  0  0  0  0  0  0  0  0  0  0
  -14.1860   -8.2120    5.5960 C   0  0  0  0  0  0  0  0  0  0  0  0
  -15.5670   -9.0270    4.9700 Cl  0  0  0  0  0  0  0  0  0  0  0  0
  -13.2260   -8.9340    6.3070 C   0  0  0  0  0  3  0  0  0  0  0  0
   -5.8950   -8.0040   10.6720 N   0  0  0  0  0  0  0  0  0  0  0  0
   -5.8350   -7.8370    9.2180 C   0  0  0  0  0  2  0  0  0  0  0  0
   -7.2060   -8.0660    8.5840 C   0  0  0  0  0  2  0  0  0  0  0  0
   -7.8410   -9.3740    9.0780 C   0  0  1  0  0  3  0  0  0  0  0  0
   -7.7740   -9.5630   10.5980 C   0  0  0  0  0  2  0  0  0  0  0  0
   -6.3650   -9.3090   11.1290 C   0  0  0  0  0  2  0  0  0  0  0  0
   -5.1980   -6.1420   12.0750 C   0  0  0  0  0  0  0  0  0  0  0  0
   -5.6350   -5.0530   12.8270 C   0  0  0  0  0  0  0  0  0  0  0  0
   -4.7710   -4.2660   13.5650 N   0  0  0  0  0  0  0  0  0  0  0  0
   -6.9240   -4.7110   12.9370 N   0  0  0  0  0  0  0  0  0  0  0  0
   -7.7810   -5.4230   12.2130 C   0  0  0  0  0  3  0  0  0  0  0  0
   -7.4920   -6.5260   11.5170 N   0  0  0  0  0  0  0  0  0  0  0  0
   -6.1950   -6.8820   11.4360 C   0  0  0  0  0  0  0  0  0  0  0  0
   -5.2480   -3.5140   14.0490 H   0  0  0  0  0  0  0  0  0  0  0  0
   -3.8910   -4.0100   13.1380 H   0  0  0  0  0  0  0  0  0  0  0  0
   -3.1680   -7.3530   12.9170 C   0  0  0  0  0  1  0  0  0  0  0  0
   -3.7250   -6.4010   11.8660 C   0  0  0  0  0  2  0  0  0  0  0  0
   -9.7950  -11.9400    9.2850 C   0  0  0  0  0  2  0  0  0  0  0  0
   -8.6170  -12.6190    8.5750 C   0  0  0  0  0  2  0  0  0  0  0  0
   -7.7130  -13.4360    9.4690 N   0  0  0  0  0  4  0  0  0  0  0  0
   -7.9270  -13.3180   10.9660 C   0  0  0  0  0  2  0  0  0  0  0  0
   -6.5450  -13.0450   11.5310 C   0  0  0  0  0  2  0  0  0  0  0  0
   -5.6070  -13.6990   10.5350 C   0  0  0  0  0  2  0  0  0  0  0  0
   -6.2220  -13.3220    9.2040 C   0  0  0  0  0  2  0  0  0  0  0  0
   -7.9390  -14.4170    9.2450 H   0  0  0  0  0  0  0  0  0  0  0  0
  1  5  1  0  0  0  0
  2  1  2  0  0  0  0
  3  2  1  0  0  0  0
  3  4  2  0  0  0  0
  4  5  1  0  0  0  0
  5 31  1  0  0  0  0
  6  3  1  0  0  0  0
  7  6  1  0  0  0  0
  8  7  2  0  0  0  0
  9 11  2  0  0  0  0
  9  8  1  0  0  0  0
 10  9  1  0  0  0  0
 11 13  1  0  0  0  0
 12 11  1  0  0  0  0
 13  6  2  0  0  0  0
 14 19  1  0  0  0  0
 14 26  1  0  0  0  0
 15 14  1  0  0  0  0
 16 17  1  0  0  0  0
 16 15  1  0  0  0  0
 17  1  1  1  0  0  0
 17 18  1  0  0  0  0
 18 19  1  0  0  0  0
 20 21  1  0  0  0  0
 21 23  2  0  0  0  0
 21 22  1  0  0  0  0
 22 27  1  0  0  0  0
 24 23  1  0  0  0  0
 25 24  2  0  0  0  0
 26 25  1  0  0  0  0
 26 20  2  0  0  0  0
 28 22  1  0  0  0  0
 30 20  1  0  0  0  0
 30 29  1  0  0  0  0
 32 31  1  0  0  0  0
 32 33  1  0  0  0  0
 33 34  1  0  0  0  0
 34 35  1  0  0  0  0
 36 35  1  0  0  0  0
 37 33  1  0  0  0  0
 37 36  1  0  0  0  0
 38 33  1  0  0  0  0
M  END
>  <minimizedAffinity>
-5.32958889

$$$$
