
 OpenBabel11232420323D

 38 42  0  0  1  0  0  0  0  0999 V2000
   -6.4900  -11.9050   11.3910 C   0  0  0  0  0  0  0  0  0  0  0  0
   -5.9620  -10.6970   11.3960 N   0  0  0  0  0  0  0  0  0  0  0  0
   -6.5990   -9.9680   10.4250 C   0  0  0  0  0  0  0  0  0  0  0  0
   -7.5060  -10.7670    9.7700 C   0  0  0  0  0  3  0  0  0  0  0  0
   -7.4020  -12.0050   10.3600 N   0  0  0  0  0  0  0  0  0  0  0  0
   -6.3070   -8.5670   10.1680 C   0  0  0  0  0  0  0  0  0  0  0  0
   -6.9020   -7.8610    9.1100 C   0  0  0  0  0  3  0  0  0  0  0  0
   -6.5990   -6.5120    8.8980 C   0  0  0  0  0  3  0  0  0  0  0  0
   -5.7030   -5.8630    9.7410 C   0  0  0  0  0  0  0  0  0  0  0  0
   -5.4290   -4.5710    9.5140 F   0  0  0  0  0  0  0  0  0  0  0  0
   -5.1070   -6.5450   10.7960 C   0  0  0  0  0  0  0  0  0  0  0  0
   -3.9960   -5.7480   11.8410 Cl  0  0  0  0  0  0  0  0  0  0  0  0
   -5.4090   -7.8920   11.0120 C   0  0  0  0  0  3  0  0  0  0  0  0
   -4.2740  -14.5800   13.8640 N   0  0  0  0  0  0  0  0  0  0  0  0
   -5.0760  -15.2140   12.8160 C   0  0  0  0  0  2  0  0  0  0  0  0
   -5.5110  -14.1930   11.7670 C   0  0  0  0  0  2  0  0  0  0  0  0
   -6.1330  -12.9490   12.4180 C   0  0  1  0  0  3  0  0  0  0  0  0
   -5.3190  -12.3880   13.5900 C   0  0  0  0  0  2  0  0  0  0  0  0
   -4.9330  -13.4880   14.5770 C   0  0  0  0  0  2  0  0  0  0  0  0
   -1.9990  -14.9190   14.6600 C   0  0  0  0  0  0  0  0  0  0  0  0
   -0.6480  -14.7830   14.3470 C   0  0  0  0  0  0  0  0  0  0  0  0
    0.3560  -15.0820   15.2490 N   0  0  0  0  0  0  0  0  0  0  0  0
   -0.2130  -14.3060   13.1750 N   0  0  0  0  0  0  0  0  0  0  0  0
   -1.1500  -14.0400   12.2700 C   0  0  0  0  0  3  0  0  0  0  0  0
   -2.4690  -14.0620   12.4760 N   0  0  0  0  0  0  0  0  0  0  0  0
   -2.8990  -14.5150   13.6710 C   0  0  0  0  0  0  0  0  0  0  0  0
    1.2820  -14.9340   14.8630 H   0  0  0  0  0  0  0  0  0  0  0  0
    0.2530  -15.9220   15.8020 H   0  0  0  0  0  0  0  0  0  0  0  0
   -2.5520  -14.6000   17.0870 C   0  0  0  0  0  1  0  0  0  0  0  0
   -2.4370  -15.5940   15.9380 C   0  0  0  0  0  2  0  0  0  0  0  0
   -8.1260  -13.1720    9.8840 C   0  0  0  0  0  2  0  0  0  0  0  0
   -8.1480  -13.1970    8.3500 C   0  0  0  0  0  2  0  0  0  0  0  0
   -6.9040  -13.7580    7.6990 N   0  0  0  0  0  4  0  0  0  0  0  0
   -5.9400  -12.7660    7.0780 C   0  0  0  0  0  2  0  0  0  0  0  0
   -5.6820  -13.3040    5.6810 C   0  0  0  0  0  2  0  0  0  0  0  0
   -5.8870  -14.7990    5.8230 C   0  0  0  0  0  2  0  0  0  0  0  0
   -7.1170  -14.8840    6.7020 C   0  0  0  0  0  2  0  0  0  0  0  0
   -6.3770  -14.1940    8.4710 H   0  0  0  0  0  0  0  0  0  0  0  0
  1  2  2  0  0  0  0
  3  2  1  0  0  0  0
  4  5  1  0  0  0  0
  4  3  2  0  0  0  0
  5  1  1  0  0  0  0
  6  3  1  0  0  0  0
  6 13  1  0  0  0  0
  7  6  2  0  0  0  0
  8  7  1  0  0  0  0
  8  9  2  0  0  0  0
  9 11  1  0  0  0  0
 10  9  1  0  0  0  0
 11 13  2  0  0  0  0
 11 12  1  0  0  0  0
 14 19  1  0  0  0  0
 15 14  1  0  0  0  0
 16 17  1  0  0  0  0
 16 15  1  0  0  0  0
 17  1  1  6  0  0  0
 17 18  1  0  0  0  0
 18 19  1  0  0  0  0
 20 30  1  0  0  0  0
 21 20  1  0  0  0  0
 21 22  1  0  0  0  0
 22 28  1  0  0  0  0
 23 21  2  0  0  0  0
 24 25  2  0  0  0  0
 24 23  1  0  0  0  0
 25 26  1  0  0  0  0
 26 14  1  0  0  0  0
 26 20  2  0  0  0  0
 27 22  1  0  0  0  0
 30 29  1  0  0  0  0
 31  5  1  0  0  0  0
 32 31  1  0  0  0  0
 33 32  1  0  0  0  0
 33 38  1  0  0  0  0
 34 33  1  0  0  0  0
 35 36  1  0  0  0  0
 35 34  1  0  0  0  0
 36 37  1  0  0  0  0
 37 33  1  0  0  0  0
M  END
>  <minimizedAffinity>
-5.2216506

$$$$
