
 OpenBabel11232420323D

 38 42  0  0  1  0  0  0  0  0999 V2000
   -8.5180   -9.4750    8.9180 C   0  0  0  0  0  0  0  0  0  0  0  0
   -9.3250   -8.9070    8.0440 N   0  0  0  0  0  0  0  0  0  0  0  0
  -10.5130   -9.5900    8.0790 C   0  0  0  0  0  0  0  0  0  0  0  0
  -10.4140  -10.6400    8.9610 C   0  0  0  0  0  3  0  0  0  0  0  0
   -9.1330  -10.5860    9.4580 N   0  0  0  0  0  0  0  0  0  0  0  0
  -11.6640   -9.2170    7.2720 C   0  0  0  0  0  0  0  0  0  0  0  0
  -12.6440  -10.1480    6.8940 C   0  0  0  0  0  3  0  0  0  0  0  0
  -13.7410   -9.7500    6.1210 C   0  0  0  0  0  3  0  0  0  0  0  0
  -13.8630   -8.4220    5.7250 C   0  0  0  0  0  0  0  0  0  0  0  0
  -14.9220   -8.0680    4.9840 F   0  0  0  0  0  0  0  0  0  0  0  0
  -12.9040   -7.4850    6.0950 C   0  0  0  0  0  0  0  0  0  0  0  0
  -13.0480   -5.8410    5.6070 Cl  0  0  0  0  0  0  0  0  0  0  0  0
  -11.8090   -7.8790    6.8680 C   0  0  0  0  0  3  0  0  0  0  0  0
   -5.4100   -7.1400   10.6710 N   0  0  0  0  0  0  0  0  0  0  0  0
   -5.7020   -6.8420    9.2670 C   0  0  0  0  0  2  0  0  0  0  0  0
   -7.0480   -7.4330    8.8510 C   0  0  0  0  0  2  0  0  0  0  0  0
   -7.1620   -8.9100    9.2540 C   0  0  1  0  0  3  0  0  0  0  0  0
   -6.7310   -9.1960   10.6970 C   0  0  0  0  0  2  0  0  0  0  0  0
   -5.3770   -8.5610   11.0100 C   0  0  0  0  0  2  0  0  0  0  0  0
   -4.9700   -5.5360   12.4460 C   0  0  0  0  0  0  0  0  0  0  0  0
   -5.5490   -4.6760   13.3770 C   0  0  0  0  0  0  0  0  0  0  0  0
   -4.8000   -3.9650   14.2960 N   0  0  0  0  0  0  0  0  0  0  0  0
   -6.8710   -4.5070   13.4930 N   0  0  0  0  0  0  0  0  0  0  0  0
   -7.6210   -5.1480   12.6020 C   0  0  0  0  0  3  0  0  0  0  0  0
   -7.1890   -6.0490   11.7160 N   0  0  0  0  0  0  0  0  0  0  0  0
   -5.8570   -6.2360   11.6270 C   0  0  0  0  0  0  0  0  0  0  0  0
   -5.3730   -3.3820   14.8970 H   0  0  0  0  0  0  0  0  0  0  0  0
   -3.9470   -3.5320   13.9700 H   0  0  0  0  0  0  0  0  0  0  0  0
   -2.8400   -6.7070   13.0720 C   0  0  0  0  0  1  0  0  0  0  0  0
   -3.4720   -5.5830   12.2590 C   0  0  0  0  0  2  0  0  0  0  0  0
   -8.5880  -11.5940   10.3530 C   0  0  0  0  0  2  0  0  0  0  0  0
   -8.5050  -12.9500    9.6410 C   0  0  0  0  0  2  0  0  0  0  0  0
   -7.1870  -13.2400    8.9610 N   0  0  0  0  0  4  0  0  0  0  0  0
   -5.9880  -12.4200    9.3960 C   0  0  0  0  0  2  0  0  0  0  0  0
   -5.3830  -11.9090    8.1000 C   0  0  0  0  0  2  0  0  0  0  0  0
   -5.7670  -12.9600    7.0780 C   0  0  0  0  0  2  0  0  0  0  0  0
   -7.2050  -13.2660    7.4430 C   0  0  0  0  0  2  0  0  0  0  0  0
   -6.9590  -14.2090    9.2320 H   0  0  0  0  0  0  0  0  0  0  0  0
  1  5  1  0  0  0  0
  2  3  1  0  0  0  0
  2  1  2  0  0  0  0
  3  4  2  0  0  0  0
  4  5  1  0  0  0  0
  5 31  1  0  0  0  0
  6  3  1  0  0  0  0
  7  6  1  0  0  0  0
  8  7  2  0  0  0  0
  9 11  2  0  0  0  0
  9  8  1  0  0  0  0
 10  9  1  0  0  0  0
 11 13  1  0  0  0  0
 12 11  1  0  0  0  0
 13  6  2  0  0  0  0
 14 19  1  0  0  0  0
 14 26  1  0  0  0  0
 15 14  1  0  0  0  0
 16 17  1  0  0  0  0
 16 15  1  0  0  0  0
 17  1  1  1  0  0  0
 17 18  1  0  0  0  0
 18 19  1  0  0  0  0
 20 21  1  0  0  0  0
 21 23  2  0  0  0  0
 21 22  1  0  0  0  0
 22 27  1  0  0  0  0
 24 23  1  0  0  0  0
 25 24  2  0  0  0  0
 26 25  1  0  0  0  0
 26 20  2  0  0  0  0
 28 22  1  0  0  0  0
 30 20  1  0  0  0  0
 30 29  1  0  0  0  0
 32 31  1  0  0  0  0
 33 38  1  0  0  0  0
 33 34  1  0  0  0  0
 33 32  1  0  0  0  0
 35 34  1  0  0  0  0
 36 37  1  0  0  0  0
 36 35  1  0  0  0  0
 37 33  1  0  0  0  0
M  END
>  <minimizedAffinity>
-5.81323671

$$$$
