
 OpenBabel10152418493D

 34 37  0  0  1  0  0  0  0  0999 V2000
    5.4520  -15.0220   13.4710 C   0  0  0  0  0  1  0  0  0  0  0  0
    6.3240  -13.8400   13.9130 C   0  0  2  0  0  3  0  0  0  0  0  0
    5.8550  -12.5470   13.2590 C   0  0  0  0  0  0  0  0  0  0  0  0
    6.0380  -11.3310   13.9300 C   0  0  0  0  0  3  0  0  0  0  0  0
    5.9120  -10.1290   13.2390 C   0  0  0  0  0  3  0  0  0  0  0  0
    5.5800  -10.1320   11.8820 C   0  0  0  0  0  3  0  0  0  0  0  0
    5.2290  -11.3060   11.2370 C   0  0  0  0  0  0  0  0  0  0  0  0
    5.3620  -12.5140   11.9420 C   0  0  0  0  0  3  0  0  0  0  0  0
    4.9310  -11.4120    9.8750 N   0  0  0  0  0  0  0  0  0  0  0  0
    5.3300  -10.8280    8.7050 C   0  0  0  0  0  0  0  0  0  0  0  0
    5.0270  -11.4380    7.6760 O   0  0  0  0  0  0  0  0  0  0  0  0
    4.3000  -12.1740    9.6470 H   0  0  0  0  0  0  0  0  0  0  0  0
    5.8760   -9.4730    8.5100 C   0  0  1  0  0  3  0  0  0  0  0  0
    7.1260   -8.7160    8.8680 C   0  0  0  0  0  2  0  0  0  0  0  0
    7.0390   -9.4310    7.5790 C   0  0  0  0  0  0  0  0  0  0  0  0
    7.8430  -10.5260    7.3680 F   0  0  0  0  0  0  0  0  0  0  0  0
    6.9820   -8.7230    6.4020 F   0  0  0  0  0  0  0  0  0  0  0  0
    7.7470  -14.1850   13.7120 N   0  0  0  0  0  0  0  0  0  0  0  0
    7.9090  -15.1880   13.7270 H   0  0  0  0  0  0  0  0  0  0  0  0
    8.5770  -13.6620   12.7370 C   0  0  0  0  0  0  0  0  0  0  0  0
    8.9790  -14.5950   11.8590 N   0  0  0  0  0  0  0  0  0  0  0  0
    9.6380  -14.1550   10.7890 C   0  0  0  0  0  3  0  0  0  0  0  0
    9.9000  -12.8770   10.4970 N   0  0  0  0  0  0  0  0  0  0  0  0
    9.5510  -11.9340   11.4030 C   0  0  0  0  0  0  0  0  0  0  0  0
    9.7820  -10.5580   11.1890 C   0  0  0  0  0  0  0  0  0  0  0  0
    9.4660   -9.6000   12.1720 C   0  0  0  0  0  3  0  0  0  0  0  0
    8.9410   -9.9920   13.3930 C   0  0  0  0  0  3  0  0  0  0  0  0
    8.6840  -11.3380   13.6120 C   0  0  0  0  0  3  0  0  0  0  0  0
    8.9280  -12.3070   12.6090 C   0  0  0  0  0  0  0  0  0  0  0  0
   10.3570  -10.0080    9.9210 C   0  0  0  0  0  0  0  0  0  0  0  0
   10.7850   -8.7120    9.9110 N   0  0  0  0  0  0  0  0  0  0  0  0
   10.4540  -10.6920    8.9100 O   0  0  0  0  0  0  0  0  0  0  0  0
   11.1980   -8.3400    9.0680 H   0  0  0  0  0  0  0  0  0  0  0  0
   10.7090   -8.1300   10.7370 H   0  0  0  0  0  0  0  0  0  0  0  0
  2  1  1  6  0  0  0
  3  2  1  0  0  0  0
  3  4  1  0  0  0  0
  5  4  2  0  0  0  0
  6  5  1  0  0  0  0
  7  6  2  0  0  0  0
  7  8  1  0  0  0  0
  8  3  2  0  0  0  0
  9  7  1  0  0  0  0
 10  9  1  0  0  0  0
 11 10  2  0  0  0  0
 12  9  1  0  0  0  0
 13 10  1  1  0  0  0
 13 14  1  0  0  0  0
 15 13  1  0  0  0  0
 15 14  1  0  0  0  0
 16 15  1  0  0  0  0
 17 15  1  0  0  0  0
 18 19  1  0  0  0  0
 18  2  1  0  0  0  0
 20 18  1  0  0  0  0
 21 20  2  0  0  0  0
 22 21  1  0  0  0  0
 23 22  2  0  0  0  0
 23 24  1  0  0  0  0
 24 29  1  0  0  0  0
 25 24  2  0  0  0  0
 25 26  1  0  0  0  0
 26 27  2  0  0  0  0
 27 28  1  0  0  0  0
 29 20  1  0  0  0  0
 29 28  2  0  0  0  0
 30 25  1  0  0  0  0
 31 30  1  0  0  0  0
 31 34  1  0  0  0  0
 32 30  2  0  0  0  0
 33 31  1  0  0  0  0
M  END
>  <minimizedAffinity>
6.66518354

$$$$
