
 OpenBabel11232419383D

 39 45  0  0  1  0  0  0  0  0999 V2000
   56.7010  -43.2750   16.9920 C   0  0  0  0  0  0  0  0  0  0  0  0
   56.6010  -43.5840   18.3320 N   0  0  0  0  0  0  0  0  0  0  0  0
   55.3390  -43.4240   18.6540 C   0  0  0  0  0  0  0  0  0  0  0  0
   54.6190  -43.0330   17.5570 N   0  0  0  0  0  0  0  0  0  0  0  0
   55.4570  -42.9440   16.4680 C   0  0  0  0  0  0  0  0  0  0  0  0
   53.1780  -42.9060   17.6170 C   0  0  0  0  0  2  0  0  0  0  0  0
   52.7220  -42.4890   18.9180 O   0  0  0  0  0  0  0  0  0  0  0  0
   53.3440  -43.0840   19.9910 C   0  0  0  0  0  0  0  0  0  0  0  0
   52.6190  -43.1120   21.1830 C   0  0  0  0  0  3  0  0  0  0  0  0
   53.1860  -43.6710   22.3240 C   0  0  0  0  0  3  0  0  0  0  0  0
   54.4800  -44.1910   22.2730 C   0  0  0  0  0  3  0  0  0  0  0  0
   55.2200  -44.1450   21.0830 C   0  0  0  0  0  0  0  0  0  0  0  0
   56.8100  -44.8250   21.1300 Cl  0  0  0  0  0  0  0  0  0  0  0  0
   54.6600  -43.5790   19.9290 C   0  0  0  0  0  0  0  0  0  0  0  0
   55.0020  -42.6380   15.1200 C   0  0  0  0  0  0  0  0  0  0  0  0
   54.7830  -41.3110   14.7290 C   0  0  0  0  0  3  0  0  0  0  0  0
   54.3360  -41.0230   13.4390 C   0  0  0  0  0  3  0  0  0  0  0  0
   54.1050  -42.0570   12.5330 C   0  0  0  0  0  3  0  0  0  0  0  0
   54.3250  -43.3800   12.9140 C   0  0  0  0  0  3  0  0  0  0  0  0
   54.7740  -43.6710   14.2040 C   0  0  0  0  0  3  0  0  0  0  0  0
   60.5590  -43.6240   15.0800 C   0  0  0  0  0  0  0  0  0  0  0  0
   59.6250  -44.6790   15.1070 C   0  0  0  0  0  3  0  0  0  0  0  0
   58.3720  -44.5440   15.7130 C   0  0  0  0  0  3  0  0  0  0  0  0
   57.9850  -43.3400   16.3110 C   0  0  0  0  0  0  0  0  0  0  0  0
   58.8850  -42.2750   16.2860 C   0  0  0  0  0  3  0  0  0  0  0  0
   60.1410  -42.4160   15.6790 C   0  0  0  0  0  3  0  0  0  0  0  0
   61.9810  -43.7850   14.4210 C   0  0  2  0  0  0  0  0  0  0  0  0
   63.2560  -43.6270   15.2980 C   0  0  0  0  0  2  0  0  0  0  0  0
   63.9850  -43.0690   14.0260 C   0  0  1  0  0  0  0  0  0  0  0  0
   62.5550  -42.6190   13.5600 C   0  0  0  0  0  2  0  0  0  0  0  0
   61.9960  -45.0720   13.6820 N   0  0  0  0  0  4  0  0  0  0  0  0
   61.2930  -45.0990   12.9360 H   0  0  0  0  0  0  0  0  0  0  0  0
   61.8250  -45.8700   14.3040 H   0  0  0  0  0  0  0  0  0  0  0  0
   62.9280  -45.2130   13.2450 H   0  0  0  0  0  0  0  0  0  0  0  0
   65.0500  -42.0210   14.2880 C   0  0  0  0  0  3  0  0  0  0  0  0
   66.1280  -42.1850   15.3240 C   0  0  0  0  0  2  0  0  0  0  0  0
   66.4900  -42.1000   13.8670 C   0  0  0  0  0  2  0  0  0  0  0  0
   64.4770  -44.1510   13.1770 O   0  0  0  0  0  0  0  0  0  0  0  0
   65.2000  -43.7440   12.6540 H   0  0  0  0  0  0  0  0  0  0  0  0
  1  2  1  0  0  0  0
  2  3  2  0  0  0  0
  3 14  1  0  0  0  0
  4  6  1  0  0  0  0
  4  3  1  0  0  0  0
  5  1  2  0  0  0  0
  5  4  1  0  0  0  0
  6  7  1  0  0  0  0
  7  8  1  0  0  0  0
  8  9  1  0  0  0  0
  9 10  2  0  0  0  0
 11 10  1  0  0  0  0
 12 13  1  0  0  0  0
 12 11  2  0  0  0  0
 14  8  2  0  0  0  0
 14 12  1  0  0  0  0
 15  5  1  0  0  0  0
 16 15  1  0  0  0  0
 17 16  2  0  0  0  0
 18 19  2  0  0  0  0
 18 17  1  0  0  0  0
 19 20  1  0  0  0  0
 20 15  2  0  0  0  0
 21 22  2  0  0  0  0
 21 26  1  0  0  0  0
 22 23  1  0  0  0  0
 23 24  2  0  0  0  0
 24  1  1  0  0  0  0
 25 24  1  0  0  0  0
 26 25  2  0  0  0  0
 27 31  1  6  0  0  0
 27 21  1  0  0  0  0
 27 28  1  0  0  0  0
 29 38  1  6  0  0  0
 29 35  1  0  0  0  0
 29 28  1  0  0  0  0
 30 29  1  0  0  0  0
 30 27  1  0  0  0  0
 31 33  1  0  0  0  0
 32 31  1  0  0  0  0
 34 31  1  0  0  0  0
 35 36  1  0  0  0  0
 37 35  1  0  0  0  0
 37 36  1  0  0  0  0
 39 38  1  0  0  0  0
M  END
>  <minimizedAffinity>
-3.15636778

$$$$
