
 OpenBabel11232419383D

 39 45  0  0  1  0  0  0  0  0999 V2000
   61.2070  -42.1910   16.4600 C   0  0  0  0  0  0  0  0  0  0  0  0
   61.9180  -43.0270   15.6250 N   0  0  0  0  0  0  0  0  0  0  0  0
   63.0930  -42.4670   15.4580 C   0  0  0  0  0  0  0  0  0  0  0  0
   63.1650  -41.3010   16.1710 N   0  0  0  0  0  0  0  0  0  0  0  0
   61.9790  -41.1010   16.8410 C   0  0  0  0  0  0  0  0  0  0  0  0
   64.4010  -40.5510   16.2530 C   0  0  0  0  0  2  0  0  0  0  0  0
   65.1880  -40.6680   15.0520 O   0  0  0  0  0  0  0  0  0  0  0  0
   65.2530  -41.9250   14.4970 C   0  0  0  0  0  0  0  0  0  0  0  0
   66.3640  -42.1850   13.6940 C   0  0  0  0  0  3  0  0  0  0  0  0
   66.4920  -43.4230   13.0720 C   0  0  0  0  0  3  0  0  0  0  0  0
   65.5050  -44.3930   13.2450 C   0  0  0  0  0  3  0  0  0  0  0  0
   64.3770  -44.1280   14.0340 C   0  0  0  0  0  0  0  0  0  0  0  0
   63.2190  -45.4040   14.1880 Cl  0  0  0  0  0  0  0  0  0  0  0  0
   64.2350  -42.8830   14.6610 C   0  0  0  0  0  0  0  0  0  0  0  0
   61.7470  -39.9990   17.7630 C   0  0  0  0  0  0  0  0  0  0  0  0
   62.7020  -38.9850   17.9130 C   0  0  0  0  0  3  0  0  0  0  0  0
   62.4790  -37.9360   18.8060 C   0  0  0  0  0  3  0  0  0  0  0  0
   61.3030  -37.8940   19.5540 C   0  0  0  0  0  3  0  0  0  0  0  0
   60.3470  -38.8980   19.4070 C   0  0  0  0  0  3  0  0  0  0  0  0
   60.5660  -39.9480   18.5130 C   0  0  0  0  0  3  0  0  0  0  0  0
   57.1860  -43.3400   17.5420 C   0  0  0  0  0  0  0  0  0  0  0  0
   58.3260  -43.9880   18.0570 C   0  0  0  0  0  3  0  0  0  0  0  0
   59.6220  -43.5910   17.7130 C   0  0  0  0  0  3  0  0  0  0  0  0
   59.8410  -42.5170   16.8450 C   0  0  0  0  0  0  0  0  0  0  0  0
   58.7300  -41.8490   16.3310 C   0  0  0  0  0  3  0  0  0  0  0  0
   57.4320  -42.2510   16.6790 C   0  0  0  0  0  3  0  0  0  0  0  0
   55.7250  -43.8030   17.9110 C   0  0  2  0  0  0  0  0  0  0  0  0
   54.5560  -42.7780   17.8490 C   0  0  0  0  0  2  0  0  0  0  0  0
   53.8810  -43.5740   19.0210 C   0  0  1  0  0  0  0  0  0  0  0  0
   55.3440  -43.9920   19.4100 C   0  0  0  0  0  2  0  0  0  0  0  0
   55.4170  -45.0140   17.1090 N   0  0  0  0  0  4  0  0  0  0  0  0
   56.0580  -45.7880   17.3130 H   0  0  0  0  0  0  0  0  0  0  0  0
   55.4620  -44.8260   16.1010 H   0  0  0  0  0  0  0  0  0  0  0  0
   54.4520  -45.3370   17.3220 H   0  0  0  0  0  0  0  0  0  0  0  0
   53.0590  -42.7430   19.9870 C   0  0  0  0  0  3  0  0  0  0  0  0
   53.6310  -42.1240   21.2330 C   0  0  0  0  0  2  0  0  0  0  0  0
   53.1060  -41.2480   20.1290 C   0  0  0  0  0  2  0  0  0  0  0  0
   53.1400  -44.7290   18.5210 O   0  0  0  0  0  0  0  0  0  0  0  0
   52.4830  -44.9220   19.2230 H   0  0  0  0  0  0  0  0  0  0  0  0
  1  5  2  0  0  0  0
  1 24  1  0  0  0  0
  2  1  1  0  0  0  0
  3  2  2  0  0  0  0
  3  4  1  0  0  0  0
  4  6  1  0  0  0  0
  4  5  1  0  0  0  0
  5 15  1  0  0  0  0
  7  6  1  0  0  0  0
  8 14  1  0  0  0  0
  8  7  1  0  0  0  0
  9  8  2  0  0  0  0
 10 11  2  0  0  0  0
 10  9  1  0  0  0  0
 11 12  1  0  0  0  0
 12 13  1  0  0  0  0
 12 14  2  0  0  0  0
 14  3  1  0  0  0  0
 15 16  2  0  0  0  0
 15 20  1  0  0  0  0
 16 17  1  0  0  0  0
 17 18  2  0  0  0  0
 19 18  1  0  0  0  0
 20 19  2  0  0  0  0
 21 27  1  0  0  0  0
 21 22  1  0  0  0  0
 23 22  2  0  0  0  0
 24 23  1  0  0  0  0
 25 26  1  0  0  0  0
 25 24  2  0  0  0  0
 26 21  2  0  0  0  0
 27 31  1  6  0  0  0
 27 30  1  0  0  0  0
 28 27  1  0  0  0  0
 28 29  1  0  0  0  0
 29 38  1  6  0  0  0
 29 30  1  0  0  0  0
 29 35  1  0  0  0  0
 31 32  1  0  0  0  0
 31 34  1  0  0  0  0
 33 31  1  0  0  0  0
 35 37  1  0  0  0  0
 35 36  1  0  0  0  0
 37 36  1  0  0  0  0
 38 39  1  0  0  0  0
M  END
>  <minimizedAffinity>
-3.30529475

$$$$
