
 OpenBabel11232419383D

 39 45  0  0  1  0  0  0  0  0999 V2000
   61.5850  -42.1920   16.3040 C   0  0  0  0  0  0  0  0  0  0  0  0
   62.0060  -43.0380   15.2990 N   0  0  0  0  0  0  0  0  0  0  0  0
   63.2840  -42.7960   15.1260 C   0  0  0  0  0  0  0  0  0  0  0  0
   63.7030  -41.8280   15.9990 N   0  0  0  0  0  0  0  0  0  0  0  0
   62.6430  -41.4300   16.7830 C   0  0  0  0  0  0  0  0  0  0  0  0
   65.1010  -41.4640   16.0950 C   0  0  0  0  0  2  0  0  0  0  0  0
   65.7830  -41.5870   14.8320 O   0  0  0  0  0  0  0  0  0  0  0  0
   65.4750  -42.7040   14.0910 C   0  0  0  0  0  0  0  0  0  0  0  0
   66.4420  -43.1150   13.1730 C   0  0  0  0  0  3  0  0  0  0  0  0
   66.1990  -44.2210   12.3630 C   0  0  0  0  0  3  0  0  0  0  0  0
   64.9870  -44.9040   12.4660 C   0  0  0  0  0  3  0  0  0  0  0  0
   64.0040  -44.4800   13.3710 C   0  0  0  0  0  0  0  0  0  0  0  0
   62.5430  -45.4040   13.4220 Cl  0  0  0  0  0  0  0  0  0  0  0  0
   64.2370  -43.3650   14.1880 C   0  0  0  0  0  0  0  0  0  0  0  0
   62.7590  -40.4760   17.8760 C   0  0  0  0  0  0  0  0  0  0  0  0
   62.1570  -39.2150   17.7850 C   0  0  0  0  0  3  0  0  0  0  0  0
   62.2790  -38.3000   18.8320 C   0  0  0  0  0  3  0  0  0  0  0  0
   63.0040  -38.6390   19.9730 C   0  0  0  0  0  3  0  0  0  0  0  0
   63.6030  -39.8940   20.0720 C   0  0  0  0  0  3  0  0  0  0  0  0
   63.4810  -40.8120   19.0270 C   0  0  0  0  0  3  0  0  0  0  0  0
   57.4290  -42.0650   17.4750 C   0  0  0  0  0  0  0  0  0  0  0  0
   57.8380  -42.2870   16.1450 C   0  0  0  0  0  3  0  0  0  0  0  0
   59.1880  -42.3450   15.7850 C   0  0  0  0  0  3  0  0  0  0  0  0
   60.1970  -42.1970   16.7420 C   0  0  0  0  0  0  0  0  0  0  0  0
   59.8200  -41.9890   18.0680 C   0  0  0  0  0  3  0  0  0  0  0  0
   58.4650  -41.9310   18.4240 C   0  0  0  0  0  3  0  0  0  0  0  0
   55.9080  -41.9740   17.8760 C   0  0  2  0  0  0  0  0  0  0  0  0
   55.4230  -40.8080   18.7860 C   0  0  0  0  0  2  0  0  0  0  0  0
   54.3400  -41.7900   19.3580 C   0  0  1  0  0  0  0  0  0  0  0  0
   55.3540  -42.9270   18.9780 C   0  0  0  0  0  2  0  0  0  0  0  0
   55.1040  -42.0480   16.6300 N   0  0  0  0  0  4  0  0  0  0  0  0
   55.2490  -42.9300   16.1280 H   0  0  0  0  0  0  0  0  0  0  0  0
   55.3260  -41.2800   15.9870 H   0  0  0  0  0  0  0  0  0  0  0  0
   54.0940  -41.9780   16.8620 H   0  0  0  0  0  0  0  0  0  0  0  0
   53.9660  -41.5780   20.8120 C   0  0  0  0  0  3  0  0  0  0  0  0
   53.5880  -42.7020   21.7380 C   0  0  0  0  0  2  0  0  0  0  0  0
   54.8290  -41.8930   22.0010 C   0  0  0  0  0  2  0  0  0  0  0  0
   53.1660  -41.8490   18.4910 O   0  0  0  0  0  0  0  0  0  0  0  0
   52.4430  -42.1560   19.0770 H   0  0  0  0  0  0  0  0  0  0  0  0
  1 24  1  0  0  0  0
  1  5  2  0  0  0  0
  2  1  1  0  0  0  0
  3  2  2  0  0  0  0
  3  4  1  0  0  0  0
  4  6  1  0  0  0  0
  4  5  1  0  0  0  0
  5 15  1  0  0  0  0
  7  6  1  0  0  0  0
  8 14  1  0  0  0  0
  8  7  1  0  0  0  0
  9  8  2  0  0  0  0
 10 11  2  0  0  0  0
 10  9  1  0  0  0  0
 11 12  1  0  0  0  0
 12 13  1  0  0  0  0
 12 14  2  0  0  0  0
 14  3  1  0  0  0  0
 15 20  1  0  0  0  0
 16 15  2  0  0  0  0
 16 17  1  0  0  0  0
 17 18  2  0  0  0  0
 18 19  1  0  0  0  0
 20 19  2  0  0  0  0
 21 27  1  0  0  0  0
 21 26  1  0  0  0  0
 22 21  2  0  0  0  0
 23 22  1  0  0  0  0
 23 24  2  0  0  0  0
 24 25  1  0  0  0  0
 25 26  2  0  0  0  0
 27 31  1  6  0  0  0
 27 28  1  0  0  0  0
 27 30  1  0  0  0  0
 28 29  1  0  0  0  0
 29 38  1  6  0  0  0
 29 35  1  0  0  0  0
 30 29  1  0  0  0  0
 31 34  1  0  0  0  0
 32 31  1  0  0  0  0
 33 31  1  0  0  0  0
 35 36  1  0  0  0  0
 35 37  1  0  0  0  0
 36 37  1  0  0  0  0
 38 39  1  0  0  0  0
M  END
>  <minimizedAffinity>
-4.6515007

$$$$
