
 OpenBabel11232419383D

 39 45  0  0  1  0  0  0  0  0999 V2000
   59.9560  -42.7410   16.4940 C   0  0  0  0  0  0  0  0  0  0  0  0
   61.2390  -42.4530   16.9120 N   0  0  0  0  0  0  0  0  0  0  0  0
   61.9840  -42.4430   15.8320 C   0  0  0  0  0  0  0  0  0  0  0  0
   61.2170  -42.7030   14.7280 N   0  0  0  0  0  0  0  0  0  0  0  0
   59.9070  -42.8820   15.1130 C   0  0  0  0  0  0  0  0  0  0  0  0
   61.7790  -42.6300   13.3950 C   0  0  0  0  0  2  0  0  0  0  0  0
   63.1680  -43.0110   13.3680 O   0  0  0  0  0  0  0  0  0  0  0  0
   63.9410  -42.5330   14.4010 C   0  0  0  0  0  0  0  0  0  0  0  0
   65.3090  -42.4330   14.1480 C   0  0  0  0  0  3  0  0  0  0  0  0
   66.1660  -41.9860   15.1490 C   0  0  0  0  0  3  0  0  0  0  0  0
   65.6540  -41.6500   16.4020 C   0  0  0  0  0  3  0  0  0  0  0  0
   64.2830  -41.7700   16.6680 C   0  0  0  0  0  0  0  0  0  0  0  0
   63.7550  -41.3200   18.2520 Cl  0  0  0  0  0  0  0  0  0  0  0  0
   63.4120  -42.2250   15.6680 C   0  0  0  0  0  0  0  0  0  0  0  0
   58.8110  -43.0900   14.1790 C   0  0  0  0  0  0  0  0  0  0  0  0
   58.2330  -42.0040   13.5090 C   0  0  0  0  0  3  0  0  0  0  0  0
   57.1750  -42.2070   12.6220 C   0  0  0  0  0  3  0  0  0  0  0  0
   56.6890  -43.4940   12.3990 C   0  0  0  0  0  3  0  0  0  0  0  0
   57.2620  -44.5810   13.0590 C   0  0  0  0  0  3  0  0  0  0  0  0
   58.3220  -44.3800   13.9460 C   0  0  0  0  0  3  0  0  0  0  0  0
   56.8510  -42.9660   19.4890 C   0  0  0  0  0  0  0  0  0  0  0  0
   57.5520  -41.7760   19.2080 C   0  0  0  0  0  3  0  0  0  0  0  0
   58.5420  -41.7140   18.2210 C   0  0  0  0  0  3  0  0  0  0  0  0
   58.8690  -42.8380   17.4570 C   0  0  0  0  0  0  0  0  0  0  0  0
   58.1810  -44.0260   17.7040 C   0  0  0  0  0  3  0  0  0  0  0  0
   57.1910  -44.0820   18.6960 C   0  0  0  0  0  3  0  0  0  0  0  0
   55.7550  -43.0420   20.6180 C   0  0  2  0  0  0  0  0  0  0  0  0
   54.2530  -43.1390   20.2230 C   0  0  0  0  0  2  0  0  0  0  0  0
   53.9220  -42.3480   21.5380 C   0  0  1  0  0  0  0  0  0  0  0  0
   55.3630  -41.7420   21.3850 C   0  0  0  0  0  2  0  0  0  0  0  0
   56.1350  -44.1350   21.5470 N   0  0  0  0  0  4  0  0  0  0  0  0
   57.0420  -43.9660   21.9940 H   0  0  0  0  0  0  0  0  0  0  0  0
   56.1840  -45.0420   21.0700 H   0  0  0  0  0  0  0  0  0  0  0  0
   55.4220  -44.2180   22.2990 H   0  0  0  0  0  0  0  0  0  0  0  0
   52.7150  -41.4320   21.4650 C   0  0  0  0  0  3  0  0  0  0  0  0
   52.6390  -40.1120   22.1830 C   0  0  0  0  0  2  0  0  0  0  0  0
   52.6220  -40.1550   20.6800 C   0  0  0  0  0  2  0  0  0  0  0  0
   53.8680  -43.2380   22.6940 O   0  0  0  0  0  0  0  0  0  0  0  0
   53.3150  -42.7590   23.3470 H   0  0  0  0  0  0  0  0  0  0  0  0
  1  2  1  0  0  0  0
  1 24  1  0  0  0  0
  3  2  2  0  0  0  0
  4  5  1  0  0  0  0
  4  3  1  0  0  0  0
  5  1  2  0  0  0  0
  6  4  1  0  0  0  0
  7  6  1  0  0  0  0
  7  8  1  0  0  0  0
  8 14  1  0  0  0  0
  9  8  2  0  0  0  0
  9 10  1  0  0  0  0
 10 11  2  0  0  0  0
 11 12  1  0  0  0  0
 12 13  1  0  0  0  0
 14  3  1  0  0  0  0
 14 12  2  0  0  0  0
 15  5  1  0  0  0  0
 16 15  2  0  0  0  0
 17 16  1  0  0  0  0
 18 17  2  0  0  0  0
 18 19  1  0  0  0  0
 19 20  2  0  0  0  0
 20 15  1  0  0  0  0
 21 27  1  0  0  0  0
 22 21  1  0  0  0  0
 23 22  2  0  0  0  0
 24 25  2  0  0  0  0
 24 23  1  0  0  0  0
 25 26  1  0  0  0  0
 26 21  2  0  0  0  0
 27 30  1  0  0  0  0
 27 31  1  1  0  0  0
 28 27  1  0  0  0  0
 28 29  1  0  0  0  0
 29 38  1  1  0  0  0
 30 29  1  0  0  0  0
 31 32  1  0  0  0  0
 31 34  1  0  0  0  0
 33 31  1  0  0  0  0
 35 29  1  0  0  0  0
 35 36  1  0  0  0  0
 37 35  1  0  0  0  0
 37 36  1  0  0  0  0
 38 39  1  0  0  0  0
M  END
>  <minimizedAffinity>
-4.05444813

$$$$
