
 OpenBabel11232419383D

 39 45  0  0  1  0  0  0  0  0999 V2000
   56.3990  -42.7530   17.7880 C   0  0  0  0  0  0  0  0  0  0  0  0
   56.4360  -43.4330   18.9880 N   0  0  0  0  0  0  0  0  0  0  0  0
   55.2090  -43.4220   19.4550 C   0  0  0  0  0  0  0  0  0  0  0  0
   54.3800  -42.7670   18.5850 N   0  0  0  0  0  0  0  0  0  0  0  0
   55.1060  -42.3390   17.4950 C   0  0  0  0  0  0  0  0  0  0  0  0
   52.9500  -42.7210   18.8090 C   0  0  0  0  0  2  0  0  0  0  0  0
   52.6190  -42.7080   20.2110 O   0  0  0  0  0  0  0  0  0  0  0  0
   53.3510  -43.5560   21.0080 C   0  0  0  0  0  0  0  0  0  0  0  0
   52.7470  -43.9490   22.2020 C   0  0  0  0  0  3  0  0  0  0  0  0
   53.4310  -44.7850   23.0800 C   0  0  0  0  0  3  0  0  0  0  0  0
   54.7200  -45.2160   22.7660 C   0  0  0  0  0  3  0  0  0  0  0  0
   55.3390  -44.8050   21.5770 C   0  0  0  0  0  0  0  0  0  0  0  0
   56.9350  -45.4040   21.2840 Cl  0  0  0  0  0  0  0  0  0  0  0  0
   54.6620  -43.9590   20.6890 C   0  0  0  0  0  0  0  0  0  0  0  0
   54.5160  -41.6830   16.3380 C   0  0  0  0  0  0  0  0  0  0  0  0
   54.1510  -42.4270   15.2090 C   0  0  0  0  0  3  0  0  0  0  0  0
   53.5950  -41.7920   14.0980 C   0  0  0  0  0  3  0  0  0  0  0  0
   53.4020  -40.4110   14.1070 C   0  0  0  0  0  3  0  0  0  0  0  0
   53.7590  -39.6650   15.2300 C   0  0  0  0  0  3  0  0  0  0  0  0
   54.3140  -40.2980   16.3430 C   0  0  0  0  0  3  0  0  0  0  0  0
   60.0070  -42.0310   15.5260 C   0  0  0  0  0  0  0  0  0  0  0  0
   59.9370  -41.8550   16.9220 C   0  0  0  0  0  3  0  0  0  0  0  0
   58.7670  -42.1120   17.6440 C   0  0  0  0  0  3  0  0  0  0  0  0
   57.6110  -42.5710   17.0040 C   0  0  0  0  0  0  0  0  0  0  0  0
   57.6570  -42.7670   15.6240 C   0  0  0  0  0  3  0  0  0  0  0  0
   58.8330  -42.5070   14.9050 C   0  0  0  0  0  3  0  0  0  0  0  0
   61.3180  -41.7160   14.7100 C   0  0  2  0  0  0  0  0  0  0  0  0
   62.5340  -42.6830   14.8090 C   0  0  0  0  0  2  0  0  0  0  0  0
   63.4620  -41.4360   14.5900 C   0  0  1  0  0  0  0  0  0  0  0  0
   62.2870  -40.6100   15.2260 C   0  0  0  0  0  2  0  0  0  0  0  0
   60.9300  -41.4910   13.2950 N   0  0  0  0  0  4  0  0  0  0  0  0
   60.2910  -40.6950   13.1910 H   0  0  0  0  0  0  0  0  0  0  0  0
   60.4740  -42.3150   12.8890 H   0  0  0  0  0  0  0  0  0  0  0  0
   61.7780  -41.2930   12.7280 H   0  0  0  0  0  0  0  0  0  0  0  0
   64.8050  -41.4880   15.2930 C   0  0  0  0  0  3  0  0  0  0  0  0
   65.4140  -42.7620   15.8100 C   0  0  0  0  0  2  0  0  0  0  0  0
   66.0900  -41.9980   14.7050 C   0  0  0  0  0  2  0  0  0  0  0  0
   63.5950  -41.1160   13.1720 O   0  0  0  0  0  0  0  0  0  0  0  0
   64.4340  -40.6120   13.1110 H   0  0  0  0  0  0  0  0  0  0  0  0
  1  2  1  0  0  0  0
  2  3  2  0  0  0  0
  3 14  1  0  0  0  0
  4  6  1  0  0  0  0
  4  3  1  0  0  0  0
  5  1  2  0  0  0  0
  5  4  1  0  0  0  0
  6  7  1  0  0  0  0
  7  8  1  0  0  0  0
  8  9  1  0  0  0  0
  9 10  2  0  0  0  0
 11 10  1  0  0  0  0
 12 11  2  0  0  0  0
 13 12  1  0  0  0  0
 14  8  2  0  0  0  0
 14 12  1  0  0  0  0
 15 20  1  0  0  0  0
 15  5  1  0  0  0  0
 16 15  2  0  0  0  0
 17 18  2  0  0  0  0
 17 16  1  0  0  0  0
 18 19  1  0  0  0  0
 19 20  2  0  0  0  0
 21 22  1  0  0  0  0
 22 23  2  0  0  0  0
 24 23  1  0  0  0  0
 24  1  1  0  0  0  0
 25 24  2  0  0  0  0
 26 21  2  0  0  0  0
 26 25  1  0  0  0  0
 27 31  1  6  0  0  0
 27 28  1  0  0  0  0
 27 30  1  0  0  0  0
 27 21  1  0  0  0  0
 29 38  1  6  0  0  0
 29 28  1  0  0  0  0
 29 30  1  0  0  0  0
 29 35  1  0  0  0  0
 32 31  1  0  0  0  0
 33 31  1  0  0  0  0
 34 31  1  0  0  0  0
 35 36  1  0  0  0  0
 37 35  1  0  0  0  0
 37 36  1  0  0  0  0
 39 38  1  0  0  0  0
M  END
>  <minimizedAffinity>
-4.2105937

$$$$
