
 OpenBabel11232419383D

 39 45  0  0  1  0  0  0  0  0999 V2000
   57.1980  -42.6620   17.2360 C   0  0  0  0  0  0  0  0  0  0  0  0
   56.8490  -42.6530   15.9010 N   0  0  0  0  0  0  0  0  0  0  0  0
   55.5970  -43.0440   15.8460 C   0  0  0  0  0  0  0  0  0  0  0  0
   55.1250  -43.2920   17.1070 N   0  0  0  0  0  0  0  0  0  0  0  0
   56.1200  -43.0400   18.0250 C   0  0  0  0  0  0  0  0  0  0  0  0
   53.7320  -43.6200   17.3320 C   0  0  0  0  0  2  0  0  0  0  0  0
   53.1630  -44.3550   16.2320 O   0  0  0  0  0  0  0  0  0  0  0  0
   53.5090  -43.9170   14.9750 C   0  0  0  0  0  0  0  0  0  0  0  0
   52.6190  -44.2350   13.9480 C   0  0  0  0  0  3  0  0  0  0  0  0
   52.9070  -43.8530   12.6410 C   0  0  0  0  0  3  0  0  0  0  0  0
   54.0880  -43.1660   12.3630 C   0  0  0  0  0  3  0  0  0  0  0  0
   54.9960  -42.8650   13.3880 C   0  0  0  0  0  0  0  0  0  0  0  0
   56.4260  -42.0030   12.9330 Cl  0  0  0  0  0  0  0  0  0  0  0  0
   54.7180  -43.2490   14.7070 C   0  0  0  0  0  0  0  0  0  0  0  0
   55.9290  -43.1190   19.4660 C   0  0  0  0  0  0  0  0  0  0  0  0
   56.2760  -44.2810   20.1660 C   0  0  0  0  0  3  0  0  0  0  0  0
   56.0820  -44.3550   21.5460 C   0  0  0  0  0  3  0  0  0  0  0  0
   55.5410  -43.2700   22.2340 C   0  0  0  0  0  3  0  0  0  0  0  0
   55.1970  -42.1080   21.5440 C   0  0  0  0  0  3  0  0  0  0  0  0
   55.3910  -42.0310   20.1640 C   0  0  0  0  0  3  0  0  0  0  0  0
   61.2480  -41.7160   18.4030 C   0  0  0  0  0  0  0  0  0  0  0  0
   60.9000  -42.0720   17.0850 C   0  0  0  0  0  3  0  0  0  0  0  0
   59.5810  -42.3570   16.7180 C   0  0  0  0  0  3  0  0  0  0  0  0
   58.5410  -42.2850   17.6500 C   0  0  0  0  0  0  0  0  0  0  0  0
   58.8560  -41.9220   18.9590 C   0  0  0  0  0  3  0  0  0  0  0  0
   60.1800  -41.6390   19.3230 C   0  0  0  0  0  3  0  0  0  0  0  0
   62.7380  -41.4210   18.8220 C   0  0  2  0  0  0  0  0  0  0  0  0
   63.7960  -41.1080   17.7240 C   0  0  0  0  0  2  0  0  0  0  0  0
   64.8670  -41.7800   18.6560 C   0  0  1  0  0  0  0  0  0  0  0  0
   63.6620  -42.6080   19.2290 C   0  0  0  0  0  2  0  0  0  0  0  0
   62.7170  -40.3600   19.8600 N   0  0  0  0  0  4  0  0  0  0  0  0
   62.2010  -40.6480   20.6980 H   0  0  0  0  0  0  0  0  0  0  0  0
   62.2910  -39.4940   19.5120 H   0  0  0  0  0  0  0  0  0  0  0  0
   63.6890  -40.1340   20.1480 H   0  0  0  0  0  0  0  0  0  0  0  0
   65.9960  -42.4990   17.9430 C   0  0  0  0  0  3  0  0  0  0  0  0
   65.7760  -43.6740   17.0300 C   0  0  0  0  0  2  0  0  0  0  0  0
   66.3300  -42.3880   16.4820 C   0  0  0  0  0  2  0  0  0  0  0  0
   65.3600  -40.8420   19.6600 O   0  0  0  0  0  0  0  0  0  0  0  0
   66.2350  -41.1990   19.9220 H   0  0  0  0  0  0  0  0  0  0  0  0
  1 24  1  0  0  0  0
  1  5  2  0  0  0  0
  2  1  1  0  0  0  0
  3  2  2  0  0  0  0
  3  4  1  0  0  0  0
  4  6  1  0  0  0  0
  4  5  1  0  0  0  0
  5 15  1  0  0  0  0
  7  6  1  0  0  0  0
  8  7  1  0  0  0  0
  9  8  2  0  0  0  0
 10  9  1  0  0  0  0
 11 10  2  0  0  0  0
 11 12  1  0  0  0  0
 12 14  2  0  0  0  0
 13 12  1  0  0  0  0
 14  8  1  0  0  0  0
 14  3  1  0  0  0  0
 15 20  2  0  0  0  0
 15 16  1  0  0  0  0
 16 17  2  0  0  0  0
 17 18  1  0  0  0  0
 19 18  2  0  0  0  0
 20 19  1  0  0  0  0
 21 27  1  0  0  0  0
 21 26  1  0  0  0  0
 22 21  2  0  0  0  0
 23 22  1  0  0  0  0
 23 24  2  0  0  0  0
 24 25  1  0  0  0  0
 25 26  2  0  0  0  0
 27 30  1  0  0  0  0
 27 31  1  1  0  0  0
 28 29  1  0  0  0  0
 28 27  1  0  0  0  0
 29 30  1  0  0  0  0
 29 38  1  1  0  0  0
 31 34  1  0  0  0  0
 31 32  1  0  0  0  0
 33 31  1  0  0  0  0
 35 29  1  0  0  0  0
 36 35  1  0  0  0  0
 37 36  1  0  0  0  0
 37 35  1  0  0  0  0
 38 39  1  0  0  0  0
M  END
>  <minimizedAffinity>
-3.18095469

$$$$
