
 OpenBabel11232419383D

 39 45  0  0  1  0  0  0  0  0999 V2000
   56.6570  -41.5700   19.0920 C   0  0  0  0  0  0  0  0  0  0  0  0
   56.5790  -42.5910   20.0160 N   0  0  0  0  0  0  0  0  0  0  0  0
   55.3180  -42.6740   20.3680 C   0  0  0  0  0  0  0  0  0  0  0  0
   54.5770  -41.7440   19.6880 N   0  0  0  0  0  0  0  0  0  0  0  0
   55.4010  -41.0290   18.8470 C   0  0  0  0  0  0  0  0  0  0  0  0
   53.1340  -41.7080   19.8060 C   0  0  0  0  0  2  0  0  0  0  0  0
   52.6850  -42.1190   21.1120 O   0  0  0  0  0  0  0  0  0  0  0  0
   53.3320  -43.2050   21.6540 C   0  0  0  0  0  0  0  0  0  0  0  0
   52.6200  -43.9250   22.6150 C   0  0  0  0  0  3  0  0  0  0  0  0
   53.2120  -45.0220   23.2340 C   0  0  0  0  0  3  0  0  0  0  0  0
   54.5150  -45.3890   22.8990 C   0  0  0  0  0  3  0  0  0  0  0  0
   55.2410  -44.6550   21.9500 C   0  0  0  0  0  0  0  0  0  0  0  0
   56.8460  -45.2010   21.6050 Cl  0  0  0  0  0  0  0  0  0  0  0  0
   54.6570  -43.5450   21.3250 C   0  0  0  0  0  0  0  0  0  0  0  0
   54.9240  -40.0200   17.9140 C   0  0  0  0  0  0  0  0  0  0  0  0
   55.0710  -38.6580   18.2060 C   0  0  0  0  0  3  0  0  0  0  0  0
   54.6030  -37.6930   17.3130 C   0  0  0  0  0  3  0  0  0  0  0  0
   53.9850  -38.0830   16.1250 C   0  0  0  0  0  3  0  0  0  0  0  0
   53.8400  -39.4370   15.8260 C   0  0  0  0  0  3  0  0  0  0  0  0
   54.3090  -40.4040   16.7170 C   0  0  0  0  0  3  0  0  0  0  0  0
   60.5190  -40.6600   17.3850 C   0  0  0  0  0  0  0  0  0  0  0  0
   59.7660  -41.7890   17.0040 C   0  0  0  0  0  3  0  0  0  0  0  0
   58.5080  -42.0600   17.5510 C   0  0  0  0  0  3  0  0  0  0  0  0
   57.9350  -41.2050   18.4990 C   0  0  0  0  0  0  0  0  0  0  0  0
   58.6530  -40.0730   18.8830 C   0  0  0  0  0  3  0  0  0  0  0  0
   59.9140  -39.8070   18.3320 C   0  0  0  0  0  3  0  0  0  0  0  0
   61.9480  -40.3700   16.7870 C   0  0  2  0  0  0  0  0  0  0  0  0
   62.1700  -40.4670   15.2490 C   0  0  0  0  0  2  0  0  0  0  0  0
   63.6420  -40.9210   15.5560 C   0  0  1  0  0  0  0  0  0  0  0  0
   63.0590  -41.4560   16.9120 C   0  0  0  0  0  2  0  0  0  0  0  0
   62.4010  -39.0570   17.3100 N   0  0  0  0  0  4  0  0  0  0  0  0
   62.4770  -39.0520   18.3320 H   0  0  0  0  0  0  0  0  0  0  0  0
   61.7660  -38.2980   17.0380 H   0  0  0  0  0  0  0  0  0  0  0  0
   63.3380  -38.8320   16.9210 H   0  0  0  0  0  0  0  0  0  0  0  0
   64.2450  -41.8970   14.5640 C   0  0  0  0  0  3  0  0  0  0  0  0
   64.6960  -41.4970   13.1860 C   0  0  0  0  0  2  0  0  0  0  0  0
   65.6980  -41.9930   14.1920 C   0  0  0  0  0  2  0  0  0  0  0  0
   64.5120  -39.7730   15.7960 O   0  0  0  0  0  0  0  0  0  0  0  0
   65.4150  -40.1050   15.6050 H   0  0  0  0  0  0  0  0  0  0  0  0
  1  2  1  0  0  0  0
  2  3  2  0  0  0  0
  3 14  1  0  0  0  0
  4  6  1  0  0  0  0
  4  3  1  0  0  0  0
  5  1  2  0  0  0  0
  5  4  1  0  0  0  0
  6  7  1  0  0  0  0
  7  8  1  0  0  0  0
  8  9  1  0  0  0  0
  9 10  2  0  0  0  0
 11 10  1  0  0  0  0
 12 11  2  0  0  0  0
 13 12  1  0  0  0  0
 14  8  2  0  0  0  0
 14 12  1  0  0  0  0
 15 16  1  0  0  0  0
 15  5  1  0  0  0  0
 17 16  2  0  0  0  0
 18 17  1  0  0  0  0
 19 18  2  0  0  0  0
 19 20  1  0  0  0  0
 20 15  2  0  0  0  0
 21 26  1  0  0  0  0
 22 21  2  0  0  0  0
 22 23  1  0  0  0  0
 23 24  2  0  0  0  0
 24 25  1  0  0  0  0
 24  1  1  0  0  0  0
 26 25  2  0  0  0  0
 27 30  1  0  0  0  0
 27 31  1  1  0  0  0
 27 21  1  0  0  0  0
 28 29  1  0  0  0  0
 28 27  1  0  0  0  0
 29 38  1  1  0  0  0
 29 30  1  0  0  0  0
 31 32  1  0  0  0  0
 33 31  1  0  0  0  0
 34 31  1  0  0  0  0
 35 29  1  0  0  0  0
 36 37  1  0  0  0  0
 36 35  1  0  0  0  0
 37 35  1  0  0  0  0
 39 38  1  0  0  0  0
M  END
>  <minimizedAffinity>
-6.09464312

$$$$
