
 OpenBabel11232420403D

 35 39  0  0  1  0  0  0  0  0999 V2000
  -18.5140   19.3200    8.2400 O   0  0  0  0  0  0  0  0  0  0  0  0
  -20.0120   18.2050   11.4590 C   0  0  0  0  0  0  0  0  0  0  0  0
  -19.5900   16.8820   11.3560 C   0  0  0  0  0  3  0  0  0  0  0  0
  -18.8500   16.4050   10.3310 N   0  0  0  0  0  0  0  0  0  0  0  0
  -18.4970   17.2830    9.3690 C   0  0  0  0  0  3  0  0  0  0  0  0
  -18.8770   18.6210    9.3520 C   0  0  0  0  0  0  0  0  0  0  0  0
  -19.6290   19.0830   10.4290 C   0  0  0  0  0  3  0  0  0  0  0  0
  -21.0510   17.0430   17.0230 C   0  0  0  0  0  1  0  0  0  0  0  0
  -21.7490   18.1030   16.2560 C   0  0  0  0  0  0  0  0  0  0  0  0
  -22.6940   18.8460   16.8440 N   0  0  0  0  0  0  0  0  0  0  0  0
  -23.0870   19.6950   15.8790 N   0  0  0  0  0  0  0  0  0  0  0  0
  -22.4480   19.5130   14.6800 C   0  0  0  0  0  0  0  0  0  0  0  0
  -22.5700   20.1680   13.4540 C   0  0  0  0  0  3  0  0  0  0  0  0
  -21.7490   19.7220   12.4080 C   0  0  0  0  0  3  0  0  0  0  0  0
  -20.8410   18.6650   12.5760 C   0  0  0  0  0  0  0  0  0  0  0  0
  -20.7400   18.0400   13.8350 C   0  0  0  0  0  3  0  0  0  0  0  0
  -21.5600   18.4690   14.8970 C   0  0  0  0  0  0  0  0  0  0  0  0
  -23.8010   20.3790   16.1040 H   0  0  0  0  0  0  0  0  0  0  0  0
  -17.1320   19.4830    7.9000 C   0  0  0  0  0  2  0  0  0  0  0  0
  -16.7050   20.9520    8.1090 C   0  0  1  0  0  3  0  0  0  0  0  0
  -15.9810   21.4550    6.8880 N   0  0  0  0  0  4  0  0  0  0  0  0
  -16.5710   21.4670    6.0470 H   0  0  0  0  0  0  0  0  0  0  0  0
  -15.6040   22.4000    7.0330 H   0  0  0  0  0  0  0  0  0  0  0  0
  -15.1750   20.8410    6.6890 H   0  0  0  0  0  0  0  0  0  0  0  0
  -17.8930   21.8820    8.4000 C   0  0  0  0  0  2  0  0  0  0  0  0
  -17.9040   22.3480    9.8170 C   0  0  0  0  0  0  0  0  0  0  0  0
  -17.0330   21.9370   10.8070 C   0  0  0  0  0  3  0  0  0  0  0  0
  -17.3600   22.5880   11.9680 N   0  0  0  0  0  0  0  0  0  0  0  0
  -18.4380   23.4130   11.7560 C   0  0  0  0  0  0  0  0  0  0  0  0
  -19.1060   24.2560   12.6520 C   0  0  0  0  0  3  0  0  0  0  0  0
  -20.1740   25.0070   12.1590 C   0  0  0  0  0  3  0  0  0  0  0  0
  -20.5550   24.9200   10.8240 C   0  0  0  0  0  3  0  0  0  0  0  0
  -19.8760   24.0730    9.9390 C   0  0  0  0  0  3  0  0  0  0  0  0
  -18.7960   23.2970   10.4140 C   0  0  0  0  0  0  0  0  0  0  0  0
  -16.8790   22.4910   12.8530 H   0  0  0  0  0  0  0  0  0  0  0  0
  1  6  1  0  0  0  0
  2 15  1  0  0  0  0
  3  2  1  0  0  0  0
  4  3  2  0  0  0  0
  5  4  1  0  0  0  0
  6  5  2  0  0  0  0
  6  7  1  0  0  0  0
  7  2  2  0  0  0  0
  9 10  2  0  0  0  0
  9  8  1  0  0  0  0
 11 18  1  0  0  0  0
 11 10  1  0  0  0  0
 12 17  1  0  0  0  0
 12 11  1  0  0  0  0
 13 12  2  0  0  0  0
 14 15  2  0  0  0  0
 14 13  1  0  0  0  0
 15 16  1  0  0  0  0
 16 17  2  0  0  0  0
 17  9  1  0  0  0  0
 19  1  1  0  0  0  0
 20 19  1  6  0  0  0
 20 25  1  0  0  0  0
 21 23  1  0  0  0  0
 21 20  1  0  0  0  0
 22 21  1  0  0  0  0
 24 21  1  0  0  0  0
 25 26  1  0  0  0  0
 26 34  1  0  0  0  0
 26 27  2  0  0  0  0
 27 28  1  0  0  0  0
 28 35  1  0  0  0  0
 29 28  1  0  0  0  0
 29 30  1  0  0  0  0
 31 30  2  0  0  0  0
 32 31  1  0  0  0  0
 33 34  1  0  0  0  0
 33 32  2  0  0  0  0
 34 29  2  0  0  0  0
M  END
>  <minimizedAffinity>
-10.9483147

$$$$

 OpenBabel11232420403D

 35 39  0  0  1  0  0  0  0  0999 V2000
  -18.9710   19.2690    8.7450 O   0  0  0  0  0  0  0  0  0  0  0  0
  -20.2970   18.1280   12.0310 C   0  0  0  0  0  0  0  0  0  0  0  0
  -19.8600   16.8120   11.9060 C   0  0  0  0  0  3  0  0  0  0  0  0
  -19.1630   16.3470   10.8460 N   0  0  0  0  0  0  0  0  0  0  0  0
  -18.8700   17.2310    9.8690 C   0  0  0  0  0  3  0  0  0  0  0  0
  -19.2700   18.5630    9.8730 C   0  0  0  0  0  0  0  0  0  0  0  0
  -19.9770   19.0130   10.9850 C   0  0  0  0  0  3  0  0  0  0  0  0
  -20.9300   17.0600   17.6740 C   0  0  0  0  0  1  0  0  0  0  0  0
  -21.7280   18.0630   16.9290 C   0  0  0  0  0  0  0  0  0  0  0  0
  -22.6720   18.7730   17.5570 N   0  0  0  0  0  0  0  0  0  0  0  0
  -23.1670   19.5770   16.6000 N   0  0  0  0  0  0  0  0  0  0  0  0
  -22.5950   19.3950   15.3680 C   0  0  0  0  0  0  0  0  0  0  0  0
  -22.8250   20.0120   14.1370 C   0  0  0  0  0  3  0  0  0  0  0  0
  -22.0480   19.5810   13.0520 C   0  0  0  0  0  3  0  0  0  0  0  0
  -21.0790   18.5750   13.1870 C   0  0  0  0  0  0  0  0  0  0  0  0
  -20.8680   17.9880   14.4510 C   0  0  0  0  0  3  0  0  0  0  0  0
  -21.6420   18.4030   15.5520 C   0  0  0  0  0  0  0  0  0  0  0  0
  -23.9010   20.2290   16.8540 H   0  0  0  0  0  0  0  0  0  0  0  0
  -17.6120   19.5830    8.4210 C   0  0  0  0  0  2  0  0  0  0  0  0
  -17.3890   21.1080    8.4930 C   0  0  1  0  0  3  0  0  0  0  0  0
  -16.3110   21.5160    7.5230 N   0  0  0  0  0  4  0  0  0  0  0  0
  -16.5600   21.3300    6.5440 H   0  0  0  0  0  0  0  0  0  0  0  0
  -16.0760   22.5120    7.6150 H   0  0  0  0  0  0  0  0  0  0  0  0
  -15.4480   20.9880    7.7270 H   0  0  0  0  0  0  0  0  0  0  0  0
  -18.6620   21.9110    8.1880 C   0  0  0  0  0  2  0  0  0  0  0  0
  -19.0350   22.8180    9.3110 C   0  0  0  0  0  0  0  0  0  0  0  0
  -20.1520   22.6880   10.1150 C   0  0  0  0  0  3  0  0  0  0  0  0
  -20.1460   23.7070   11.0300 N   0  0  0  0  0  0  0  0  0  0  0  0
  -19.0480   24.5090   10.8350 C   0  0  0  0  0  0  0  0  0  0  0  0
  -18.6450   25.6560   11.5290 C   0  0  0  0  0  3  0  0  0  0  0  0
  -17.4600   26.2740   11.1250 C   0  0  0  0  0  3  0  0  0  0  0  0
  -16.7080   25.7610   10.0730 C   0  0  0  0  0  3  0  0  0  0  0  0
  -17.1240   24.6110    9.3890 C   0  0  0  0  0  3  0  0  0  0  0  0
  -18.3220   23.9720    9.7720 C   0  0  0  0  0  0  0  0  0  0  0  0
  -20.8390   23.8530   11.7550 H   0  0  0  0  0  0  0  0  0  0  0  0
  1  6  1  0  0  0  0
  2 15  1  0  0  0  0
  3  2  1  0  0  0  0
  4  3  2  0  0  0  0
  5  6  2  0  0  0  0
  5  4  1  0  0  0  0
  6  7  1  0  0  0  0
  7  2  2  0  0  0  0
  9 10  2  0  0  0  0
  9  8  1  0  0  0  0
 11 18  1  0  0  0  0
 11 10  1  0  0  0  0
 12 17  1  0  0  0  0
 12 11  1  0  0  0  0
 13 12  2  0  0  0  0
 14 15  2  0  0  0  0
 14 13  1  0  0  0  0
 15 16  1  0  0  0  0
 16 17  2  0  0  0  0
 17  9  1  0  0  0  0
 19 20  1  0  0  0  0
 19  1  1  0  0  0  0
 20 25  1  6  0  0  0
 21 23  1  0  0  0  0
 21 24  1  0  0  0  0
 21 20  1  0  0  0  0
 22 21  1  0  0  0  0
 25 26  1  0  0  0  0
 26 34  1  0  0  0  0
 26 27  2  0  0  0  0
 27 28  1  0  0  0  0
 28 35  1  0  0  0  0
 29 28  1  0  0  0  0
 29 30  1  0  0  0  0
 31 30  2  0  0  0  0
 32 31  1  0  0  0  0
 33 34  1  0  0  0  0
 33 32  2  0  0  0  0
 34 29  2  0  0  0  0
M  END
>  <minimizedAffinity>
-10.4680233

$$$$

 OpenBabel11232420403D

 35 39  0  0  1  0  0  0  0  0999 V2000
  -19.6730   19.3420   12.1630 O   0  0  0  0  0  0  0  0  0  0  0  0
  -19.5090   23.0190   11.6110 C   0  0  0  0  0  0  0  0  0  0  0  0
  -20.8820   23.2330   11.6960 C   0  0  0  0  0  3  0  0  0  0  0  0
  -21.7820   22.2560   11.9440 N   0  0  0  0  0  0  0  0  0  0  0  0
  -21.2980   21.0100   12.1330 C   0  0  0  0  0  3  0  0  0  0  0  0
  -19.9520   20.6720   12.0500 C   0  0  0  0  0  0  0  0  0  0  0  0
  -19.0500   21.7040   11.8050 C   0  0  0  0  0  3  0  0  0  0  0  0
  -18.8200   28.6860   12.5080 C   0  0  0  0  0  1  0  0  0  0  0  0
  -17.8760   27.8530   11.7240 C   0  0  0  0  0  0  0  0  0  0  0  0
  -16.7980   28.4090   11.1600 N   0  0  0  0  0  0  0  0  0  0  0  0
  -16.1770   27.3800   10.5590 N   0  0  0  0  0  0  0  0  0  0  0  0
  -16.8280   26.1810   10.6930 C   0  0  0  0  0  0  0  0  0  0  0  0
  -16.5250   24.9010   10.2230 C   0  0  0  0  0  3  0  0  0  0  0  0
  -17.4220   23.8740   10.5460 C   0  0  0  0  0  3  0  0  0  0  0  0
  -18.5770   24.1090   11.3080 C   0  0  0  0  0  0  0  0  0  0  0  0
  -18.8380   25.4130   11.7740 C   0  0  0  0  0  3  0  0  0  0  0  0
  -17.9520   26.4600   11.4560 C   0  0  0  0  0  0  0  0  0  0  0  0
  -15.3090   27.5630   10.0690 H   0  0  0  0  0  0  0  0  0  0  0  0
  -20.1330   18.4150   11.1730 C   0  0  0  0  0  2  0  0  0  0  0  0
  -19.0430   18.2010   10.1010 C   0  0  1  0  0  3  0  0  0  0  0  0
  -18.6610   16.7450   10.0400 N   0  0  0  0  0  4  0  0  0  0  0  0
  -19.4380   16.1370    9.7530 H   0  0  0  0  0  0  0  0  0  0  0  0
  -17.8730   16.5870    9.3990 H   0  0  0  0  0  0  0  0  0  0  0  0
  -18.3530   16.4320   10.9730 H   0  0  0  0  0  0  0  0  0  0  0  0
  -19.4860   18.6580    8.7030 C   0  0  0  0  0  2  0  0  0  0  0  0
  -18.6680   19.8000    8.2020 C   0  0  0  0  0  0  0  0  0  0  0  0
  -18.9380   21.1380    8.4110 C   0  0  0  0  0  3  0  0  0  0  0  0
  -17.9610   21.8770    7.7990 N   0  0  0  0  0  0  0  0  0  0  0  0
  -17.0580   21.0450    7.1820 C   0  0  0  0  0  0  0  0  0  0  0  0
  -15.9130   21.3610    6.4420 C   0  0  0  0  0  3  0  0  0  0  0  0
  -15.1570   20.3030    5.9360 C   0  0  0  0  0  3  0  0  0  0  0  0
  -15.5300   18.9820    6.1670 C   0  0  0  0  0  3  0  0  0  0  0  0
  -16.6780   18.6810    6.9100 C   0  0  0  0  0  3  0  0  0  0  0  0
  -17.4650   19.7330    7.4270 C   0  0  0  0  0  0  0  0  0  0  0  0
  -17.8970   22.8880    7.8010 H   0  0  0  0  0  0  0  0  0  0  0  0
  2  3  2  0  0  0  0
  2  7  1  0  0  0  0
  3  4  1  0  0  0  0
  4  5  2  0  0  0  0
  6  5  1  0  0  0  0
  6  1  1  0  0  0  0
  7  6  2  0  0  0  0
  9  8  1  0  0  0  0
 10  9  2  0  0  0  0
 11 12  1  0  0  0  0
 11 10  1  0  0  0  0
 12 17  1  0  0  0  0
 13 14  1  0  0  0  0
 13 12  2  0  0  0  0
 14 15  2  0  0  0  0
 15  2  1  0  0  0  0
 15 16  1  0  0  0  0
 17  9  1  0  0  0  0
 17 16  2  0  0  0  0
 18 11  1  0  0  0  0
 19  1  1  0  0  0  0
 20 25  1  6  0  0  0
 20 19  1  0  0  0  0
 21 20  1  0  0  0  0
 21 24  1  0  0  0  0
 22 21  1  0  0  0  0
 23 21  1  0  0  0  0
 26 27  2  0  0  0  0
 26 25  1  0  0  0  0
 28 35  1  0  0  0  0
 28 27  1  0  0  0  0
 29 34  1  0  0  0  0
 29 28  1  0  0  0  0
 30 29  2  0  0  0  0
 31 32  2  0  0  0  0
 31 30  1  0  0  0  0
 32 33  1  0  0  0  0
 33 34  2  0  0  0  0
 34 26  1  0  0  0  0
M  END
>  <minimizedAffinity>
-10.1600037

$$$$

 OpenBabel11232420403D

 35 39  0  0  1  0  0  0  0  0999 V2000
  -20.3310   21.7540   11.1820 O   0  0  0  0  0  0  0  0  0  0  0  0
  -21.2020   19.0680   13.6070 C   0  0  0  0  0  0  0  0  0  0  0  0
  -22.4690   19.5600   13.9090 C   0  0  0  0  0  3  0  0  0  0  0  0
  -23.0030   20.6650   13.3420 N   0  0  0  0  0  0  0  0  0  0  0  0
  -22.2530   21.3030   12.4180 C   0  0  0  0  0  3  0  0  0  0  0  0
  -20.9680   20.9180   12.0510 C   0  0  0  0  0  0  0  0  0  0  0  0
  -20.4520   19.7700   12.6460 C   0  0  0  0  0  3  0  0  0  0  0  0
  -20.8330   16.6740   18.8540 C   0  0  0  0  0  1  0  0  0  0  0  0
  -20.2370   16.0820   17.6320 C   0  0  0  0  0  0  0  0  0  0  0  0
  -19.5500   14.9370   17.7070 N   0  0  0  0  0  0  0  0  0  0  0  0
  -19.1800   14.6950   16.4370 N   0  0  0  0  0  0  0  0  0  0  0  0
  -19.5800   15.6570   15.5470 C   0  0  0  0  0  0  0  0  0  0  0  0
  -19.3960   15.7820   14.1680 C   0  0  0  0  0  3  0  0  0  0  0  0
  -19.9480   16.9130   13.5500 C   0  0  0  0  0  3  0  0  0  0  0  0
  -20.6560   17.8840   14.2760 C   0  0  0  0  0  0  0  0  0  0  0  0
  -20.8310   17.7130   15.6640 C   0  0  0  0  0  3  0  0  0  0  0  0
  -20.2800   16.5860   16.3040 C   0  0  0  0  0  0  0  0  0  0  0  0
  -18.6500   13.8530   16.2440 H   0  0  0  0  0  0  0  0  0  0  0  0
  -19.0860   22.3650   11.5390 C   0  0  0  0  0  2  0  0  0  0  0  0
  -18.2340   22.6070   10.2750 C   0  0  1  0  0  3  0  0  0  0  0  0
  -16.8540   22.0350   10.4680 N   0  0  0  0  0  4  0  0  0  0  0  0
  -16.8550   21.0160   10.5960 H   0  0  0  0  0  0  0  0  0  0  0  0
  -16.2350   22.2630    9.6800 H   0  0  0  0  0  0  0  0  0  0  0  0
  -16.4250   22.4500   11.3110 H   0  0  0  0  0  0  0  0  0  0  0  0
  -18.8540   21.9930    9.0110 C   0  0  0  0  0  2  0  0  0  0  0  0
  -18.1740   20.7270    8.6120 C   0  0  0  0  0  0  0  0  0  0  0  0
  -18.4320   19.4740    9.1350 C   0  0  0  0  0  3  0  0  0  0  0  0
  -17.6100   18.5700    8.5160 N   0  0  0  0  0  0  0  0  0  0  0  0
  -16.8090   19.2110    7.6020 C   0  0  0  0  0  0  0  0  0  0  0  0
  -15.8270   18.6880    6.7530 C   0  0  0  0  0  3  0  0  0  0  0  0
  -15.1690   19.5750    5.9000 C   0  0  0  0  0  3  0  0  0  0  0  0
  -15.4860   20.9300    5.8940 C   0  0  0  0  0  3  0  0  0  0  0  0
  -16.4720   21.4390    6.7490 C   0  0  0  0  0  3  0  0  0  0  0  0
  -17.1470   20.5640    7.6270 C   0  0  0  0  0  0  0  0  0  0  0  0
  -17.5920   17.5730    8.6910 H   0  0  0  0  0  0  0  0  0  0  0  0
  1 19  1  0  0  0  0
  1  6  1  0  0  0  0
  2  3  1  0  0  0  0
  2 15  1  0  0  0  0
  4  3  2  0  0  0  0
  5  4  1  0  0  0  0
  6  5  2  0  0  0  0
  6  7  1  0  0  0  0
  7  2  2  0  0  0  0
  9 10  2  0  0  0  0
  9  8  1  0  0  0  0
 11 10  1  0  0  0  0
 12 17  1  0  0  0  0
 12 11  1  0  0  0  0
 13 12  2  0  0  0  0
 14 13  1  0  0  0  0
 14 15  2  0  0  0  0
 15 16  1  0  0  0  0
 16 17  2  0  0  0  0
 17  9  1  0  0  0  0
 18 11  1  0  0  0  0
 20 25  1  6  0  0  0
 20 21  1  0  0  0  0
 20 19  1  0  0  0  0
 21 22  1  0  0  0  0
 21 24  1  0  0  0  0
 23 21  1  0  0  0  0
 26 25  1  0  0  0  0
 26 27  2  0  0  0  0
 28 35  1  0  0  0  0
 28 27  1  0  0  0  0
 29 34  1  0  0  0  0
 29 28  1  0  0  0  0
 30 29  2  0  0  0  0
 31 30  1  0  0  0  0
 32 31  2  0  0  0  0
 32 33  1  0  0  0  0
 33 34  2  0  0  0  0
 34 26  1  0  0  0  0
M  END
>  <minimizedAffinity>
-10.1174517

$$$$

 OpenBabel11232420403D

 35 39  0  0  1  0  0  0  0  0999 V2000
  -18.8420   21.0560   11.3070 O   0  0  0  0  0  0  0  0  0  0  0  0
  -21.8380   19.9080   13.1920 C   0  0  0  0  0  0  0  0  0  0  0  0
  -22.6140   21.0300   12.9150 C   0  0  0  0  0  3  0  0  0  0  0  0
  -22.1980   22.0630   12.1490 N   0  0  0  0  0  0  0  0  0  0  0  0
  -20.9600   21.9720   11.6170 C   0  0  0  0  0  3  0  0  0  0  0  0
  -20.0880   20.9130   11.8410 C   0  0  0  0  0  0  0  0  0  0  0  0
  -20.5520   19.8600   12.6260 C   0  0  0  0  0  3  0  0  0  0  0  0
  -23.8100   19.0280   18.5520 C   0  0  0  0  0  1  0  0  0  0  0  0
  -23.6370   17.9500   17.5490 C   0  0  0  0  0  0  0  0  0  0  0  0
  -23.9260   16.6830   17.8660 N   0  0  0  0  0  0  0  0  0  0  0  0
  -23.6720   15.9980   16.7380 N   0  0  0  0  0  0  0  0  0  0  0  0
  -23.2060   16.7730   15.7080 C   0  0  0  0  0  0  0  0  0  0  0  0
  -22.8260   16.4530   14.4030 C   0  0  0  0  0  3  0  0  0  0  0  0
  -22.3860   17.5070   13.5900 C   0  0  0  0  0  3  0  0  0  0  0  0
  -22.3250   18.8290   14.0570 C   0  0  0  0  0  0  0  0  0  0  0  0
  -22.7300   19.1110   15.3770 C   0  0  0  0  0  3  0  0  0  0  0  0
  -23.1710   18.0650   16.2120 C   0  0  0  0  0  0  0  0  0  0  0  0
  -23.8380   14.9980   16.7370 H   0  0  0  0  0  0  0  0  0  0  0  0
  -18.5700   22.0950   10.3600 C   0  0  0  0  0  2  0  0  0  0  0  0
  -17.4760   23.0370   10.9070 C   0  0  1  0  0  3  0  0  0  0  0  0
  -16.3220   22.2290   11.4390 N   0  0  0  0  0  4  0  0  0  0  0  0
  -15.8530   21.6720   10.7150 H   0  0  0  0  0  0  0  0  0  0  0  0
  -15.6200   22.8260   11.8940 H   0  0  0  0  0  0  0  0  0  0  0  0
  -16.6640   21.5730   12.1580 H   0  0  0  0  0  0  0  0  0  0  0  0
  -16.9510   24.0180    9.8480 C   0  0  0  0  0  2  0  0  0  0  0  0
  -16.9650   25.4270   10.3340 C   0  0  0  0  0  0  0  0  0  0  0  0
  -15.8990   26.3040   10.2950 C   0  0  0  0  0  3  0  0  0  0  0  0
  -16.3020   27.4990   10.8300 N   0  0  0  0  0  0  0  0  0  0  0  0
  -17.6140   27.4180   11.2280 C   0  0  0  0  0  0  0  0  0  0  0  0
  -18.4280   28.3880   11.8240 C   0  0  0  0  0  3  0  0  0  0  0  0
  -19.7480   28.0370   12.1130 C   0  0  0  0  0  3  0  0  0  0  0  0
  -20.2330   26.7680   11.8120 C   0  0  0  0  0  3  0  0  0  0  0  0
  -19.4060   25.8080   11.2150 C   0  0  0  0  0  3  0  0  0  0  0  0
  -18.0650   26.1350   10.9200 C   0  0  0  0  0  0  0  0  0  0  0  0
  -15.7290   28.3300   10.9150 H   0  0  0  0  0  0  0  0  0  0  0  0
  1  6  1  0  0  0  0
  2 15  1  0  0  0  0
  3  2  1  0  0  0  0
  4  3  2  0  0  0  0
  5  6  2  0  0  0  0
  5  4  1  0  0  0  0
  6  7  1  0  0  0  0
  7  2  2  0  0  0  0
  9 10  2  0  0  0  0
  9  8  1  0  0  0  0
 11 10  1  0  0  0  0
 12 17  1  0  0  0  0
 12 11  1  0  0  0  0
 13 12  2  0  0  0  0
 14 15  2  0  0  0  0
 14 13  1  0  0  0  0
 15 16  1  0  0  0  0
 16 17  2  0  0  0  0
 17  9  1  0  0  0  0
 18 11  1  0  0  0  0
 19 20  1  0  0  0  0
 19  1  1  0  0  0  0
 20 25  1  6  0  0  0
 20 21  1  0  0  0  0
 21 23  1  0  0  0  0
 21 24  1  0  0  0  0
 22 21  1  0  0  0  0
 25 26  1  0  0  0  0
 26 34  1  0  0  0  0
 27 26  2  0  0  0  0
 27 28  1  0  0  0  0
 28 35  1  0  0  0  0
 28 29  1  0  0  0  0
 29 30  1  0  0  0  0
 30 31  2  0  0  0  0
 32 31  1  0  0  0  0
 33 32  2  0  0  0  0
 34 33  1  0  0  0  0
 34 29  2  0  0  0  0
M  END
>  <minimizedAffinity>
-10.0384293

$$$$

 OpenBabel11232420403D

 35 39  0  0  1  0  0  0  0  0999 V2000
  -21.6200   30.1700   14.3600 O   0  0  0  0  0  0  0  0  0  0  0  0
  -19.2650   28.8780   11.7840 C   0  0  0  0  0  0  0  0  0  0  0  0
  -19.3600   29.9830   10.9430 C   0  0  0  0  0  3  0  0  0  0  0  0
  -20.1110   31.0740   11.2140 N   0  0  0  0  0  0  0  0  0  0  0  0
  -20.7870   31.0770   12.3820 C   0  0  0  0  0  3  0  0  0  0  0  0
  -20.7870   30.0230   13.2900 C   0  0  0  0  0  0  0  0  0  0  0  0
  -19.9940   28.9200   12.9860 C   0  0  0  0  0  3  0  0  0  0  0  0
  -19.3600   23.1130   12.1740 C   0  0  0  0  0  1  0  0  0  0  0  0
  -18.2470   23.8810   11.5670 C   0  0  0  0  0  0  0  0  0  0  0  0
  -17.1740   23.2430   11.0850 N   0  0  0  0  0  0  0  0  0  0  0  0
  -16.3950   24.2300   10.6090 N   0  0  0  0  0  0  0  0  0  0  0  0
  -16.9130   25.4860   10.7870 C   0  0  0  0  0  0  0  0  0  0  0  0
  -16.4250   26.7490   10.4490 C   0  0  0  0  0  3  0  0  0  0  0  0
  -17.2230   27.8520   10.7820 C   0  0  0  0  0  3  0  0  0  0  0  0
  -18.4610   27.7050   11.4270 C   0  0  0  0  0  0  0  0  0  0  0  0
  -18.9240   26.4110   11.7390 C   0  0  0  0  0  3  0  0  0  0  0  0
  -18.1340   25.2900   11.4170 C   0  0  0  0  0  0  0  0  0  0  0  0
  -15.5150   23.9770   10.1720 H   0  0  0  0  0  0  0  0  0  0  0  0
  -21.0890   30.3630   15.6760 C   0  0  0  0  0  2  0  0  0  0  0  0
  -20.9740   31.8710   15.9840 C   0  0  1  0  0  3  0  0  0  0  0  0
  -21.9030   32.2360   17.1130 N   0  0  0  0  0  4  0  0  0  0  0  0
  -21.6670   31.7660   17.9950 H   0  0  0  0  0  0  0  0  0  0  0  0
  -21.9160   33.2500   17.2790 H   0  0  0  0  0  0  0  0  0  0  0  0
  -22.8670   31.9630   16.8660 H   0  0  0  0  0  0  0  0  0  0  0  0
  -19.5460   32.2950   16.3580 C   0  0  0  0  0  2  0  0  0  0  0  0
  -18.6630   32.4030   15.1610 C   0  0  0  0  0  0  0  0  0  0  0  0
  -18.5580   33.5040   14.3340 C   0  0  0  0  0  3  0  0  0  0  0  0
  -17.6470   33.2210   13.3510 N   0  0  0  0  0  0  0  0  0  0  0  0
  -17.1580   31.9470   13.5150 C   0  0  0  0  0  0  0  0  0  0  0  0
  -16.2200   31.2450   12.7500 C   0  0  0  0  0  3  0  0  0  0  0  0
  -15.8880   29.9530   13.1580 C   0  0  0  0  0  3  0  0  0  0  0  0
  -16.4700   29.3890   14.2900 C   0  0  0  0  0  3  0  0  0  0  0  0
  -17.4070   30.1040   15.0460 C   0  0  0  0  0  3  0  0  0  0  0  0
  -17.7650   31.4100   14.6500 C   0  0  0  0  0  0  0  0  0  0  0  0
  -17.3610   33.8520   12.6130 H   0  0  0  0  0  0  0  0  0  0  0  0
  1 19  1  0  0  0  0
  2  7  1  0  0  0  0
  3  4  1  0  0  0  0
  3  2  2  0  0  0  0
  4  5  2  0  0  0  0
  5  6  1  0  0  0  0
  6  1  1  0  0  0  0
  7  6  2  0  0  0  0
  9  8  1  0  0  0  0
 10  9  2  0  0  0  0
 11 12  1  0  0  0  0
 11 10  1  0  0  0  0
 12 17  1  0  0  0  0
 13 14  1  0  0  0  0
 13 12  2  0  0  0  0
 14 15  2  0  0  0  0
 15 16  1  0  0  0  0
 15  2  1  0  0  0  0
 17  9  1  0  0  0  0
 17 16  2  0  0  0  0
 18 11  1  0  0  0  0
 20 19  1  1  0  0  0
 20 25  1  0  0  0  0
 20 21  1  0  0  0  0
 21 23  1  0  0  0  0
 21 22  1  0  0  0  0
 24 21  1  0  0  0  0
 26 25  1  0  0  0  0
 27 26  2  0  0  0  0
 28 29  1  0  0  0  0
 28 27  1  0  0  0  0
 29 34  1  0  0  0  0
 30 31  1  0  0  0  0
 30 29  2  0  0  0  0
 31 32  2  0  0  0  0
 32 33  1  0  0  0  0
 34 33  2  0  0  0  0
 34 26  1  0  0  0  0
 35 28  1  0  0  0  0
M  END
>  <minimizedAffinity>
-9.96103764

$$$$

 OpenBabel11232420403D

 35 39  0  0  1  0  0  0  0  0999 V2000
  -20.2290   22.2980   11.7020 O   0  0  0  0  0  0  0  0  0  0  0  0
  -21.1920   19.0580   13.2600 C   0  0  0  0  0  0  0  0  0  0  0  0
  -22.5260   19.3970   13.4700 C   0  0  0  0  0  3  0  0  0  0  0  0
  -23.0700   20.5790   13.1030 N   0  0  0  0  0  0  0  0  0  0  0  0
  -22.2580   21.4610   12.4840 C   0  0  0  0  0  3  0  0  0  0  0  0
  -20.9060   21.2440   12.2400 C   0  0  0  0  0  0  0  0  0  0  0  0
  -20.3800   20.0120   12.6200 C   0  0  0  0  0  3  0  0  0  0  0  0
  -20.4410   15.9580   18.0790 C   0  0  0  0  0  1  0  0  0  0  0  0
  -19.9940   15.5180   16.7350 C   0  0  0  0  0  0  0  0  0  0  0  0
  -19.3600   14.3490   16.5870 N   0  0  0  0  0  0  0  0  0  0  0  0
  -19.1250   14.2700   15.2660 N   0  0  0  0  0  0  0  0  0  0  0  0
  -19.5620   15.3580   14.5560 C   0  0  0  0  0  0  0  0  0  0  0  0
  -19.5040   15.6630   13.1950 C   0  0  0  0  0  3  0  0  0  0  0  0
  -20.0560   16.8870   12.7910 C   0  0  0  0  0  3  0  0  0  0  0  0
  -20.6430   17.7750   13.7070 C   0  0  0  0  0  0  0  0  0  0  0  0
  -20.6920   17.4220   15.0710 C   0  0  0  0  0  3  0  0  0  0  0  0
  -20.1390   16.1990   15.4970 C   0  0  0  0  0  0  0  0  0  0  0  0
  -18.6580   13.4430   14.9100 H   0  0  0  0  0  0  0  0  0  0  0  0
  -20.7340   22.9740   10.5450 C   0  0  0  0  0  2  0  0  0  0  0  0
  -19.5640   23.4360    9.6490 C   0  0  1  0  0  3  0  0  0  0  0  0
  -19.5310   24.9410    9.5850 N   0  0  0  0  0  4  0  0  0  0  0  0
  -19.3550   25.3780   10.4980 H   0  0  0  0  0  0  0  0  0  0  0  0
  -18.8200   25.2760    8.9230 H   0  0  0  0  0  0  0  0  0  0  0  0
  -20.4410   25.2900    9.2460 H   0  0  0  0  0  0  0  0  0  0  0  0
  -18.2010   22.9290   10.1420 C   0  0  0  0  0  2  0  0  0  0  0  0
  -17.5940   21.9470    9.1970 C   0  0  0  0  0  0  0  0  0  0  0  0
  -16.6420   22.2350    8.2390 C   0  0  0  0  0  3  0  0  0  0  0  0
  -16.3350   21.0770    7.5730 N   0  0  0  0  0  0  0  0  0  0  0  0
  -17.0790   20.0360    8.0740 C   0  0  0  0  0  0  0  0  0  0  0  0
  -17.0950   18.6880    7.6960 C   0  0  0  0  0  3  0  0  0  0  0  0
  -17.9470   17.8310    8.3950 C   0  0  0  0  0  3  0  0  0  0  0  0
  -18.7450   18.3040    9.4320 C   0  0  0  0  0  3  0  0  0  0  0  0
  -18.7170   19.6550    9.7990 C   0  0  0  0  0  3  0  0  0  0  0  0
  -17.8700   20.5450    9.1030 C   0  0  0  0  0  0  0  0  0  0  0  0
  -15.6560   20.9880    6.8280 H   0  0  0  0  0  0  0  0  0  0  0  0
  1  6  1  0  0  0  0
  2  3  1  0  0  0  0
  2 15  1  0  0  0  0
  4  3  2  0  0  0  0
  5  4  1  0  0  0  0
  6  5  2  0  0  0  0
  6  7  1  0  0  0  0
  7  2  2  0  0  0  0
  9  8  1  0  0  0  0
 10  9  2  0  0  0  0
 11 10  1  0  0  0  0
 12 11  1  0  0  0  0
 12 17  1  0  0  0  0
 13 12  2  0  0  0  0
 14 13  1  0  0  0  0
 14 15  2  0  0  0  0
 15 16  1  0  0  0  0
 16 17  2  0  0  0  0
 17  9  1  0  0  0  0
 18 11  1  0  0  0  0
 19  1  1  0  0  0  0
 20 25  1  1  0  0  0
 20 19  1  0  0  0  0
 21 20  1  0  0  0  0
 21 22  1  0  0  0  0
 23 21  1  0  0  0  0
 24 21  1  0  0  0  0
 26 25  1  0  0  0  0
 27 26  2  0  0  0  0
 28 29  1  0  0  0  0
 28 27  1  0  0  0  0
 29 34  1  0  0  0  0
 30 29  2  0  0  0  0
 30 31  1  0  0  0  0
 31 32  2  0  0  0  0
 32 33  1  0  0  0  0
 34 26  1  0  0  0  0
 34 33  2  0  0  0  0
 35 28  1  0  0  0  0
M  END
>  <minimizedAffinity>
-9.912323

$$$$

 OpenBabel11232420403D

 35 39  0  0  1  0  0  0  0  0999 V2000
  -17.8600   23.5380    9.6320 O   0  0  0  0  0  0  0  0  0  0  0  0
  -17.7800   27.1030   10.6950 C   0  0  0  0  0  0  0  0  0  0  0  0
  -16.3960   27.1780   10.8230 C   0  0  0  0  0  3  0  0  0  0  0  0
  -15.5580   26.1530   10.5530 N   0  0  0  0  0  0  0  0  0  0  0  0
  -16.1160   25.0020   10.1200 C   0  0  0  0  0  3  0  0  0  0  0  0
  -17.4850   24.8030    9.9750 C   0  0  0  0  0  0  0  0  0  0  0  0
  -18.3200   25.8830   10.2510 C   0  0  0  0  0  3  0  0  0  0  0  0
  -19.3670   30.3170   15.2280 C   0  0  0  0  0  1  0  0  0  0  0  0
  -19.8960   30.5060   13.8560 C   0  0  0  0  0  0  0  0  0  0  0  0
  -20.8080   31.4540   13.6110 N   0  0  0  0  0  0  0  0  0  0  0  0
  -21.0390   31.3520   12.2910 N   0  0  0  0  0  0  0  0  0  0  0  0
  -20.3270   30.3550   11.6760 C   0  0  0  0  0  0  0  0  0  0  0  0
  -20.2870   29.9270   10.3480 C   0  0  0  0  0  3  0  0  0  0  0  0
  -19.4320   28.8560   10.0490 C   0  0  0  0  0  3  0  0  0  0  0  0
  -18.6480   28.2350   11.0330 C   0  0  0  0  0  0  0  0  0  0  0  0
  -18.7080   28.7080   12.3590 C   0  0  0  0  0  3  0  0  0  0  0  0
  -19.5640   29.7790   12.6810 C   0  0  0  0  0  0  0  0  0  0  0  0
  -21.6990   31.9950   11.8690 H   0  0  0  0  0  0  0  0  0  0  0  0
  -19.1640   23.0480    9.9640 C   0  0  0  0  0  2  0  0  0  0  0  0
  -19.0890   22.1500   11.2180 C   0  0  1  0  0  3  0  0  0  0  0  0
  -18.6560   22.9660   12.4080 N   0  0  0  0  0  4  0  0  0  0  0  0
  -19.3250   23.7070   12.6520 H   0  0  0  0  0  0  0  0  0  0  0  0
  -18.5080   22.3760   13.2370 H   0  0  0  0  0  0  0  0  0  0  0  0
  -17.7540   23.4210   12.2020 H   0  0  0  0  0  0  0  0  0  0  0  0
  -20.4260   21.4680   11.5420 C   0  0  0  0  0  2  0  0  0  0  0  0
  -20.2710   19.9980   11.7410 C   0  0  0  0  0  0  0  0  0  0  0  0
  -20.6920   19.2860   12.8480 C   0  0  0  0  0  3  0  0  0  0  0  0
  -20.3740   17.9670   12.6590 N   0  0  0  0  0  0  0  0  0  0  0  0
  -19.7420   17.8030   11.4500 C   0  0  0  0  0  0  0  0  0  0  0  0
  -19.2430   16.6400   10.8540 C   0  0  0  0  0  3  0  0  0  0  0  0
  -18.6550   16.7590    9.5930 C   0  0  0  0  0  3  0  0  0  0  0  0
  -18.5750   17.9930    8.9550 C   0  0  0  0  0  3  0  0  0  0  0  0
  -19.0810   19.1490    9.5640 C   0  0  0  0  0  3  0  0  0  0  0  0
  -19.6730   19.0560   10.8420 C   0  0  0  0  0  0  0  0  0  0  0  0
  -20.5770   17.2140   13.3040 H   0  0  0  0  0  0  0  0  0  0  0  0
  1 19  1  0  0  0  0
  1  6  1  0  0  0  0
  2  3  1  0  0  0  0
  2 15  1  0  0  0  0
  4  3  2  0  0  0  0
  5  4  1  0  0  0  0
  6  5  2  0  0  0  0
  6  7  1  0  0  0  0
  7  2  2  0  0  0  0
  9  8  1  0  0  0  0
 10  9  2  0  0  0  0
 11 10  1  0  0  0  0
 12 11  1  0  0  0  0
 12 17  1  0  0  0  0
 13 12  2  0  0  0  0
 14 13  1  0  0  0  0
 14 15  2  0  0  0  0
 15 16  1  0  0  0  0
 16 17  2  0  0  0  0
 17  9  1  0  0  0  0
 18 11  1  0  0  0  0
 20 19  1  6  0  0  0
 20 25  1  0  0  0  0
 20 21  1  0  0  0  0
 21 22  1  0  0  0  0
 21 23  1  0  0  0  0
 24 21  1  0  0  0  0
 25 26  1  0  0  0  0
 26 27  2  0  0  0  0
 28 27  1  0  0  0  0
 28 35  1  0  0  0  0
 29 28  1  0  0  0  0
 30 29  1  0  0  0  0
 31 30  2  0  0  0  0
 32 33  2  0  0  0  0
 32 31  1  0  0  0  0
 33 34  1  0  0  0  0
 34 29  2  0  0  0  0
 34 26  1  0  0  0  0
M  END
>  <minimizedAffinity>
-9.90231609

$$$$

 OpenBabel11232420403D

 35 39  0  0  1  0  0  0  0  0999 V2000
  -18.0680   22.2550    8.2990 O   0  0  0  0  0  0  0  0  0  0  0  0
  -18.8880   18.9490    9.7980 C   0  0  0  0  0  0  0  0  0  0  0  0
  -18.2670   18.1910    8.8090 C   0  0  0  0  0  3  0  0  0  0  0  0
  -17.6100   18.7230    7.7540 N   0  0  0  0  0  0  0  0  0  0  0  0
  -17.5490   20.0690    7.6850 C   0  0  0  0  0  3  0  0  0  0  0  0
  -18.1480   20.9280    8.6000 C   0  0  0  0  0  0  0  0  0  0  0  0
  -18.8080   20.3490    9.6810 C   0  0  0  0  0  3  0  0  0  0  0  0
  -22.7610   20.2370   13.8880 C   0  0  0  0  0  1  0  0  0  0  0  0
  -22.1490   18.8960   13.7230 C   0  0  0  0  0  0  0  0  0  0  0  0
  -22.4710   17.9030   14.5590 N   0  0  0  0  0  0  0  0  0  0  0  0
  -21.7570   16.8560   14.1110 N   0  0  0  0  0  0  0  0  0  0  0  0
  -20.9650   17.1420   13.0300 C   0  0  0  0  0  0  0  0  0  0  0  0
  -20.0860   16.3520   12.2870 C   0  0  0  0  0  3  0  0  0  0  0  0
  -19.4180   16.9700   11.2210 C   0  0  0  0  0  3  0  0  0  0  0  0
  -19.6170   18.3230   10.9050 C   0  0  0  0  0  0  0  0  0  0  0  0
  -20.5240   19.0820   11.6720 C   0  0  0  0  0  3  0  0  0  0  0  0
  -21.2010   18.4810   12.7500 C   0  0  0  0  0  0  0  0  0  0  0  0
  -21.8550   15.9680   14.5920 H   0  0  0  0  0  0  0  0  0  0  0  0
  -17.5210   23.1850    9.2400 C   0  0  0  0  0  2  0  0  0  0  0  0
  -18.5310   24.3220    9.5100 C   0  0  1  0  0  3  0  0  0  0  0  0
  -19.9270   23.8540    9.1910 N   0  0  0  0  0  4  0  0  0  0  0  0
  -20.2370   23.0770    9.7870 H   0  0  0  0  0  0  0  0  0  0  0  0
  -20.6100   24.6180    9.2730 H   0  0  0  0  0  0  0  0  0  0  0  0
  -19.9640   23.5260    8.2130 H   0  0  0  0  0  0  0  0  0  0  0  0
  -18.4930   24.8200   10.9620 C   0  0  0  0  0  2  0  0  0  0  0  0
  -17.9050   26.1860   11.0700 C   0  0  0  0  0  0  0  0  0  0  0  0
  -16.6320   26.5490   10.6740 C   0  0  0  0  0  3  0  0  0  0  0  0
  -16.4640   27.8830   10.9320 N   0  0  0  0  0  0  0  0  0  0  0  0
  -17.6030   28.4010   11.5000 C   0  0  0  0  0  0  0  0  0  0  0  0
  -17.8750   29.7060   11.9250 C   0  0  0  0  0  3  0  0  0  0  0  0
  -19.1400   29.9630   12.4560 C   0  0  0  0  0  3  0  0  0  0  0  0
  -20.0940   28.9540   12.5540 C   0  0  0  0  0  3  0  0  0  0  0  0
  -19.8070   27.6530   12.1230 C   0  0  0  0  0  3  0  0  0  0  0  0
  -18.5330   27.3650   11.5880 C   0  0  0  0  0  0  0  0  0  0  0  0
  -15.6300   28.4220   10.7300 H   0  0  0  0  0  0  0  0  0  0  0  0
  1  6  1  0  0  0  0
  1 19  1  0  0  0  0
  2 15  1  0  0  0  0
  3  2  2  0  0  0  0
  4  3  1  0  0  0  0
  5  4  2  0  0  0  0
  5  6  1  0  0  0  0
  6  7  2  0  0  0  0
  7  2  1  0  0  0  0
  9  8  1  0  0  0  0
  9 10  2  0  0  0  0
 11 10  1  0  0  0  0
 11 18  1  0  0  0  0
 12 11  1  0  0  0  0
 13 12  2  0  0  0  0
 14 13  1  0  0  0  0
 15 14  2  0  0  0  0
 15 16  1  0  0  0  0
 16 17  2  0  0  0  0
 17 12  1  0  0  0  0
 17  9  1  0  0  0  0
 20 19  1  1  0  0  0
 20 25  1  0  0  0  0
 21 23  1  0  0  0  0
 21 20  1  0  0  0  0
 21 22  1  0  0  0  0
 24 21  1  0  0  0  0
 25 26  1  0  0  0  0
 26 34  1  0  0  0  0
 27 28  1  0  0  0  0
 27 26  2  0  0  0  0
 28 29  1  0  0  0  0
 29 34  2  0  0  0  0
 29 30  1  0  0  0  0
 30 31  2  0  0  0  0
 31 32  1  0  0  0  0
 33 32  2  0  0  0  0
 34 33  1  0  0  0  0
 35 28  1  0  0  0  0
M  END
>  <minimizedAffinity>
-9.84819508

$$$$
