
 OpenBabel11232420403D

 35 39  0  0  1  0  0  0  0  0999 V2000
  -21.6200   30.1700   14.3600 O   0  0  0  0  0  0  0  0  0  0  0  0
  -19.2650   28.8780   11.7840 C   0  0  0  0  0  0  0  0  0  0  0  0
  -19.3600   29.9830   10.9430 C   0  0  0  0  0  3  0  0  0  0  0  0
  -20.1110   31.0740   11.2140 N   0  0  0  0  0  0  0  0  0  0  0  0
  -20.7870   31.0770   12.3820 C   0  0  0  0  0  3  0  0  0  0  0  0
  -20.7870   30.0230   13.2900 C   0  0  0  0  0  0  0  0  0  0  0  0
  -19.9940   28.9200   12.9860 C   0  0  0  0  0  3  0  0  0  0  0  0
  -19.3600   23.1130   12.1740 C   0  0  0  0  0  1  0  0  0  0  0  0
  -18.2470   23.8810   11.5670 C   0  0  0  0  0  0  0  0  0  0  0  0
  -17.1740   23.2430   11.0850 N   0  0  0  0  0  0  0  0  0  0  0  0
  -16.3950   24.2300   10.6090 N   0  0  0  0  0  0  0  0  0  0  0  0
  -16.9130   25.4860   10.7870 C   0  0  0  0  0  0  0  0  0  0  0  0
  -16.4250   26.7490   10.4490 C   0  0  0  0  0  3  0  0  0  0  0  0
  -17.2230   27.8520   10.7820 C   0  0  0  0  0  3  0  0  0  0  0  0
  -18.4610   27.7050   11.4270 C   0  0  0  0  0  0  0  0  0  0  0  0
  -18.9240   26.4110   11.7390 C   0  0  0  0  0  3  0  0  0  0  0  0
  -18.1340   25.2900   11.4170 C   0  0  0  0  0  0  0  0  0  0  0  0
  -15.5150   23.9770   10.1720 H   0  0  0  0  0  0  0  0  0  0  0  0
  -21.0890   30.3630   15.6760 C   0  0  0  0  0  2  0  0  0  0  0  0
  -20.9740   31.8710   15.9840 C   0  0  1  0  0  3  0  0  0  0  0  0
  -21.9030   32.2360   17.1130 N   0  0  0  0  0  4  0  0  0  0  0  0
  -21.6670   31.7660   17.9950 H   0  0  0  0  0  0  0  0  0  0  0  0
  -21.9160   33.2500   17.2790 H   0  0  0  0  0  0  0  0  0  0  0  0
  -22.8670   31.9630   16.8660 H   0  0  0  0  0  0  0  0  0  0  0  0
  -19.5460   32.2950   16.3580 C   0  0  0  0  0  2  0  0  0  0  0  0
  -18.6630   32.4030   15.1610 C   0  0  0  0  0  0  0  0  0  0  0  0
  -18.5580   33.5040   14.3340 C   0  0  0  0  0  3  0  0  0  0  0  0
  -17.6470   33.2210   13.3510 N   0  0  0  0  0  0  0  0  0  0  0  0
  -17.1580   31.9470   13.5150 C   0  0  0  0  0  0  0  0  0  0  0  0
  -16.2200   31.2450   12.7500 C   0  0  0  0  0  3  0  0  0  0  0  0
  -15.8880   29.9530   13.1580 C   0  0  0  0  0  3  0  0  0  0  0  0
  -16.4700   29.3890   14.2900 C   0  0  0  0  0  3  0  0  0  0  0  0
  -17.4070   30.1040   15.0460 C   0  0  0  0  0  3  0  0  0  0  0  0
  -17.7650   31.4100   14.6500 C   0  0  0  0  0  0  0  0  0  0  0  0
  -17.3610   33.8520   12.6130 H   0  0  0  0  0  0  0  0  0  0  0  0
  1 19  1  0  0  0  0
  2  7  1  0  0  0  0
  3  4  1  0  0  0  0
  3  2  2  0  0  0  0
  4  5  2  0  0  0  0
  5  6  1  0  0  0  0
  6  1  1  0  0  0  0
  7  6  2  0  0  0  0
  9  8  1  0  0  0  0
 10  9  2  0  0  0  0
 11 12  1  0  0  0  0
 11 10  1  0  0  0  0
 12 17  1  0  0  0  0
 13 14  1  0  0  0  0
 13 12  2  0  0  0  0
 14 15  2  0  0  0  0
 15 16  1  0  0  0  0
 15  2  1  0  0  0  0
 17  9  1  0  0  0  0
 17 16  2  0  0  0  0
 18 11  1  0  0  0  0
 20 19  1  1  0  0  0
 20 25  1  0  0  0  0
 20 21  1  0  0  0  0
 21 23  1  0  0  0  0
 21 22  1  0  0  0  0
 24 21  1  0  0  0  0
 26 25  1  0  0  0  0
 27 26  2  0  0  0  0
 28 29  1  0  0  0  0
 28 27  1  0  0  0  0
 29 34  1  0  0  0  0
 30 31  1  0  0  0  0
 30 29  2  0  0  0  0
 31 32  2  0  0  0  0
 32 33  1  0  0  0  0
 34 33  2  0  0  0  0
 34 26  1  0  0  0  0
 35 28  1  0  0  0  0
M  END
>  <minimizedAffinity>
-9.96103764

$$$$
