
 OpenBabel11232420403D

 35 39  0  0  1  0  0  0  0  0999 V2000
  -20.2290   22.2980   11.7020 O   0  0  0  0  0  0  0  0  0  0  0  0
  -21.1920   19.0580   13.2600 C   0  0  0  0  0  0  0  0  0  0  0  0
  -22.5260   19.3970   13.4700 C   0  0  0  0  0  3  0  0  0  0  0  0
  -23.0700   20.5790   13.1030 N   0  0  0  0  0  0  0  0  0  0  0  0
  -22.2580   21.4610   12.4840 C   0  0  0  0  0  3  0  0  0  0  0  0
  -20.9060   21.2440   12.2400 C   0  0  0  0  0  0  0  0  0  0  0  0
  -20.3800   20.0120   12.6200 C   0  0  0  0  0  3  0  0  0  0  0  0
  -20.4410   15.9580   18.0790 C   0  0  0  0  0  1  0  0  0  0  0  0
  -19.9940   15.5180   16.7350 C   0  0  0  0  0  0  0  0  0  0  0  0
  -19.3600   14.3490   16.5870 N   0  0  0  0  0  0  0  0  0  0  0  0
  -19.1250   14.2700   15.2660 N   0  0  0  0  0  0  0  0  0  0  0  0
  -19.5620   15.3580   14.5560 C   0  0  0  0  0  0  0  0  0  0  0  0
  -19.5040   15.6630   13.1950 C   0  0  0  0  0  3  0  0  0  0  0  0
  -20.0560   16.8870   12.7910 C   0  0  0  0  0  3  0  0  0  0  0  0
  -20.6430   17.7750   13.7070 C   0  0  0  0  0  0  0  0  0  0  0  0
  -20.6920   17.4220   15.0710 C   0  0  0  0  0  3  0  0  0  0  0  0
  -20.1390   16.1990   15.4970 C   0  0  0  0  0  0  0  0  0  0  0  0
  -18.6580   13.4430   14.9100 H   0  0  0  0  0  0  0  0  0  0  0  0
  -20.7340   22.9740   10.5450 C   0  0  0  0  0  2  0  0  0  0  0  0
  -19.5640   23.4360    9.6490 C   0  0  1  0  0  3  0  0  0  0  0  0
  -19.5310   24.9410    9.5850 N   0  0  0  0  0  4  0  0  0  0  0  0
  -19.3550   25.3780   10.4980 H   0  0  0  0  0  0  0  0  0  0  0  0
  -18.8200   25.2760    8.9230 H   0  0  0  0  0  0  0  0  0  0  0  0
  -20.4410   25.2900    9.2460 H   0  0  0  0  0  0  0  0  0  0  0  0
  -18.2010   22.9290   10.1420 C   0  0  0  0  0  2  0  0  0  0  0  0
  -17.5940   21.9470    9.1970 C   0  0  0  0  0  0  0  0  0  0  0  0
  -16.6420   22.2350    8.2390 C   0  0  0  0  0  3  0  0  0  0  0  0
  -16.3350   21.0770    7.5730 N   0  0  0  0  0  0  0  0  0  0  0  0
  -17.0790   20.0360    8.0740 C   0  0  0  0  0  0  0  0  0  0  0  0
  -17.0950   18.6880    7.6960 C   0  0  0  0  0  3  0  0  0  0  0  0
  -17.9470   17.8310    8.3950 C   0  0  0  0  0  3  0  0  0  0  0  0
  -18.7450   18.3040    9.4320 C   0  0  0  0  0  3  0  0  0  0  0  0
  -18.7170   19.6550    9.7990 C   0  0  0  0  0  3  0  0  0  0  0  0
  -17.8700   20.5450    9.1030 C   0  0  0  0  0  0  0  0  0  0  0  0
  -15.6560   20.9880    6.8280 H   0  0  0  0  0  0  0  0  0  0  0  0
  1  6  1  0  0  0  0
  2  3  1  0  0  0  0
  2 15  1  0  0  0  0
  4  3  2  0  0  0  0
  5  4  1  0  0  0  0
  6  5  2  0  0  0  0
  6  7  1  0  0  0  0
  7  2  2  0  0  0  0
  9  8  1  0  0  0  0
 10  9  2  0  0  0  0
 11 10  1  0  0  0  0
 12 11  1  0  0  0  0
 12 17  1  0  0  0  0
 13 12  2  0  0  0  0
 14 13  1  0  0  0  0
 14 15  2  0  0  0  0
 15 16  1  0  0  0  0
 16 17  2  0  0  0  0
 17  9  1  0  0  0  0
 18 11  1  0  0  0  0
 19  1  1  0  0  0  0
 20 25  1  1  0  0  0
 20 19  1  0  0  0  0
 21 20  1  0  0  0  0
 21 22  1  0  0  0  0
 23 21  1  0  0  0  0
 24 21  1  0  0  0  0
 26 25  1  0  0  0  0
 27 26  2  0  0  0  0
 28 29  1  0  0  0  0
 28 27  1  0  0  0  0
 29 34  1  0  0  0  0
 30 29  2  0  0  0  0
 30 31  1  0  0  0  0
 31 32  2  0  0  0  0
 32 33  1  0  0  0  0
 34 26  1  0  0  0  0
 34 33  2  0  0  0  0
 35 28  1  0  0  0  0
M  END
>  <minimizedAffinity>
-9.912323

$$$$
