
 OpenBabel11232420403D

 35 39  0  0  1  0  0  0  0  0999 V2000
  -17.8600   23.5380    9.6320 O   0  0  0  0  0  0  0  0  0  0  0  0
  -17.7800   27.1030   10.6950 C   0  0  0  0  0  0  0  0  0  0  0  0
  -16.3960   27.1780   10.8230 C   0  0  0  0  0  3  0  0  0  0  0  0
  -15.5580   26.1530   10.5530 N   0  0  0  0  0  0  0  0  0  0  0  0
  -16.1160   25.0020   10.1200 C   0  0  0  0  0  3  0  0  0  0  0  0
  -17.4850   24.8030    9.9750 C   0  0  0  0  0  0  0  0  0  0  0  0
  -18.3200   25.8830   10.2510 C   0  0  0  0  0  3  0  0  0  0  0  0
  -19.3670   30.3170   15.2280 C   0  0  0  0  0  1  0  0  0  0  0  0
  -19.8960   30.5060   13.8560 C   0  0  0  0  0  0  0  0  0  0  0  0
  -20.8080   31.4540   13.6110 N   0  0  0  0  0  0  0  0  0  0  0  0
  -21.0390   31.3520   12.2910 N   0  0  0  0  0  0  0  0  0  0  0  0
  -20.3270   30.3550   11.6760 C   0  0  0  0  0  0  0  0  0  0  0  0
  -20.2870   29.9270   10.3480 C   0  0  0  0  0  3  0  0  0  0  0  0
  -19.4320   28.8560   10.0490 C   0  0  0  0  0  3  0  0  0  0  0  0
  -18.6480   28.2350   11.0330 C   0  0  0  0  0  0  0  0  0  0  0  0
  -18.7080   28.7080   12.3590 C   0  0  0  0  0  3  0  0  0  0  0  0
  -19.5640   29.7790   12.6810 C   0  0  0  0  0  0  0  0  0  0  0  0
  -21.6990   31.9950   11.8690 H   0  0  0  0  0  0  0  0  0  0  0  0
  -19.1640   23.0480    9.9640 C   0  0  0  0  0  2  0  0  0  0  0  0
  -19.0890   22.1500   11.2180 C   0  0  1  0  0  3  0  0  0  0  0  0
  -18.6560   22.9660   12.4080 N   0  0  0  0  0  4  0  0  0  0  0  0
  -19.3250   23.7070   12.6520 H   0  0  0  0  0  0  0  0  0  0  0  0
  -18.5080   22.3760   13.2370 H   0  0  0  0  0  0  0  0  0  0  0  0
  -17.7540   23.4210   12.2020 H   0  0  0  0  0  0  0  0  0  0  0  0
  -20.4260   21.4680   11.5420 C   0  0  0  0  0  2  0  0  0  0  0  0
  -20.2710   19.9980   11.7410 C   0  0  0  0  0  0  0  0  0  0  0  0
  -20.6920   19.2860   12.8480 C   0  0  0  0  0  3  0  0  0  0  0  0
  -20.3740   17.9670   12.6590 N   0  0  0  0  0  0  0  0  0  0  0  0
  -19.7420   17.8030   11.4500 C   0  0  0  0  0  0  0  0  0  0  0  0
  -19.2430   16.6400   10.8540 C   0  0  0  0  0  3  0  0  0  0  0  0
  -18.6550   16.7590    9.5930 C   0  0  0  0  0  3  0  0  0  0  0  0
  -18.5750   17.9930    8.9550 C   0  0  0  0  0  3  0  0  0  0  0  0
  -19.0810   19.1490    9.5640 C   0  0  0  0  0  3  0  0  0  0  0  0
  -19.6730   19.0560   10.8420 C   0  0  0  0  0  0  0  0  0  0  0  0
  -20.5770   17.2140   13.3040 H   0  0  0  0  0  0  0  0  0  0  0  0
  1 19  1  0  0  0  0
  1  6  1  0  0  0  0
  2  3  1  0  0  0  0
  2 15  1  0  0  0  0
  4  3  2  0  0  0  0
  5  4  1  0  0  0  0
  6  5  2  0  0  0  0
  6  7  1  0  0  0  0
  7  2  2  0  0  0  0
  9  8  1  0  0  0  0
 10  9  2  0  0  0  0
 11 10  1  0  0  0  0
 12 11  1  0  0  0  0
 12 17  1  0  0  0  0
 13 12  2  0  0  0  0
 14 13  1  0  0  0  0
 14 15  2  0  0  0  0
 15 16  1  0  0  0  0
 16 17  2  0  0  0  0
 17  9  1  0  0  0  0
 18 11  1  0  0  0  0
 20 19  1  6  0  0  0
 20 25  1  0  0  0  0
 20 21  1  0  0  0  0
 21 22  1  0  0  0  0
 21 23  1  0  0  0  0
 24 21  1  0  0  0  0
 25 26  1  0  0  0  0
 26 27  2  0  0  0  0
 28 27  1  0  0  0  0
 28 35  1  0  0  0  0
 29 28  1  0  0  0  0
 30 29  1  0  0  0  0
 31 30  2  0  0  0  0
 32 33  2  0  0  0  0
 32 31  1  0  0  0  0
 33 34  1  0  0  0  0
 34 29  2  0  0  0  0
 34 26  1  0  0  0  0
M  END
>  <minimizedAffinity>
-9.90231609

$$$$
