
 OpenBabel11232420403D

 35 39  0  0  1  0  0  0  0  0999 V2000
  -18.5140   19.3200    8.2400 O   0  0  0  0  0  0  0  0  0  0  0  0
  -20.0120   18.2050   11.4590 C   0  0  0  0  0  0  0  0  0  0  0  0
  -19.5900   16.8820   11.3560 C   0  0  0  0  0  3  0  0  0  0  0  0
  -18.8500   16.4050   10.3310 N   0  0  0  0  0  0  0  0  0  0  0  0
  -18.4970   17.2830    9.3690 C   0  0  0  0  0  3  0  0  0  0  0  0
  -18.8770   18.6210    9.3520 C   0  0  0  0  0  0  0  0  0  0  0  0
  -19.6290   19.0830   10.4290 C   0  0  0  0  0  3  0  0  0  0  0  0
  -21.0510   17.0430   17.0230 C   0  0  0  0  0  1  0  0  0  0  0  0
  -21.7490   18.1030   16.2560 C   0  0  0  0  0  0  0  0  0  0  0  0
  -22.6940   18.8460   16.8440 N   0  0  0  0  0  0  0  0  0  0  0  0
  -23.0870   19.6950   15.8790 N   0  0  0  0  0  0  0  0  0  0  0  0
  -22.4480   19.5130   14.6800 C   0  0  0  0  0  0  0  0  0  0  0  0
  -22.5700   20.1680   13.4540 C   0  0  0  0  0  3  0  0  0  0  0  0
  -21.7490   19.7220   12.4080 C   0  0  0  0  0  3  0  0  0  0  0  0
  -20.8410   18.6650   12.5760 C   0  0  0  0  0  0  0  0  0  0  0  0
  -20.7400   18.0400   13.8350 C   0  0  0  0  0  3  0  0  0  0  0  0
  -21.5600   18.4690   14.8970 C   0  0  0  0  0  0  0  0  0  0  0  0
  -23.8010   20.3790   16.1040 H   0  0  0  0  0  0  0  0  0  0  0  0
  -17.1320   19.4830    7.9000 C   0  0  0  0  0  2  0  0  0  0  0  0
  -16.7050   20.9520    8.1090 C   0  0  1  0  0  3  0  0  0  0  0  0
  -15.9810   21.4550    6.8880 N   0  0  0  0  0  4  0  0  0  0  0  0
  -16.5710   21.4670    6.0470 H   0  0  0  0  0  0  0  0  0  0  0  0
  -15.6040   22.4000    7.0330 H   0  0  0  0  0  0  0  0  0  0  0  0
  -15.1750   20.8410    6.6890 H   0  0  0  0  0  0  0  0  0  0  0  0
  -17.8930   21.8820    8.4000 C   0  0  0  0  0  2  0  0  0  0  0  0
  -17.9040   22.3480    9.8170 C   0  0  0  0  0  0  0  0  0  0  0  0
  -17.0330   21.9370   10.8070 C   0  0  0  0  0  3  0  0  0  0  0  0
  -17.3600   22.5880   11.9680 N   0  0  0  0  0  0  0  0  0  0  0  0
  -18.4380   23.4130   11.7560 C   0  0  0  0  0  0  0  0  0  0  0  0
  -19.1060   24.2560   12.6520 C   0  0  0  0  0  3  0  0  0  0  0  0
  -20.1740   25.0070   12.1590 C   0  0  0  0  0  3  0  0  0  0  0  0
  -20.5550   24.9200   10.8240 C   0  0  0  0  0  3  0  0  0  0  0  0
  -19.8760   24.0730    9.9390 C   0  0  0  0  0  3  0  0  0  0  0  0
  -18.7960   23.2970   10.4140 C   0  0  0  0  0  0  0  0  0  0  0  0
  -16.8790   22.4910   12.8530 H   0  0  0  0  0  0  0  0  0  0  0  0
  1  6  1  0  0  0  0
  2 15  1  0  0  0  0
  3  2  1  0  0  0  0
  4  3  2  0  0  0  0
  5  4  1  0  0  0  0
  6  5  2  0  0  0  0
  6  7  1  0  0  0  0
  7  2  2  0  0  0  0
  9 10  2  0  0  0  0
  9  8  1  0  0  0  0
 11 18  1  0  0  0  0
 11 10  1  0  0  0  0
 12 17  1  0  0  0  0
 12 11  1  0  0  0  0
 13 12  2  0  0  0  0
 14 15  2  0  0  0  0
 14 13  1  0  0  0  0
 15 16  1  0  0  0  0
 16 17  2  0  0  0  0
 17  9  1  0  0  0  0
 19  1  1  0  0  0  0
 20 19  1  6  0  0  0
 20 25  1  0  0  0  0
 21 23  1  0  0  0  0
 21 20  1  0  0  0  0
 22 21  1  0  0  0  0
 24 21  1  0  0  0  0
 25 26  1  0  0  0  0
 26 34  1  0  0  0  0
 26 27  2  0  0  0  0
 27 28  1  0  0  0  0
 28 35  1  0  0  0  0
 29 28  1  0  0  0  0
 29 30  1  0  0  0  0
 31 30  2  0  0  0  0
 32 31  1  0  0  0  0
 33 34  1  0  0  0  0
 33 32  2  0  0  0  0
 34 29  2  0  0  0  0
M  END
>  <minimizedAffinity>
-10.9483147

$$$$
