
 OpenBabel11232420163D

 42 48  0  0  1  0  0  0  0  0999 V2000
    2.1450    5.9910   -7.0630 C   0  0  0  0  0  0  0  0  0  0  0  0
    0.7780    5.8960   -6.8440 N   0  0  0  0  0  0  0  0  0  0  0  0
    0.3720    4.8620   -7.5430 C   0  0  0  0  0  0  0  0  0  0  0  0
    1.4000    4.3350   -8.2690 N   0  0  0  0  0  0  0  0  0  0  0  0
    2.5680    4.9700   -7.9120 C   0  0  0  0  0  0  0  0  0  0  0  0
    1.2250    3.1370   -9.0710 C   0  0  0  0  0  2  0  0  0  0  0  0
   -0.1400    2.9320   -9.4970 O   0  0  0  0  0  0  0  0  0  0  0  0
   -1.1060    3.2350   -8.5710 C   0  0  0  0  0  0  0  0  0  0  0  0
   -2.3220    2.5660   -8.6650 C   0  0  0  0  0  3  0  0  0  0  0  0
   -3.3280    2.8250   -7.7280 C   0  0  0  0  0  3  0  0  0  0  0  0
   -3.1350    3.7710   -6.7090 C   0  0  0  0  0  0  0  0  0  0  0  0
   -1.9270    4.4830   -6.6640 C   0  0  0  0  0  3  0  0  0  0  0  0
   -0.9150    4.2100   -7.5880 C   0  0  0  0  0  0  0  0  0  0  0  0
   -4.1540    4.0000   -5.6900 C   0  0  0  0  0  0  0  0  0  0  0  0
   -5.3080    4.7610   -5.6980 C   0  0  0  0  0  3  0  0  0  0  0  0
   -5.8500    4.6300   -4.4070 C   0  0  0  0  0  3  0  0  0  0  0  0
   -5.1020    3.8580   -3.6200 N   0  0  0  0  0  0  0  0  0  0  0  0
   -4.0850    3.4890   -4.4170 N   0  0  0  0  0  0  0  0  0  0  0  0
   -3.3580    2.9020   -4.0230 H   0  0  0  0  0  0  0  0  0  0  0  0
    4.3790    8.9920   -4.8280 C   0  0  0  0  0  0  0  0  0  0  0  0
    2.9760    8.8490   -4.7520 C   0  0  0  0  0  3  0  0  0  0  0  0
    2.2770    7.8800   -5.4870 C   0  0  0  0  0  3  0  0  0  0  0  0
    2.9320    7.0080   -6.3640 C   0  0  0  0  0  0  0  0  0  0  0  0
    4.3060    7.1740   -6.5090 C   0  0  0  0  0  3  0  0  0  0  0  0
    5.0050    8.1340   -5.7560 C   0  0  0  0  0  3  0  0  0  0  0  0
    6.0930   10.5320   -0.6400 C   0  0  0  0  0  1  0  0  0  0  0  0
    5.4220    9.7810   -1.7810 C   0  0  1  0  0  0  0  0  0  0  0  0
    4.5490   10.6860   -2.6890 C   0  0  0  0  0  2  0  0  0  0  0  0
    5.2160   10.0430   -3.9410 C   0  0  1  0  0  0  0  0  0  0  0  0
    6.3290    9.4940   -3.0060 C   0  0  0  0  0  2  0  0  0  0  0  0
    5.7410   11.1160   -4.8270 N   0  0  0  0  0  4  0  0  0  0  0  0
    6.4640   10.7580   -5.4630 H   0  0  0  0  0  0  0  0  0  0  0  0
    4.9850   11.5060   -5.4070 H   0  0  0  0  0  0  0  0  0  0  0  0
    6.1600   11.8970   -4.3080 H   0  0  0  0  0  0  0  0  0  0  0  0
    4.7270    8.6330   -1.2630 O   0  0  0  0  0  0  0  0  0  0  0  0
    5.3600    8.1470   -0.7000 H   0  0  0  0  0  0  0  0  0  0  0  0
    3.8770    4.4760   -8.3140 C   0  0  0  0  0  0  0  0  0  0  0  0
    4.4210    3.3250   -7.7360 C   0  0  0  0  0  3  0  0  0  0  0  0
    5.6900    2.8850   -8.1180 C   0  0  0  0  0  3  0  0  0  0  0  0
    6.4170    3.5890   -9.0770 C   0  0  0  0  0  3  0  0  0  0  0  0
    5.8800    4.7380   -9.6570 C   0  0  0  0  0  3  0  0  0  0  0  0
    4.6140    5.1810   -9.2760 C   0  0  0  0  0  3  0  0  0  0  0  0
  1  2  1  0  0  0  0
  1 23  1  0  0  0  0
  3  2  2  0  0  0  0
  4  5  1  0  0  0  0
  4  3  1  0  0  0  0
  5  1  2  0  0  0  0
  6  4  1  0  0  0  0
  7  6  1  0  0  0  0
  7  8  1  0  0  0  0
  8 13  1  0  0  0  0
  9  8  2  0  0  0  0
  9 10  1  0  0  0  0
 10 11  2  0  0  0  0
 11 12  1  0  0  0  0
 11 14  1  0  0  0  0
 13  3  1  0  0  0  0
 13 12  2  0  0  0  0
 14 18  1  0  0  0  0
 15 14  2  0  0  0  0
 15 16  1  0  0  0  0
 16 17  2  0  0  0  0
 18 19  1  0  0  0  0
 18 17  1  0  0  0  0
 20 21  1  0  0  0  0
 20 29  1  0  0  0  0
 22 21  2  0  0  0  0
 23 22  1  0  0  0  0
 24 23  2  0  0  0  0
 24 25  1  0  0  0  0
 25 20  2  0  0  0  0
 27 35  1  0  0  0  0
 27 26  1  1  0  0  0
 28 27  1  0  0  0  0
 29 31  1  6  0  0  0
 29 30  1  0  0  0  0
 29 28  1  0  0  0  0
 30 27  1  0  0  0  0
 31 34  1  0  0  0  0
 32 31  1  0  0  0  0
 33 31  1  0  0  0  0
 35 36  1  0  0  0  0
 37  5  1  0  0  0  0
 37 38  1  0  0  0  0
 39 38  2  0  0  0  0
 40 39  1  0  0  0  0
 41 42  1  0  0  0  0
 41 40  2  0  0  0  0
 42 37  2  0  0  0  0
M  END
>  <minimizedAffinity>
-12.5141821

$$$$
