
 OpenBabel11232420163D

 42 48  0  0  1  0  0  0  0  0999 V2000
    2.0890    4.8260   -7.9660 C   0  0  0  0  0  0  0  0  0  0  0  0
    2.4110    5.9100   -7.1620 N   0  0  0  0  0  0  0  0  0  0  0  0
    1.2670    6.4260   -6.7760 C   0  0  0  0  0  0  0  0  0  0  0  0
    0.2210    5.7740   -7.3610 N   0  0  0  0  0  0  0  0  0  0  0  0
    0.7050    4.6850   -8.0510 C   0  0  0  0  0  0  0  0  0  0  0  0
   -1.1560    6.1070   -7.0400 C   0  0  0  0  0  2  0  0  0  0  0  0
   -1.3180    7.4670   -6.5790 O   0  0  0  0  0  0  0  0  0  0  0  0
   -0.3300    7.9390   -5.7520 C   0  0  0  0  0  0  0  0  0  0  0  0
   -0.6670    8.9440   -4.8520 C   0  0  0  0  0  3  0  0  0  0  0  0
    0.3020    9.4400   -3.9730 C   0  0  0  0  0  3  0  0  0  0  0  0
    1.6180    8.9510   -4.0050 C   0  0  0  0  0  0  0  0  0  0  0  0
    1.9580    7.9820   -4.9590 C   0  0  0  0  0  3  0  0  0  0  0  0
    0.9860    7.4740   -5.8240 C   0  0  0  0  0  0  0  0  0  0  0  0
    2.6170    9.4160   -3.0490 C   0  0  0  0  0  0  0  0  0  0  0  0
    3.4490   10.5200   -3.0510 C   0  0  0  0  0  3  0  0  0  0  0  0
    4.2290   10.4020   -1.8860 C   0  0  0  0  0  3  0  0  0  0  0  0
    3.9370    9.3030   -1.1920 N   0  0  0  0  0  0  0  0  0  0  0  0
    2.9610    8.7250   -1.9120 N   0  0  0  0  0  0  0  0  0  0  0  0
    2.5850    7.8420   -1.5860 H   0  0  0  0  0  0  0  0  0  0  0  0
    5.3710    2.4050   -9.5010 C   0  0  0  0  0  0  0  0  0  0  0  0
    5.3990    3.8160   -9.4560 C   0  0  0  0  0  3  0  0  0  0  0  0
    4.3270    4.5760   -8.9640 C   0  0  0  0  0  3  0  0  0  0  0  0
    3.1480    3.9750   -8.5090 C   0  0  0  0  0  0  0  0  0  0  0  0
    3.0670    2.5880   -8.6070 C   0  0  0  0  0  3  0  0  0  0  0  0
    4.1520    1.8310   -9.0830 C   0  0  0  0  0  3  0  0  0  0  0  0
    7.6850   -1.7680   -9.7800 C   0  0  0  0  0  1  0  0  0  0  0  0
    6.7110   -0.6280   -9.5200 C   0  0  1  0  0  0  0  0  0  0  0  0
    7.3880    0.6450   -8.9480 C   0  0  0  0  0  2  0  0  0  0  0  0
    6.6130    1.5050   -9.9890 C   0  0  1  0  0  0  0  0  0  0  0  0
    6.3100    0.1960  -10.7710 C   0  0  0  0  0  2  0  0  0  0  0  0
    7.5720    2.3640  -10.7330 N   0  0  0  0  0  4  0  0  0  0  0  0
    7.1790    2.6790  -11.6280 H   0  0  0  0  0  0  0  0  0  0  0  0
    7.8030    3.2040  -10.1840 H   0  0  0  0  0  0  0  0  0  0  0  0
    8.4560    1.8870  -10.9460 H   0  0  0  0  0  0  0  0  0  0  0  0
    5.6060   -1.1040   -8.7320 O   0  0  0  0  0  0  0  0  0  0  0  0
    5.2690   -1.9080   -9.1710 H   0  0  0  0  0  0  0  0  0  0  0  0
   -0.1680    3.6450   -8.5750 C   0  0  0  0  0  0  0  0  0  0  0  0
   -0.8770    2.7990   -7.7160 C   0  0  0  0  0  3  0  0  0  0  0  0
   -1.6880    1.7900   -8.2410 C   0  0  0  0  0  3  0  0  0  0  0  0
   -1.7940    1.6240   -9.6210 C   0  0  0  0  0  3  0  0  0  0  0  0
   -1.0900    2.4640  -10.4830 C   0  0  0  0  0  3  0  0  0  0  0  0
   -0.2780    3.4710   -9.9620 C   0  0  0  0  0  3  0  0  0  0  0  0
  1  2  1  0  0  0  0
  2  3  2  0  0  0  0
  3 13  1  0  0  0  0
  4  6  1  0  0  0  0
  4  3  1  0  0  0  0
  5  1  2  0  0  0  0
  5  4  1  0  0  0  0
  6  7  1  0  0  0  0
  7  8  1  0  0  0  0
  8  9  1  0  0  0  0
  9 10  2  0  0  0  0
 11 10  1  0  0  0  0
 11 14  1  0  0  0  0
 12 11  2  0  0  0  0
 13  8  2  0  0  0  0
 13 12  1  0  0  0  0
 14 18  1  0  0  0  0
 15 14  2  0  0  0  0
 15 16  1  0  0  0  0
 16 17  2  0  0  0  0
 18 19  1  0  0  0  0
 18 17  1  0  0  0  0
 20 21  2  0  0  0  0
 20 25  1  0  0  0  0
 21 22  1  0  0  0  0
 22 23  2  0  0  0  0
 23  1  1  0  0  0  0
 24 23  1  0  0  0  0
 25 24  2  0  0  0  0
 27 26  1  6  0  0  0
 27 28  1  0  0  0  0
 27 35  1  0  0  0  0
 29 31  1  6  0  0  0
 29 20  1  0  0  0  0
 29 28  1  0  0  0  0
 30 29  1  0  0  0  0
 30 27  1  0  0  0  0
 31 33  1  0  0  0  0
 32 31  1  0  0  0  0
 34 31  1  0  0  0  0
 36 35  1  0  0  0  0
 37  5  1  0  0  0  0
 37 38  1  0  0  0  0
 39 38  2  0  0  0  0
 40 39  1  0  0  0  0
 41 42  1  0  0  0  0
 41 40  2  0  0  0  0
 42 37  2  0  0  0  0
M  END
>  <minimizedAffinity>
-10.6622677

$$$$
