
 OpenBabel11232420163D

 42 48  0  0  1  0  0  0  0  0999 V2000
   -0.0090    6.4680   -6.1530 C   0  0  0  0  0  0  0  0  0  0  0  0
   -1.3550    6.4360   -5.8150 N   0  0  0  0  0  0  0  0  0  0  0  0
   -1.8910    5.4950   -6.5560 C   0  0  0  0  0  0  0  0  0  0  0  0
   -0.9700    4.9730   -7.4170 N   0  0  0  0  0  0  0  0  0  0  0  0
    0.2660    5.5030   -7.1200 C   0  0  0  0  0  0  0  0  0  0  0  0
   -1.2960    3.8640   -8.2950 C   0  0  0  0  0  2  0  0  0  0  0  0
   -2.7040    3.7800   -8.6060 O   0  0  0  0  0  0  0  0  0  0  0  0
   -3.5620    4.0570   -7.5710 C   0  0  0  0  0  0  0  0  0  0  0  0
   -4.8240    3.4730   -7.6040 C   0  0  0  0  0  3  0  0  0  0  0  0
   -5.7230    3.7080   -6.5590 C   0  0  0  0  0  3  0  0  0  0  0  0
   -5.3750    4.5470   -5.4870 C   0  0  0  0  0  0  0  0  0  0  0  0
   -4.1230    5.1770   -5.4980 C   0  0  0  0  0  3  0  0  0  0  0  0
   -3.2180    4.9280   -6.5330 C   0  0  0  0  0  0  0  0  0  0  0  0
   -6.2820    4.7450   -4.3610 C   0  0  0  0  0  0  0  0  0  0  0  0
   -7.5610    4.2810   -4.1170 C   0  0  0  0  0  3  0  0  0  0  0  0
   -7.9370    4.8520   -2.8880 C   0  0  0  0  0  3  0  0  0  0  0  0
   -6.9850    5.6350   -2.3820 N   0  0  0  0  0  0  0  0  0  0  0  0
   -5.9950    5.5530   -3.2880 N   0  0  0  0  0  0  0  0  0  0  0  0
   -5.1540    6.0950   -3.1270 H   0  0  0  0  0  0  0  0  0  0  0  0
    2.6450    9.0830   -3.8940 C   0  0  0  0  0  0  0  0  0  0  0  0
    1.3140    8.8060   -3.5110 C   0  0  0  0  0  3  0  0  0  0  0  0
    0.4750    7.9660   -4.2590 C   0  0  0  0  0  3  0  0  0  0  0  0
    0.9030    7.3700   -5.4500 C   0  0  0  0  0  0  0  0  0  0  0  0
    2.1880    7.6820   -5.8850 C   0  0  0  0  0  3  0  0  0  0  0  0
    3.0320    8.5090   -5.1220 C   0  0  0  0  0  3  0  0  0  0  0  0
    7.0530   10.3840   -2.5810 C   0  0  0  0  0  1  0  0  0  0  0  0
    5.8200    9.7570   -3.2150 C   0  0  1  0  0  0  0  0  0  0  0  0
    4.7660    9.2820   -2.1810 C   0  0  0  0  0  2  0  0  0  0  0  0
    3.6540    9.9810   -3.0180 C   0  0  1  0  0  0  0  0  0  0  0  0
    4.7740   10.7640   -3.7600 C   0  0  0  0  0  2  0  0  0  0  0  0
    2.8640   10.8810   -2.1380 N   0  0  0  0  0  4  0  0  0  0  0  0
    2.3660   11.5970   -2.6810 H   0  0  0  0  0  0  0  0  0  0  0  0
    2.1580   10.3440   -1.6140 H   0  0  0  0  0  0  0  0  0  0  0  0
    3.4410   11.3770   -1.4480 H   0  0  0  0  0  0  0  0  0  0  0  0
    6.2190    8.7380   -4.1480 O   0  0  0  0  0  0  0  0  0  0  0  0
    6.8880    9.1380   -4.7370 H   0  0  0  0  0  0  0  0  0  0  0  0
    1.4970    4.9690   -7.6840 C   0  0  0  0  0  0  0  0  0  0  0  0
    1.5380    3.6850   -8.2370 C   0  0  0  0  0  3  0  0  0  0  0  0
    2.7370    3.1830   -8.7480 C   0  0  0  0  0  3  0  0  0  0  0  0
    3.8950    3.9590   -8.7100 C   0  0  0  0  0  3  0  0  0  0  0  0
    3.8600    5.2390   -8.1600 C   0  0  0  0  0  3  0  0  0  0  0  0
    2.6650    5.7430   -7.6470 C   0  0  0  0  0  3  0  0  0  0  0  0
  1  2  1  0  0  0  0
  1 23  1  0  0  0  0
  3 13  1  0  0  0  0
  3  2  2  0  0  0  0
  4  5  1  0  0  0  0
  4  3  1  0  0  0  0
  5  1  2  0  0  0  0
  6  4  1  0  0  0  0
  7  6  1  0  0  0  0
  7  8  1  0  0  0  0
  8 13  1  0  0  0  0
  9  8  2  0  0  0  0
  9 10  1  0  0  0  0
 10 11  2  0  0  0  0
 11 14  1  0  0  0  0
 12 11  1  0  0  0  0
 13 12  2  0  0  0  0
 14 15  2  0  0  0  0
 14 18  1  0  0  0  0
 15 16  1  0  0  0  0
 16 17  2  0  0  0  0
 18 19  1  0  0  0  0
 18 17  1  0  0  0  0
 20 21  1  0  0  0  0
 20 29  1  0  0  0  0
 22 21  2  0  0  0  0
 23 22  1  0  0  0  0
 24 23  2  0  0  0  0
 24 25  1  0  0  0  0
 25 20  2  0  0  0  0
 27 26  1  1  0  0  0
 27 28  1  0  0  0  0
 29 28  1  0  0  0  0
 29 31  1  1  0  0  0
 30 27  1  0  0  0  0
 30 29  1  0  0  0  0
 31 33  1  0  0  0  0
 31 34  1  0  0  0  0
 32 31  1  0  0  0  0
 35 27  1  0  0  0  0
 36 35  1  0  0  0  0
 37 42  1  0  0  0  0
 37  5  1  0  0  0  0
 38 37  2  0  0  0  0
 39 40  2  0  0  0  0
 39 38  1  0  0  0  0
 40 41  1  0  0  0  0
 41 42  2  0  0  0  0
M  END
>  <minimizedAffinity>
-11.1850204

$$$$
