
 OpenBabel11232420163D

 42 48  0  0  1  0  0  0  0  0999 V2000
    0.1730    5.4700   -7.0540 C   0  0  0  0  0  0  0  0  0  0  0  0
    1.0640    4.6560   -7.7390 N   0  0  0  0  0  0  0  0  0  0  0  0
    2.2190    5.2790   -7.7080 C   0  0  0  0  0  0  0  0  0  0  0  0
    2.0960    6.4970   -7.1060 N   0  0  0  0  0  0  0  0  0  0  0  0
    0.8240    6.6110   -6.5890 C   0  0  0  0  0  0  0  0  0  0  0  0
    3.2480    7.3520   -6.8830 C   0  0  0  0  0  2  0  0  0  0  0  0
    4.3230    7.1140   -7.8180 O   0  0  0  0  0  0  0  0  0  0  0  0
    4.5480    5.8000   -8.1470 C   0  0  0  0  0  0  0  0  0  0  0  0
    5.8330    5.4460   -8.5420 C   0  0  0  0  0  3  0  0  0  0  0  0
    6.1150    4.1140   -8.8640 C   0  0  0  0  0  3  0  0  0  0  0  0
    5.1100    3.1350   -8.8150 C   0  0  0  0  0  0  0  0  0  0  0  0
    3.8050    3.5180   -8.4740 C   0  0  0  0  0  3  0  0  0  0  0  0
    3.5280    4.8450   -8.1350 C   0  0  0  0  0  0  0  0  0  0  0  0
    5.4100    1.7330   -9.0850 C   0  0  0  0  0  0  0  0  0  0  0  0
    6.5210    1.1190   -9.6320 C   0  0  0  0  0  3  0  0  0  0  0  0
    6.2020   -0.2500   -9.6890 C   0  0  0  0  0  3  0  0  0  0  0  0
    4.9770   -0.5020   -9.2280 N   0  0  0  0  0  0  0  0  0  0  0  0
    4.5200    0.7090   -8.8680 N   0  0  0  0  0  0  0  0  0  0  0  0
    3.5770    0.7740   -8.5020 H   0  0  0  0  0  0  0  0  0  0  0  0
   -3.9020    4.1690   -6.2230 C   0  0  0  0  0  0  0  0  0  0  0  0
   -2.7760    3.7100   -5.5030 C   0  0  0  0  0  3  0  0  0  0  0  0
   -1.4720    4.1380   -5.7940 C   0  0  0  0  0  3  0  0  0  0  0  0
   -1.2060    5.0310   -6.8380 C   0  0  0  0  0  0  0  0  0  0  0  0
   -2.2900    5.4440   -7.6060 C   0  0  0  0  0  3  0  0  0  0  0  0
   -3.5980    5.0280   -7.2990 C   0  0  0  0  0  3  0  0  0  0  0  0
   -7.8470    4.5620   -3.5530 C   0  0  0  0  0  1  0  0  0  0  0  0
   -6.4720    4.6870   -4.1930 C   0  0  1  0  0  0  0  0  0  0  0  0
   -5.7650    3.3230   -4.4090 C   0  0  0  0  0  2  0  0  0  0  0  0
   -5.4160    3.7550   -5.8640 C   0  0  1  0  0  0  0  0  0  0  0  0
   -6.4750    4.8850   -5.7310 C   0  0  0  0  0  2  0  0  0  0  0  0
   -5.8700    2.7040   -6.8140 N   0  0  0  0  0  4  0  0  0  0  0  0
   -5.9750    3.0770   -7.7650 H   0  0  0  0  0  0  0  0  0  0  0  0
   -5.1830    1.9370   -6.8570 H   0  0  0  0  0  0  0  0  0  0  0  0
   -6.7720    2.2900   -6.5530 H   0  0  0  0  0  0  0  0  0  0  0  0
   -5.6820    5.6420   -3.4630 O   0  0  0  0  0  0  0  0  0  0  0  0
   -6.2250    6.4490   -3.3730 H   0  0  0  0  0  0  0  0  0  0  0  0
    0.4500    7.6790   -5.6740 C   0  0  0  0  0  0  0  0  0  0  0  0
   -0.6790    8.4690   -5.9120 C   0  0  0  0  0  3  0  0  0  0  0  0
   -1.0030    9.5060   -5.0350 C   0  0  0  0  0  3  0  0  0  0  0  0
   -0.2050    9.7560   -3.9190 C   0  0  0  0  0  3  0  0  0  0  0  0
    0.9220    8.9710   -3.6760 C   0  0  0  0  0  3  0  0  0  0  0  0
    1.2500    7.9360   -4.5510 C   0  0  0  0  0  3  0  0  0  0  0  0
  1 23  1  0  0  0  0
  1  5  2  0  0  0  0
  2  3  2  0  0  0  0
  2  1  1  0  0  0  0
  3  4  1  0  0  0  0
  4  6  1  0  0  0  0
  4  5  1  0  0  0  0
  5 37  1  0  0  0  0
  7  6  1  0  0  0  0
  8 13  1  0  0  0  0
  8  7  1  0  0  0  0
  9  8  2  0  0  0  0
 10 11  2  0  0  0  0
 10  9  1  0  0  0  0
 11 12  1  0  0  0  0
 12 13  2  0  0  0  0
 13  3  1  0  0  0  0
 14 18  1  0  0  0  0
 14 11  1  0  0  0  0
 15 14  2  0  0  0  0
 16 15  1  0  0  0  0
 16 17  2  0  0  0  0
 17 18  1  0  0  0  0
 18 19  1  0  0  0  0
 20 29  1  0  0  0  0
 20 21  1  0  0  0  0
 22 21  2  0  0  0  0
 23 22  1  0  0  0  0
 24 25  1  0  0  0  0
 24 23  2  0  0  0  0
 25 20  2  0  0  0  0
 27 26  1  1  0  0  0
 27 35  1  0  0  0  0
 28 27  1  0  0  0  0
 29 31  1  6  0  0  0
 29 30  1  0  0  0  0
 29 28  1  0  0  0  0
 30 27  1  0  0  0  0
 31 34  1  0  0  0  0
 32 31  1  0  0  0  0
 33 31  1  0  0  0  0
 35 36  1  0  0  0  0
 37 42  1  0  0  0  0
 38 37  2  0  0  0  0
 38 39  1  0  0  0  0
 39 40  2  0  0  0  0
 40 41  1  0  0  0  0
 42 41  2  0  0  0  0
M  END
>  <minimizedAffinity>
-12.0917406

$$$$
