
 OpenBabel11232420163D

 42 48  0  0  1  0  0  0  0  0999 V2000
    0.2690    6.3890   -6.6910 C   0  0  0  0  0  0  0  0  0  0  0  0
    1.3890    5.8610   -7.3190 N   0  0  0  0  0  0  0  0  0  0  0  0
    2.3920    6.6350   -6.9770 C   0  0  0  0  0  0  0  0  0  0  0  0
    1.9580    7.6870   -6.2240 N   0  0  0  0  0  0  0  0  0  0  0  0
    0.6220    7.5090   -5.9410 C   0  0  0  0  0  0  0  0  0  0  0  0
    2.8870    8.6490   -5.6590 C   0  0  0  0  0  2  0  0  0  0  0  0
    4.1200    8.7540   -6.4040 O   0  0  0  0  0  0  0  0  0  0  0  0
    4.6280    7.5740   -6.8880 C   0  0  0  0  0  0  0  0  0  0  0  0
    6.0020    7.4980   -7.0890 C   0  0  0  0  0  3  0  0  0  0  0  0
    6.5670    6.3080   -7.5580 C   0  0  0  0  0  3  0  0  0  0  0  0
    5.7610    5.1960   -7.8510 C   0  0  0  0  0  0  0  0  0  0  0  0
    4.3710    5.3080   -7.7020 C   0  0  0  0  0  3  0  0  0  0  0  0
    3.8090    6.4910   -7.2160 C   0  0  0  0  0  0  0  0  0  0  0  0
    6.3490    3.9300   -8.2780 C   0  0  0  0  0  0  0  0  0  0  0  0
    6.3540    2.6760   -7.6960 C   0  0  0  0  0  3  0  0  0  0  0  0
    7.1280    1.8720   -8.5520 C   0  0  0  0  0  3  0  0  0  0  0  0
    7.5990    2.5520   -9.5970 N   0  0  0  0  0  0  0  0  0  0  0  0
    7.1140    3.7910   -9.4100 N   0  0  0  0  0  0  0  0  0  0  0  0
    7.3620    4.5080  -10.0830 H   0  0  0  0  0  0  0  0  0  0  0  0
   -3.6060    4.4030   -6.8470 C   0  0  0  0  0  0  0  0  0  0  0  0
   -2.6730    4.2080   -5.8050 C   0  0  0  0  0  3  0  0  0  0  0  0
   -1.4270    4.8530   -5.7800 C   0  0  0  0  0  3  0  0  0  0  0  0
   -1.0240    5.7140   -6.8070 C   0  0  0  0  0  0  0  0  0  0  0  0
   -1.8970    5.8700   -7.8790 C   0  0  0  0  0  3  0  0  0  0  0  0
   -3.1530    5.2360   -7.8910 C   0  0  0  0  0  3  0  0  0  0  0  0
   -6.5130    0.6590   -7.4610 C   0  0  0  0  0  1  0  0  0  0  0  0
   -5.3380    1.6180   -7.3340 C   0  0  1  0  0  0  0  0  0  0  0  0
   -5.5320    2.9400   -8.1220 C   0  0  0  0  0  2  0  0  0  0  0  0
   -5.0710    3.7360   -6.8660 C   0  0  1  0  0  0  0  0  0  0  0  0
   -5.3040    2.4490   -6.0250 C   0  0  0  0  0  2  0  0  0  0  0  0
   -6.0830    4.7770   -6.5430 N   0  0  0  0  0  4  0  0  0  0  0  0
   -6.0060    5.0860   -5.5660 H   0  0  0  0  0  0  0  0  0  0  0  0
   -5.9490    5.6060   -7.1390 H   0  0  0  0  0  0  0  0  0  0  0  0
   -7.0480    4.4560   -6.6800 H   0  0  0  0  0  0  0  0  0  0  0  0
   -4.1140    0.9300   -7.6440 O   0  0  0  0  0  0  0  0  0  0  0  0
   -4.1040    0.1130   -7.1080 H   0  0  0  0  0  0  0  0  0  0  0  0
   -0.0780    8.3180   -4.9540 C   0  0  0  0  0  0  0  0  0  0  0  0
    0.2650    8.2580   -3.6000 C   0  0  0  0  0  3  0  0  0  0  0  0
   -0.4390    9.0240   -2.6670 C   0  0  0  0  0  3  0  0  0  0  0  0
   -1.4830    9.8500   -3.0830 C   0  0  0  0  0  3  0  0  0  0  0  0
   -1.8290    9.9130   -4.4320 C   0  0  0  0  0  3  0  0  0  0  0  0
   -1.1300    9.1490   -5.3650 C   0  0  0  0  0  3  0  0  0  0  0  0
  1  5  2  0  0  0  0
  2  3  2  0  0  0  0
  2  1  1  0  0  0  0
  3  4  1  0  0  0  0
  4  5  1  0  0  0  0
  4  6  1  0  0  0  0
  5 37  1  0  0  0  0
  7  6  1  0  0  0  0
  8  7  1  0  0  0  0
  9  8  1  0  0  0  0
 10  9  2  0  0  0  0
 11 12  2  0  0  0  0
 11 10  1  0  0  0  0
 12 13  1  0  0  0  0
 13  3  1  0  0  0  0
 13  8  2  0  0  0  0
 14 11  1  0  0  0  0
 14 15  2  0  0  0  0
 16 15  1  0  0  0  0
 17 18  1  0  0  0  0
 17 16  2  0  0  0  0
 18 14  1  0  0  0  0
 19 18  1  0  0  0  0
 20 21  1  0  0  0  0
 21 22  2  0  0  0  0
 23  1  1  0  0  0  0
 23 22  1  0  0  0  0
 24 23  2  0  0  0  0
 25 24  1  0  0  0  0
 25 20  2  0  0  0  0
 27 26  1  6  0  0  0
 27 30  1  0  0  0  0
 28 27  1  0  0  0  0
 28 29  1  0  0  0  0
 29 20  1  0  0  0  0
 29 31  1  1  0  0  0
 29 30  1  0  0  0  0
 31 32  1  0  0  0  0
 33 31  1  0  0  0  0
 34 31  1  0  0  0  0
 35 27  1  0  0  0  0
 35 36  1  0  0  0  0
 37 38  1  0  0  0  0
 38 39  2  0  0  0  0
 40 39  1  0  0  0  0
 41 40  2  0  0  0  0
 42 37  2  0  0  0  0
 42 41  1  0  0  0  0
M  END
>  <minimizedAffinity>
-13.4170465

$$$$

 OpenBabel11232420163D

 42 48  0  0  1  0  0  0  0  0999 V2000
    0.2140    6.3290   -6.7460 C   0  0  0  0  0  0  0  0  0  0  0  0
    1.3410    5.7980   -7.3560 N   0  0  0  0  0  0  0  0  0  0  0  0
    2.3350    6.5910   -7.0290 C   0  0  0  0  0  0  0  0  0  0  0  0
    1.8870    7.6560   -6.3040 N   0  0  0  0  0  0  0  0  0  0  0  0
    0.5510    7.4700   -6.0210 C   0  0  0  0  0  0  0  0  0  0  0  0
    2.8030    8.6420   -5.7580 C   0  0  0  0  0  2  0  0  0  0  0  0
    4.0380    8.7420   -6.5010 O   0  0  0  0  0  0  0  0  0  0  0  0
    4.5600    7.5560   -6.9540 C   0  0  0  0  0  0  0  0  0  0  0  0
    5.9360    7.4900   -7.1480 C   0  0  0  0  0  3  0  0  0  0  0  0
    6.5160    6.2950   -7.5860 C   0  0  0  0  0  3  0  0  0  0  0  0
    5.7230    5.1680   -7.8560 C   0  0  0  0  0  0  0  0  0  0  0  0
    4.3310    5.2680   -7.7150 C   0  0  0  0  0  3  0  0  0  0  0  0
    3.7540    6.4560   -7.2600 C   0  0  0  0  0  0  0  0  0  0  0  0
    6.3260    3.8990   -8.2500 C   0  0  0  0  0  0  0  0  0  0  0  0
    6.3060    2.6490   -7.6600 C   0  0  0  0  0  3  0  0  0  0  0  0
    7.1130    1.8380   -8.4780 C   0  0  0  0  0  3  0  0  0  0  0  0
    7.6260    2.5100   -9.5070 N   0  0  0  0  0  0  0  0  0  0  0  0
    7.1360    3.7510   -9.3490 N   0  0  0  0  0  0  0  0  0  0  0  0
    7.4130    4.4630  -10.0160 H   0  0  0  0  0  0  0  0  0  0  0  0
   -3.6240    4.2680   -6.8660 C   0  0  0  0  0  0  0  0  0  0  0  0
   -2.6040    3.9620   -5.9380 C   0  0  0  0  0  3  0  0  0  0  0  0
   -1.3730    4.6340   -5.9230 C   0  0  0  0  0  3  0  0  0  0  0  0
   -1.0720    5.6380   -6.8500 C   0  0  0  0  0  0  0  0  0  0  0  0
   -2.0330    5.9100   -7.8190 C   0  0  0  0  0  3  0  0  0  0  0  0
   -3.2730    5.2470   -7.8180 C   0  0  0  0  0  3  0  0  0  0  0  0
   -7.2500    2.1340   -4.6000 C   0  0  0  0  0  1  0  0  0  0  0  0
   -5.9620    2.8360   -5.0010 C   0  0  1  0  0  0  0  0  0  0  0  0
   -5.2400    2.1660   -6.1990 C   0  0  0  0  0  2  0  0  0  0  0  0
   -5.0730    3.5660   -6.8600 C   0  0  1  0  0  0  0  0  0  0  0  0
   -6.1460    4.1050   -5.8730 C   0  0  0  0  0  2  0  0  0  0  0  0
   -5.5970    3.5220   -8.2500 N   0  0  0  0  0  4  0  0  0  0  0  0
   -5.8220    4.4620   -8.5980 H   0  0  0  0  0  0  0  0  0  0  0  0
   -4.8950    3.1180   -8.8870 H   0  0  0  0  0  0  0  0  0  0  0  0
   -6.4500    2.9580   -8.3410 H   0  0  0  0  0  0  0  0  0  0  0  0
   -5.1260    3.0150   -3.8440 O   0  0  0  0  0  0  0  0  0  0  0  0
   -5.6810    3.4280   -3.1540 H   0  0  0  0  0  0  0  0  0  0  0  0
   -0.1610    8.2960   -5.0570 C   0  0  0  0  0  0  0  0  0  0  0  0
    0.1610    8.2540   -3.6970 C   0  0  0  0  0  3  0  0  0  0  0  0
   -0.5550    9.0340   -2.7860 C   0  0  0  0  0  3  0  0  0  0  0  0
   -1.5900    9.8570   -3.2290 C   0  0  0  0  0  3  0  0  0  0  0  0
   -1.9160    9.9020   -4.5840 C   0  0  0  0  0  3  0  0  0  0  0  0
   -1.2050    9.1230   -5.4960 C   0  0  0  0  0  3  0  0  0  0  0  0
  1  5  2  0  0  0  0
  2  3  2  0  0  0  0
  2  1  1  0  0  0  0
  3  4  1  0  0  0  0
  4  5  1  0  0  0  0
  4  6  1  0  0  0  0
  5 37  1  0  0  0  0
  7  6  1  0  0  0  0
  8  7  1  0  0  0  0
  9  8  1  0  0  0  0
 10  9  2  0  0  0  0
 11 12  2  0  0  0  0
 11 10  1  0  0  0  0
 12 13  1  0  0  0  0
 13  3  1  0  0  0  0
 13  8  2  0  0  0  0
 14 11  1  0  0  0  0
 14 15  2  0  0  0  0
 16 15  1  0  0  0  0
 17 18  1  0  0  0  0
 17 16  2  0  0  0  0
 18 14  1  0  0  0  0
 19 18  1  0  0  0  0
 20 29  1  0  0  0  0
 20 21  1  0  0  0  0
 21 22  2  0  0  0  0
 23  1  1  0  0  0  0
 23 22  1  0  0  0  0
 24 25  1  0  0  0  0
 24 23  2  0  0  0  0
 25 20  2  0  0  0  0
 27 26  1  1  0  0  0
 27 35  1  0  0  0  0
 28 27  1  0  0  0  0
 29 31  1  6  0  0  0
 29 28  1  0  0  0  0
 29 30  1  0  0  0  0
 30 27  1  0  0  0  0
 32 31  1  0  0  0  0
 33 31  1  0  0  0  0
 34 31  1  0  0  0  0
 35 36  1  0  0  0  0
 37 38  1  0  0  0  0
 38 39  2  0  0  0  0
 40 39  1  0  0  0  0
 41 40  2  0  0  0  0
 42 37  2  0  0  0  0
 42 41  1  0  0  0  0
M  END
>  <minimizedAffinity>
-13.2308245

$$$$

 OpenBabel11232420163D

 42 48  0  0  1  0  0  0  0  0999 V2000
    2.1450    5.9910   -7.0630 C   0  0  0  0  0  0  0  0  0  0  0  0
    0.7780    5.8960   -6.8440 N   0  0  0  0  0  0  0  0  0  0  0  0
    0.3720    4.8620   -7.5430 C   0  0  0  0  0  0  0  0  0  0  0  0
    1.4000    4.3350   -8.2690 N   0  0  0  0  0  0  0  0  0  0  0  0
    2.5680    4.9700   -7.9120 C   0  0  0  0  0  0  0  0  0  0  0  0
    1.2250    3.1370   -9.0710 C   0  0  0  0  0  2  0  0  0  0  0  0
   -0.1400    2.9320   -9.4970 O   0  0  0  0  0  0  0  0  0  0  0  0
   -1.1060    3.2350   -8.5710 C   0  0  0  0  0  0  0  0  0  0  0  0
   -2.3220    2.5660   -8.6650 C   0  0  0  0  0  3  0  0  0  0  0  0
   -3.3280    2.8250   -7.7280 C   0  0  0  0  0  3  0  0  0  0  0  0
   -3.1350    3.7710   -6.7090 C   0  0  0  0  0  0  0  0  0  0  0  0
   -1.9270    4.4830   -6.6640 C   0  0  0  0  0  3  0  0  0  0  0  0
   -0.9150    4.2100   -7.5880 C   0  0  0  0  0  0  0  0  0  0  0  0
   -4.1540    4.0000   -5.6900 C   0  0  0  0  0  0  0  0  0  0  0  0
   -5.3080    4.7610   -5.6980 C   0  0  0  0  0  3  0  0  0  0  0  0
   -5.8500    4.6300   -4.4070 C   0  0  0  0  0  3  0  0  0  0  0  0
   -5.1020    3.8580   -3.6200 N   0  0  0  0  0  0  0  0  0  0  0  0
   -4.0850    3.4890   -4.4170 N   0  0  0  0  0  0  0  0  0  0  0  0
   -3.3580    2.9020   -4.0230 H   0  0  0  0  0  0  0  0  0  0  0  0
    4.3790    8.9920   -4.8280 C   0  0  0  0  0  0  0  0  0  0  0  0
    2.9760    8.8490   -4.7520 C   0  0  0  0  0  3  0  0  0  0  0  0
    2.2770    7.8800   -5.4870 C   0  0  0  0  0  3  0  0  0  0  0  0
    2.9320    7.0080   -6.3640 C   0  0  0  0  0  0  0  0  0  0  0  0
    4.3060    7.1740   -6.5090 C   0  0  0  0  0  3  0  0  0  0  0  0
    5.0050    8.1340   -5.7560 C   0  0  0  0  0  3  0  0  0  0  0  0
    6.0930   10.5320   -0.6400 C   0  0  0  0  0  1  0  0  0  0  0  0
    5.4220    9.7810   -1.7810 C   0  0  1  0  0  0  0  0  0  0  0  0
    4.5490   10.6860   -2.6890 C   0  0  0  0  0  2  0  0  0  0  0  0
    5.2160   10.0430   -3.9410 C   0  0  1  0  0  0  0  0  0  0  0  0
    6.3290    9.4940   -3.0060 C   0  0  0  0  0  2  0  0  0  0  0  0
    5.7410   11.1160   -4.8270 N   0  0  0  0  0  4  0  0  0  0  0  0
    6.4640   10.7580   -5.4630 H   0  0  0  0  0  0  0  0  0  0  0  0
    4.9850   11.5060   -5.4070 H   0  0  0  0  0  0  0  0  0  0  0  0
    6.1600   11.8970   -4.3080 H   0  0  0  0  0  0  0  0  0  0  0  0
    4.7270    8.6330   -1.2630 O   0  0  0  0  0  0  0  0  0  0  0  0
    5.3600    8.1470   -0.7000 H   0  0  0  0  0  0  0  0  0  0  0  0
    3.8770    4.4760   -8.3140 C   0  0  0  0  0  0  0  0  0  0  0  0
    4.4210    3.3250   -7.7360 C   0  0  0  0  0  3  0  0  0  0  0  0
    5.6900    2.8850   -8.1180 C   0  0  0  0  0  3  0  0  0  0  0  0
    6.4170    3.5890   -9.0770 C   0  0  0  0  0  3  0  0  0  0  0  0
    5.8800    4.7380   -9.6570 C   0  0  0  0  0  3  0  0  0  0  0  0
    4.6140    5.1810   -9.2760 C   0  0  0  0  0  3  0  0  0  0  0  0
  1  2  1  0  0  0  0
  1 23  1  0  0  0  0
  3  2  2  0  0  0  0
  4  5  1  0  0  0  0
  4  3  1  0  0  0  0
  5  1  2  0  0  0  0
  6  4  1  0  0  0  0
  7  6  1  0  0  0  0
  7  8  1  0  0  0  0
  8 13  1  0  0  0  0
  9  8  2  0  0  0  0
  9 10  1  0  0  0  0
 10 11  2  0  0  0  0
 11 12  1  0  0  0  0
 11 14  1  0  0  0  0
 13  3  1  0  0  0  0
 13 12  2  0  0  0  0
 14 18  1  0  0  0  0
 15 14  2  0  0  0  0
 15 16  1  0  0  0  0
 16 17  2  0  0  0  0
 18 19  1  0  0  0  0
 18 17  1  0  0  0  0
 20 21  1  0  0  0  0
 20 29  1  0  0  0  0
 22 21  2  0  0  0  0
 23 22  1  0  0  0  0
 24 23  2  0  0  0  0
 24 25  1  0  0  0  0
 25 20  2  0  0  0  0
 27 35  1  0  0  0  0
 27 26  1  1  0  0  0
 28 27  1  0  0  0  0
 29 31  1  6  0  0  0
 29 30  1  0  0  0  0
 29 28  1  0  0  0  0
 30 27  1  0  0  0  0
 31 34  1  0  0  0  0
 32 31  1  0  0  0  0
 33 31  1  0  0  0  0
 35 36  1  0  0  0  0
 37  5  1  0  0  0  0
 37 38  1  0  0  0  0
 39 38  2  0  0  0  0
 40 39  1  0  0  0  0
 41 42  1  0  0  0  0
 41 40  2  0  0  0  0
 42 37  2  0  0  0  0
M  END
>  <minimizedAffinity>
-12.5141821

$$$$

 OpenBabel11232420163D

 42 48  0  0  1  0  0  0  0  0999 V2000
    0.1730    5.4700   -7.0540 C   0  0  0  0  0  0  0  0  0  0  0  0
    1.0640    4.6560   -7.7390 N   0  0  0  0  0  0  0  0  0  0  0  0
    2.2190    5.2790   -7.7080 C   0  0  0  0  0  0  0  0  0  0  0  0
    2.0960    6.4970   -7.1060 N   0  0  0  0  0  0  0  0  0  0  0  0
    0.8240    6.6110   -6.5890 C   0  0  0  0  0  0  0  0  0  0  0  0
    3.2480    7.3520   -6.8830 C   0  0  0  0  0  2  0  0  0  0  0  0
    4.3230    7.1140   -7.8180 O   0  0  0  0  0  0  0  0  0  0  0  0
    4.5480    5.8000   -8.1470 C   0  0  0  0  0  0  0  0  0  0  0  0
    5.8330    5.4460   -8.5420 C   0  0  0  0  0  3  0  0  0  0  0  0
    6.1150    4.1140   -8.8640 C   0  0  0  0  0  3  0  0  0  0  0  0
    5.1100    3.1350   -8.8150 C   0  0  0  0  0  0  0  0  0  0  0  0
    3.8050    3.5180   -8.4740 C   0  0  0  0  0  3  0  0  0  0  0  0
    3.5280    4.8450   -8.1350 C   0  0  0  0  0  0  0  0  0  0  0  0
    5.4100    1.7330   -9.0850 C   0  0  0  0  0  0  0  0  0  0  0  0
    6.5210    1.1190   -9.6320 C   0  0  0  0  0  3  0  0  0  0  0  0
    6.2020   -0.2500   -9.6890 C   0  0  0  0  0  3  0  0  0  0  0  0
    4.9770   -0.5020   -9.2280 N   0  0  0  0  0  0  0  0  0  0  0  0
    4.5200    0.7090   -8.8680 N   0  0  0  0  0  0  0  0  0  0  0  0
    3.5770    0.7740   -8.5020 H   0  0  0  0  0  0  0  0  0  0  0  0
   -3.9020    4.1690   -6.2230 C   0  0  0  0  0  0  0  0  0  0  0  0
   -2.7760    3.7100   -5.5030 C   0  0  0  0  0  3  0  0  0  0  0  0
   -1.4720    4.1380   -5.7940 C   0  0  0  0  0  3  0  0  0  0  0  0
   -1.2060    5.0310   -6.8380 C   0  0  0  0  0  0  0  0  0  0  0  0
   -2.2900    5.4440   -7.6060 C   0  0  0  0  0  3  0  0  0  0  0  0
   -3.5980    5.0280   -7.2990 C   0  0  0  0  0  3  0  0  0  0  0  0
   -7.8470    4.5620   -3.5530 C   0  0  0  0  0  1  0  0  0  0  0  0
   -6.4720    4.6870   -4.1930 C   0  0  1  0  0  0  0  0  0  0  0  0
   -5.7650    3.3230   -4.4090 C   0  0  0  0  0  2  0  0  0  0  0  0
   -5.4160    3.7550   -5.8640 C   0  0  1  0  0  0  0  0  0  0  0  0
   -6.4750    4.8850   -5.7310 C   0  0  0  0  0  2  0  0  0  0  0  0
   -5.8700    2.7040   -6.8140 N   0  0  0  0  0  4  0  0  0  0  0  0
   -5.9750    3.0770   -7.7650 H   0  0  0  0  0  0  0  0  0  0  0  0
   -5.1830    1.9370   -6.8570 H   0  0  0  0  0  0  0  0  0  0  0  0
   -6.7720    2.2900   -6.5530 H   0  0  0  0  0  0  0  0  0  0  0  0
   -5.6820    5.6420   -3.4630 O   0  0  0  0  0  0  0  0  0  0  0  0
   -6.2250    6.4490   -3.3730 H   0  0  0  0  0  0  0  0  0  0  0  0
    0.4500    7.6790   -5.6740 C   0  0  0  0  0  0  0  0  0  0  0  0
   -0.6790    8.4690   -5.9120 C   0  0  0  0  0  3  0  0  0  0  0  0
   -1.0030    9.5060   -5.0350 C   0  0  0  0  0  3  0  0  0  0  0  0
   -0.2050    9.7560   -3.9190 C   0  0  0  0  0  3  0  0  0  0  0  0
    0.9220    8.9710   -3.6760 C   0  0  0  0  0  3  0  0  0  0  0  0
    1.2500    7.9360   -4.5510 C   0  0  0  0  0  3  0  0  0  0  0  0
  1 23  1  0  0  0  0
  1  5  2  0  0  0  0
  2  3  2  0  0  0  0
  2  1  1  0  0  0  0
  3  4  1  0  0  0  0
  4  6  1  0  0  0  0
  4  5  1  0  0  0  0
  5 37  1  0  0  0  0
  7  6  1  0  0  0  0
  8 13  1  0  0  0  0
  8  7  1  0  0  0  0
  9  8  2  0  0  0  0
 10 11  2  0  0  0  0
 10  9  1  0  0  0  0
 11 12  1  0  0  0  0
 12 13  2  0  0  0  0
 13  3  1  0  0  0  0
 14 18  1  0  0  0  0
 14 11  1  0  0  0  0
 15 14  2  0  0  0  0
 16 15  1  0  0  0  0
 16 17  2  0  0  0  0
 17 18  1  0  0  0  0
 18 19  1  0  0  0  0
 20 29  1  0  0  0  0
 20 21  1  0  0  0  0
 22 21  2  0  0  0  0
 23 22  1  0  0  0  0
 24 25  1  0  0  0  0
 24 23  2  0  0  0  0
 25 20  2  0  0  0  0
 27 26  1  1  0  0  0
 27 35  1  0  0  0  0
 28 27  1  0  0  0  0
 29 31  1  6  0  0  0
 29 30  1  0  0  0  0
 29 28  1  0  0  0  0
 30 27  1  0  0  0  0
 31 34  1  0  0  0  0
 32 31  1  0  0  0  0
 33 31  1  0  0  0  0
 35 36  1  0  0  0  0
 37 42  1  0  0  0  0
 38 37  2  0  0  0  0
 38 39  1  0  0  0  0
 39 40  2  0  0  0  0
 40 41  1  0  0  0  0
 42 41  2  0  0  0  0
M  END
>  <minimizedAffinity>
-12.0917406

$$$$

 OpenBabel11232420163D

 42 48  0  0  1  0  0  0  0  0999 V2000
   -0.0090    6.4680   -6.1530 C   0  0  0  0  0  0  0  0  0  0  0  0
   -1.3550    6.4360   -5.8150 N   0  0  0  0  0  0  0  0  0  0  0  0
   -1.8910    5.4950   -6.5560 C   0  0  0  0  0  0  0  0  0  0  0  0
   -0.9700    4.9730   -7.4170 N   0  0  0  0  0  0  0  0  0  0  0  0
    0.2660    5.5030   -7.1200 C   0  0  0  0  0  0  0  0  0  0  0  0
   -1.2960    3.8640   -8.2950 C   0  0  0  0  0  2  0  0  0  0  0  0
   -2.7040    3.7800   -8.6060 O   0  0  0  0  0  0  0  0  0  0  0  0
   -3.5620    4.0570   -7.5710 C   0  0  0  0  0  0  0  0  0  0  0  0
   -4.8240    3.4730   -7.6040 C   0  0  0  0  0  3  0  0  0  0  0  0
   -5.7230    3.7080   -6.5590 C   0  0  0  0  0  3  0  0  0  0  0  0
   -5.3750    4.5470   -5.4870 C   0  0  0  0  0  0  0  0  0  0  0  0
   -4.1230    5.1770   -5.4980 C   0  0  0  0  0  3  0  0  0  0  0  0
   -3.2180    4.9280   -6.5330 C   0  0  0  0  0  0  0  0  0  0  0  0
   -6.2820    4.7450   -4.3610 C   0  0  0  0  0  0  0  0  0  0  0  0
   -7.5610    4.2810   -4.1170 C   0  0  0  0  0  3  0  0  0  0  0  0
   -7.9370    4.8520   -2.8880 C   0  0  0  0  0  3  0  0  0  0  0  0
   -6.9850    5.6350   -2.3820 N   0  0  0  0  0  0  0  0  0  0  0  0
   -5.9950    5.5530   -3.2880 N   0  0  0  0  0  0  0  0  0  0  0  0
   -5.1540    6.0950   -3.1270 H   0  0  0  0  0  0  0  0  0  0  0  0
    2.6450    9.0830   -3.8940 C   0  0  0  0  0  0  0  0  0  0  0  0
    1.3140    8.8060   -3.5110 C   0  0  0  0  0  3  0  0  0  0  0  0
    0.4750    7.9660   -4.2590 C   0  0  0  0  0  3  0  0  0  0  0  0
    0.9030    7.3700   -5.4500 C   0  0  0  0  0  0  0  0  0  0  0  0
    2.1880    7.6820   -5.8850 C   0  0  0  0  0  3  0  0  0  0  0  0
    3.0320    8.5090   -5.1220 C   0  0  0  0  0  3  0  0  0  0  0  0
    7.0530   10.3840   -2.5810 C   0  0  0  0  0  1  0  0  0  0  0  0
    5.8200    9.7570   -3.2150 C   0  0  1  0  0  0  0  0  0  0  0  0
    4.7660    9.2820   -2.1810 C   0  0  0  0  0  2  0  0  0  0  0  0
    3.6540    9.9810   -3.0180 C   0  0  1  0  0  0  0  0  0  0  0  0
    4.7740   10.7640   -3.7600 C   0  0  0  0  0  2  0  0  0  0  0  0
    2.8640   10.8810   -2.1380 N   0  0  0  0  0  4  0  0  0  0  0  0
    2.3660   11.5970   -2.6810 H   0  0  0  0  0  0  0  0  0  0  0  0
    2.1580   10.3440   -1.6140 H   0  0  0  0  0  0  0  0  0  0  0  0
    3.4410   11.3770   -1.4480 H   0  0  0  0  0  0  0  0  0  0  0  0
    6.2190    8.7380   -4.1480 O   0  0  0  0  0  0  0  0  0  0  0  0
    6.8880    9.1380   -4.7370 H   0  0  0  0  0  0  0  0  0  0  0  0
    1.4970    4.9690   -7.6840 C   0  0  0  0  0  0  0  0  0  0  0  0
    1.5380    3.6850   -8.2370 C   0  0  0  0  0  3  0  0  0  0  0  0
    2.7370    3.1830   -8.7480 C   0  0  0  0  0  3  0  0  0  0  0  0
    3.8950    3.9590   -8.7100 C   0  0  0  0  0  3  0  0  0  0  0  0
    3.8600    5.2390   -8.1600 C   0  0  0  0  0  3  0  0  0  0  0  0
    2.6650    5.7430   -7.6470 C   0  0  0  0  0  3  0  0  0  0  0  0
  1  2  1  0  0  0  0
  1 23  1  0  0  0  0
  3 13  1  0  0  0  0
  3  2  2  0  0  0  0
  4  5  1  0  0  0  0
  4  3  1  0  0  0  0
  5  1  2  0  0  0  0
  6  4  1  0  0  0  0
  7  6  1  0  0  0  0
  7  8  1  0  0  0  0
  8 13  1  0  0  0  0
  9  8  2  0  0  0  0
  9 10  1  0  0  0  0
 10 11  2  0  0  0  0
 11 14  1  0  0  0  0
 12 11  1  0  0  0  0
 13 12  2  0  0  0  0
 14 15  2  0  0  0  0
 14 18  1  0  0  0  0
 15 16  1  0  0  0  0
 16 17  2  0  0  0  0
 18 19  1  0  0  0  0
 18 17  1  0  0  0  0
 20 21  1  0  0  0  0
 20 29  1  0  0  0  0
 22 21  2  0  0  0  0
 23 22  1  0  0  0  0
 24 23  2  0  0  0  0
 24 25  1  0  0  0  0
 25 20  2  0  0  0  0
 27 26  1  1  0  0  0
 27 28  1  0  0  0  0
 29 28  1  0  0  0  0
 29 31  1  1  0  0  0
 30 27  1  0  0  0  0
 30 29  1  0  0  0  0
 31 33  1  0  0  0  0
 31 34  1  0  0  0  0
 32 31  1  0  0  0  0
 35 27  1  0  0  0  0
 36 35  1  0  0  0  0
 37 42  1  0  0  0  0
 37  5  1  0  0  0  0
 38 37  2  0  0  0  0
 39 40  2  0  0  0  0
 39 38  1  0  0  0  0
 40 41  1  0  0  0  0
 41 42  2  0  0  0  0
M  END
>  <minimizedAffinity>
-11.1850204

$$$$

 OpenBabel11232420163D

 42 48  0  0  1  0  0  0  0  0999 V2000
    0.2490    4.9590   -7.6280 C   0  0  0  0  0  0  0  0  0  0  0  0
   -1.1000    4.8490   -7.3210 N   0  0  0  0  0  0  0  0  0  0  0  0
   -1.5470    3.8310   -8.0200 C   0  0  0  0  0  0  0  0  0  0  0  0
   -0.5670    3.3300   -8.8260 N   0  0  0  0  0  0  0  0  0  0  0  0
    0.6190    3.9650   -8.5310 C   0  0  0  0  0  0  0  0  0  0  0  0
   -0.7890    2.1530   -9.6470 C   0  0  0  0  0  2  0  0  0  0  0  0
   -2.1780    1.9500   -9.9860 O   0  0  0  0  0  0  0  0  0  0  0  0
   -3.0820    2.2220   -8.9890 C   0  0  0  0  0  0  0  0  0  0  0  0
   -4.2970    1.5460   -9.0190 C   0  0  0  0  0  3  0  0  0  0  0  0
   -5.2400    1.7730   -8.0110 C   0  0  0  0  0  3  0  0  0  0  0  0
   -4.9830    2.6930   -6.9810 C   0  0  0  0  0  0  0  0  0  0  0  0
   -3.7790    3.4120   -6.9980 C   0  0  0  0  0  3  0  0  0  0  0  0
   -2.8310    3.1710   -7.9950 C   0  0  0  0  0  0  0  0  0  0  0  0
   -5.9320    2.8870   -5.8900 C   0  0  0  0  0  0  0  0  0  0  0  0
   -6.0010    3.8380   -4.8890 C   0  0  0  0  0  3  0  0  0  0  0  0
   -7.1100    3.4740   -4.1040 C   0  0  0  0  0  3  0  0  0  0  0  0
   -7.7040    2.3680   -4.5510 N   0  0  0  0  0  0  0  0  0  0  0  0
   -6.9770    2.0340   -5.6310 N   0  0  0  0  0  0  0  0  0  0  0  0
   -7.2320    1.1930   -6.1360 H   0  0  0  0  0  0  0  0  0  0  0  0
    2.6080    7.9200   -5.4700 C   0  0  0  0  0  0  0  0  0  0  0  0
    1.2090    7.7880   -5.3310 C   0  0  0  0  0  3  0  0  0  0  0  0
    0.4680    6.8320   -6.0430 C   0  0  0  0  0  3  0  0  0  0  0  0
    1.0750    5.9630   -6.9570 C   0  0  0  0  0  0  0  0  0  0  0  0
    2.4430    6.1190   -7.1630 C   0  0  0  0  0  3  0  0  0  0  0  0
    3.1830    7.0650   -6.4330 C   0  0  0  0  0  3  0  0  0  0  0  0
    6.1140   11.1460   -5.0950 C   0  0  0  0  0  1  0  0  0  0  0  0
    5.0890   10.1180   -5.5500 C   0  0  1  0  0  0  0  0  0  0  0  0
    5.0470    8.8510   -4.6570 C   0  0  0  0  0  2  0  0  0  0  0  0
    3.4930    8.9550   -4.6120 C   0  0  1  0  0  0  0  0  0  0  0  0
    3.6260   10.4150   -5.1310 C   0  0  0  0  0  2  0  0  0  0  0  0
    3.0370    8.9290   -3.1970 N   0  0  0  0  0  4  0  0  0  0  0  0
    2.0950    9.3270   -3.0980 H   0  0  0  0  0  0  0  0  0  0  0  0
    3.0000    7.9600   -2.8490 H   0  0  0  0  0  0  0  0  0  0  0  0
    3.6520    9.4550   -2.5660 H   0  0  0  0  0  0  0  0  0  0  0  0
    5.2710    9.8380   -6.9490 O   0  0  0  0  0  0  0  0  0  0  0  0
    5.2970   10.6980   -7.4100 H   0  0  0  0  0  0  0  0  0  0  0  0
    1.9000    3.4910   -9.0340 C   0  0  0  0  0  0  0  0  0  0  0  0
    2.3350    3.8210  -10.3220 C   0  0  0  0  0  3  0  0  0  0  0  0
    3.5550    3.3320  -10.7940 C   0  0  0  0  0  3  0  0  0  0  0  0
    4.3440    2.5160   -9.9830 C   0  0  0  0  0  3  0  0  0  0  0  0
    3.9160    2.1840   -8.6980 C   0  0  0  0  0  3  0  0  0  0  0  0
    2.6970    2.6680   -8.2250 C   0  0  0  0  0  3  0  0  0  0  0  0
  1  2  1  0  0  0  0
  1 23  1  0  0  0  0
  3 13  1  0  0  0  0
  3  2  2  0  0  0  0
  4  5  1  0  0  0  0
  4  3  1  0  0  0  0
  5  1  2  0  0  0  0
  6  4  1  0  0  0  0
  7  6  1  0  0  0  0
  7  8  1  0  0  0  0
  8 13  1  0  0  0  0
  9  8  2  0  0  0  0
  9 10  1  0  0  0  0
 10 11  2  0  0  0  0
 11 14  1  0  0  0  0
 12 11  1  0  0  0  0
 13 12  2  0  0  0  0
 14 18  1  0  0  0  0
 14 15  2  0  0  0  0
 15 16  1  0  0  0  0
 17 16  2  0  0  0  0
 18 17  1  0  0  0  0
 19 18  1  0  0  0  0
 20 21  1  0  0  0  0
 20 29  1  0  0  0  0
 22 21  2  0  0  0  0
 23 22  1  0  0  0  0
 24 23  2  0  0  0  0
 24 25  1  0  0  0  0
 25 20  2  0  0  0  0
 27 30  1  0  0  0  0
 27 26  1  1  0  0  0
 27 28  1  0  0  0  0
 28 29  1  0  0  0  0
 29 31  1  1  0  0  0
 30 29  1  0  0  0  0
 31 32  1  0  0  0  0
 31 33  1  0  0  0  0
 31 34  1  0  0  0  0
 35 27  1  0  0  0  0
 36 35  1  0  0  0  0
 37  5  1  0  0  0  0
 37 42  1  0  0  0  0
 38 37  2  0  0  0  0
 39 38  1  0  0  0  0
 39 40  2  0  0  0  0
 40 41  1  0  0  0  0
 41 42  2  0  0  0  0
M  END
>  <minimizedAffinity>
-10.8460264

$$$$

 OpenBabel11232420163D

 42 48  0  0  1  0  0  0  0  0999 V2000
    2.0890    4.8260   -7.9660 C   0  0  0  0  0  0  0  0  0  0  0  0
    2.4110    5.9100   -7.1620 N   0  0  0  0  0  0  0  0  0  0  0  0
    1.2670    6.4260   -6.7760 C   0  0  0  0  0  0  0  0  0  0  0  0
    0.2210    5.7740   -7.3610 N   0  0  0  0  0  0  0  0  0  0  0  0
    0.7050    4.6850   -8.0510 C   0  0  0  0  0  0  0  0  0  0  0  0
   -1.1560    6.1070   -7.0400 C   0  0  0  0  0  2  0  0  0  0  0  0
   -1.3180    7.4670   -6.5790 O   0  0  0  0  0  0  0  0  0  0  0  0
   -0.3300    7.9390   -5.7520 C   0  0  0  0  0  0  0  0  0  0  0  0
   -0.6670    8.9440   -4.8520 C   0  0  0  0  0  3  0  0  0  0  0  0
    0.3020    9.4400   -3.9730 C   0  0  0  0  0  3  0  0  0  0  0  0
    1.6180    8.9510   -4.0050 C   0  0  0  0  0  0  0  0  0  0  0  0
    1.9580    7.9820   -4.9590 C   0  0  0  0  0  3  0  0  0  0  0  0
    0.9860    7.4740   -5.8240 C   0  0  0  0  0  0  0  0  0  0  0  0
    2.6170    9.4160   -3.0490 C   0  0  0  0  0  0  0  0  0  0  0  0
    3.4490   10.5200   -3.0510 C   0  0  0  0  0  3  0  0  0  0  0  0
    4.2290   10.4020   -1.8860 C   0  0  0  0  0  3  0  0  0  0  0  0
    3.9370    9.3030   -1.1920 N   0  0  0  0  0  0  0  0  0  0  0  0
    2.9610    8.7250   -1.9120 N   0  0  0  0  0  0  0  0  0  0  0  0
    2.5850    7.8420   -1.5860 H   0  0  0  0  0  0  0  0  0  0  0  0
    5.3710    2.4050   -9.5010 C   0  0  0  0  0  0  0  0  0  0  0  0
    5.3990    3.8160   -9.4560 C   0  0  0  0  0  3  0  0  0  0  0  0
    4.3270    4.5760   -8.9640 C   0  0  0  0  0  3  0  0  0  0  0  0
    3.1480    3.9750   -8.5090 C   0  0  0  0  0  0  0  0  0  0  0  0
    3.0670    2.5880   -8.6070 C   0  0  0  0  0  3  0  0  0  0  0  0
    4.1520    1.8310   -9.0830 C   0  0  0  0  0  3  0  0  0  0  0  0
    7.6850   -1.7680   -9.7800 C   0  0  0  0  0  1  0  0  0  0  0  0
    6.7110   -0.6280   -9.5200 C   0  0  1  0  0  0  0  0  0  0  0  0
    7.3880    0.6450   -8.9480 C   0  0  0  0  0  2  0  0  0  0  0  0
    6.6130    1.5050   -9.9890 C   0  0  1  0  0  0  0  0  0  0  0  0
    6.3100    0.1960  -10.7710 C   0  0  0  0  0  2  0  0  0  0  0  0
    7.5720    2.3640  -10.7330 N   0  0  0  0  0  4  0  0  0  0  0  0
    7.1790    2.6790  -11.6280 H   0  0  0  0  0  0  0  0  0  0  0  0
    7.8030    3.2040  -10.1840 H   0  0  0  0  0  0  0  0  0  0  0  0
    8.4560    1.8870  -10.9460 H   0  0  0  0  0  0  0  0  0  0  0  0
    5.6060   -1.1040   -8.7320 O   0  0  0  0  0  0  0  0  0  0  0  0
    5.2690   -1.9080   -9.1710 H   0  0  0  0  0  0  0  0  0  0  0  0
   -0.1680    3.6450   -8.5750 C   0  0  0  0  0  0  0  0  0  0  0  0
   -0.8770    2.7990   -7.7160 C   0  0  0  0  0  3  0  0  0  0  0  0
   -1.6880    1.7900   -8.2410 C   0  0  0  0  0  3  0  0  0  0  0  0
   -1.7940    1.6240   -9.6210 C   0  0  0  0  0  3  0  0  0  0  0  0
   -1.0900    2.4640  -10.4830 C   0  0  0  0  0  3  0  0  0  0  0  0
   -0.2780    3.4710   -9.9620 C   0  0  0  0  0  3  0  0  0  0  0  0
  1  2  1  0  0  0  0
  2  3  2  0  0  0  0
  3 13  1  0  0  0  0
  4  6  1  0  0  0  0
  4  3  1  0  0  0  0
  5  1  2  0  0  0  0
  5  4  1  0  0  0  0
  6  7  1  0  0  0  0
  7  8  1  0  0  0  0
  8  9  1  0  0  0  0
  9 10  2  0  0  0  0
 11 10  1  0  0  0  0
 11 14  1  0  0  0  0
 12 11  2  0  0  0  0
 13  8  2  0  0  0  0
 13 12  1  0  0  0  0
 14 18  1  0  0  0  0
 15 14  2  0  0  0  0
 15 16  1  0  0  0  0
 16 17  2  0  0  0  0
 18 19  1  0  0  0  0
 18 17  1  0  0  0  0
 20 21  2  0  0  0  0
 20 25  1  0  0  0  0
 21 22  1  0  0  0  0
 22 23  2  0  0  0  0
 23  1  1  0  0  0  0
 24 23  1  0  0  0  0
 25 24  2  0  0  0  0
 27 26  1  6  0  0  0
 27 28  1  0  0  0  0
 27 35  1  0  0  0  0
 29 31  1  6  0  0  0
 29 20  1  0  0  0  0
 29 28  1  0  0  0  0
 30 29  1  0  0  0  0
 30 27  1  0  0  0  0
 31 33  1  0  0  0  0
 32 31  1  0  0  0  0
 34 31  1  0  0  0  0
 36 35  1  0  0  0  0
 37  5  1  0  0  0  0
 37 38  1  0  0  0  0
 39 38  2  0  0  0  0
 40 39  1  0  0  0  0
 41 42  1  0  0  0  0
 41 40  2  0  0  0  0
 42 37  2  0  0  0  0
M  END
>  <minimizedAffinity>
-10.6622677

$$$$
