
 OpenBabel11232420163D

 42 48  0  0  1  0  0  0  0  0999 V2000
    0.2140    6.3290   -6.7460 C   0  0  0  0  0  0  0  0  0  0  0  0
    1.3410    5.7980   -7.3560 N   0  0  0  0  0  0  0  0  0  0  0  0
    2.3350    6.5910   -7.0290 C   0  0  0  0  0  0  0  0  0  0  0  0
    1.8870    7.6560   -6.3040 N   0  0  0  0  0  0  0  0  0  0  0  0
    0.5510    7.4700   -6.0210 C   0  0  0  0  0  0  0  0  0  0  0  0
    2.8030    8.6420   -5.7580 C   0  0  0  0  0  2  0  0  0  0  0  0
    4.0380    8.7420   -6.5010 O   0  0  0  0  0  0  0  0  0  0  0  0
    4.5600    7.5560   -6.9540 C   0  0  0  0  0  0  0  0  0  0  0  0
    5.9360    7.4900   -7.1480 C   0  0  0  0  0  3  0  0  0  0  0  0
    6.5160    6.2950   -7.5860 C   0  0  0  0  0  3  0  0  0  0  0  0
    5.7230    5.1680   -7.8560 C   0  0  0  0  0  0  0  0  0  0  0  0
    4.3310    5.2680   -7.7150 C   0  0  0  0  0  3  0  0  0  0  0  0
    3.7540    6.4560   -7.2600 C   0  0  0  0  0  0  0  0  0  0  0  0
    6.3260    3.8990   -8.2500 C   0  0  0  0  0  0  0  0  0  0  0  0
    6.3060    2.6490   -7.6600 C   0  0  0  0  0  3  0  0  0  0  0  0
    7.1130    1.8380   -8.4780 C   0  0  0  0  0  3  0  0  0  0  0  0
    7.6260    2.5100   -9.5070 N   0  0  0  0  0  0  0  0  0  0  0  0
    7.1360    3.7510   -9.3490 N   0  0  0  0  0  0  0  0  0  0  0  0
    7.4130    4.4630  -10.0160 H   0  0  0  0  0  0  0  0  0  0  0  0
   -3.6240    4.2680   -6.8660 C   0  0  0  0  0  0  0  0  0  0  0  0
   -2.6040    3.9620   -5.9380 C   0  0  0  0  0  3  0  0  0  0  0  0
   -1.3730    4.6340   -5.9230 C   0  0  0  0  0  3  0  0  0  0  0  0
   -1.0720    5.6380   -6.8500 C   0  0  0  0  0  0  0  0  0  0  0  0
   -2.0330    5.9100   -7.8190 C   0  0  0  0  0  3  0  0  0  0  0  0
   -3.2730    5.2470   -7.8180 C   0  0  0  0  0  3  0  0  0  0  0  0
   -7.2500    2.1340   -4.6000 C   0  0  0  0  0  1  0  0  0  0  0  0
   -5.9620    2.8360   -5.0010 C   0  0  1  0  0  0  0  0  0  0  0  0
   -5.2400    2.1660   -6.1990 C   0  0  0  0  0  2  0  0  0  0  0  0
   -5.0730    3.5660   -6.8600 C   0  0  1  0  0  0  0  0  0  0  0  0
   -6.1460    4.1050   -5.8730 C   0  0  0  0  0  2  0  0  0  0  0  0
   -5.5970    3.5220   -8.2500 N   0  0  0  0  0  4  0  0  0  0  0  0
   -5.8220    4.4620   -8.5980 H   0  0  0  0  0  0  0  0  0  0  0  0
   -4.8950    3.1180   -8.8870 H   0  0  0  0  0  0  0  0  0  0  0  0
   -6.4500    2.9580   -8.3410 H   0  0  0  0  0  0  0  0  0  0  0  0
   -5.1260    3.0150   -3.8440 O   0  0  0  0  0  0  0  0  0  0  0  0
   -5.6810    3.4280   -3.1540 H   0  0  0  0  0  0  0  0  0  0  0  0
   -0.1610    8.2960   -5.0570 C   0  0  0  0  0  0  0  0  0  0  0  0
    0.1610    8.2540   -3.6970 C   0  0  0  0  0  3  0  0  0  0  0  0
   -0.5550    9.0340   -2.7860 C   0  0  0  0  0  3  0  0  0  0  0  0
   -1.5900    9.8570   -3.2290 C   0  0  0  0  0  3  0  0  0  0  0  0
   -1.9160    9.9020   -4.5840 C   0  0  0  0  0  3  0  0  0  0  0  0
   -1.2050    9.1230   -5.4960 C   0  0  0  0  0  3  0  0  0  0  0  0
  1  5  2  0  0  0  0
  2  3  2  0  0  0  0
  2  1  1  0  0  0  0
  3  4  1  0  0  0  0
  4  5  1  0  0  0  0
  4  6  1  0  0  0  0
  5 37  1  0  0  0  0
  7  6  1  0  0  0  0
  8  7  1  0  0  0  0
  9  8  1  0  0  0  0
 10  9  2  0  0  0  0
 11 12  2  0  0  0  0
 11 10  1  0  0  0  0
 12 13  1  0  0  0  0
 13  3  1  0  0  0  0
 13  8  2  0  0  0  0
 14 11  1  0  0  0  0
 14 15  2  0  0  0  0
 16 15  1  0  0  0  0
 17 18  1  0  0  0  0
 17 16  2  0  0  0  0
 18 14  1  0  0  0  0
 19 18  1  0  0  0  0
 20 29  1  0  0  0  0
 20 21  1  0  0  0  0
 21 22  2  0  0  0  0
 23  1  1  0  0  0  0
 23 22  1  0  0  0  0
 24 25  1  0  0  0  0
 24 23  2  0  0  0  0
 25 20  2  0  0  0  0
 27 26  1  1  0  0  0
 27 35  1  0  0  0  0
 28 27  1  0  0  0  0
 29 31  1  6  0  0  0
 29 28  1  0  0  0  0
 29 30  1  0  0  0  0
 30 27  1  0  0  0  0
 32 31  1  0  0  0  0
 33 31  1  0  0  0  0
 34 31  1  0  0  0  0
 35 36  1  0  0  0  0
 37 38  1  0  0  0  0
 38 39  2  0  0  0  0
 40 39  1  0  0  0  0
 41 40  2  0  0  0  0
 42 37  2  0  0  0  0
 42 41  1  0  0  0  0
M  END
>  <minimizedAffinity>
-13.2308245

$$$$
