
 OpenBabel10152418563D

 37 40  0  0  0  0  0  0  0  0999 V2000
    6.6850   -9.7830    8.0610 C   0  0  0  0  0  0  0  0  0  0  0  0
    6.5750   -9.9240    6.6730 C   0  0  0  0  0  3  0  0  0  0  0  0
    5.7310  -10.8900    6.1310 C   0  0  0  0  0  3  0  0  0  0  0  0
    4.9910  -11.7330    6.9670 C   0  0  0  0  0  3  0  0  0  0  0  0
    5.1050  -11.6330    8.3520 C   0  0  0  0  0  0  0  0  0  0  0  0
    5.9470  -10.6460    8.8880 C   0  0  0  0  0  3  0  0  0  0  0  0
    4.3920  -12.4150    9.2800 N   0  0  0  0  0  0  0  0  0  0  0  0
    4.4680  -12.5640   10.6430 C   0  0  0  0  0  0  0  0  0  0  0  0
    3.8290  -13.4560   11.2010 O   0  0  0  0  0  0  0  0  0  0  0  0
    3.6740  -13.0190    8.8950 H   0  0  0  0  0  0  0  0  0  0  0  0
    5.2090  -11.6340   11.4890 C   0  0  0  0  0  0  0  0  0  0  0  0
    4.9620  -10.2680   11.3990 C   0  0  0  0  0  0  0  0  0  0  0  0
    3.9860   -9.7980   10.6110 F   0  0  0  0  0  0  0  0  0  0  0  0
    5.7030   -9.3630   12.1540 C   0  0  0  0  0  3  0  0  0  0  0  0
    6.7120   -9.8390   12.9920 C   0  0  0  0  0  0  0  0  0  0  0  0
    7.6320   -8.7300   13.9310 Cl  0  0  0  0  0  0  0  0  0  0  0  0
    6.9820  -11.2030   13.0750 C   0  0  0  0  0  3  0  0  0  0  0  0
    6.2310  -12.0950   12.3140 C   0  0  0  0  0  0  0  0  0  0  0  0
    6.5170  -13.4030   12.3880 F   0  0  0  0  0  0  0  0  0  0  0  0
    7.5800   -8.7200    8.6520 C   0  0  0  0  0  2  0  0  0  0  0  0
   10.1890  -12.8320   12.3400 C   0  0  0  0  0  0  0  0  0  0  0  0
   10.7870  -11.9690   13.2710 C   0  0  0  0  0  3  0  0  0  0  0  0
   10.6030  -10.6030   13.1480 C   0  0  0  0  0  3  0  0  0  0  0  0
    9.8260  -10.1160   12.1010 C   0  0  0  0  0  3  0  0  0  0  0  0
    9.2080  -10.9890   11.1630 C   0  0  0  0  0  0  0  0  0  0  0  0
    8.4090  -10.5570   10.0850 C   0  0  0  0  0  0  0  0  0  0  0  0
    8.1860   -9.1980    9.8800 N   0  0  0  0  0  0  0  0  0  0  0  0
    7.8790  -11.4200    9.2040 N   0  0  0  0  0  0  0  0  0  0  0  0
    8.1120  -12.7160    9.4130 C   0  0  0  0  0  3  0  0  0  0  0  0
    8.8220  -13.2340   10.4160 N   0  0  0  0  0  0  0  0  0  0  0  0
    9.3950  -12.3770   11.2790 C   0  0  0  0  0  0  0  0  0  0  0  0
    7.9760   -8.6570   10.7080 H   0  0  0  0  0  0  0  0  0  0  0  0
   10.3940  -14.7540   13.7690 N   0  0  0  0  0  0  0  0  0  0  0  0
   10.4590  -14.2730   12.4900 C   0  0  0  0  0  0  0  0  0  0  0  0
   10.7850  -14.9770   11.5450 O   0  0  0  0  0  0  0  0  0  0  0  0
   10.5780  -15.7390   13.9050 H   0  0  0  0  0  0  0  0  0  0  0  0
   10.1090  -14.1940   14.5580 H   0  0  0  0  0  0  0  0  0  0  0  0
  1 20  1  0  0  0  0
  1  6  1  0  0  0  0
  2  1  2  0  0  0  0
  3  2  1  0  0  0  0
  3  4  2  0  0  0  0
  4  5  1  0  0  0  0
  5  6  2  0  0  0  0
  5  7  1  0  0  0  0
  7  8  1  0  0  0  0
  8  9  2  0  0  0  0
  8 11  1  0  0  0  0
 10  7  1  0  0  0  0
 11 18  1  0  0  0  0
 12 11  2  0  0  0  0
 12 14  1  0  0  0  0
 13 12  1  0  0  0  0
 14 15  2  0  0  0  0
 15 17  1  0  0  0  0
 15 16  1  0  0  0  0
 18 19  1  0  0  0  0
 18 17  2  0  0  0  0
 20 27  1  0  0  0  0
 21 34  1  0  0  0  0
 21 22  1  0  0  0  0
 23 22  2  0  0  0  0
 24 23  1  0  0  0  0
 25 31  1  0  0  0  0
 25 24  2  0  0  0  0
 26 25  1  0  0  0  0
 27 26  1  0  0  0  0
 27 32  1  0  0  0  0
 28 29  1  0  0  0  0
 28 26  2  0  0  0  0
 29 30  2  0  0  0  0
 30 31  1  0  0  0  0
 31 21  2  0  0  0  0
 33 36  1  0  0  0  0
 33 37  1  0  0  0  0
 34 33  1  0  0  0  0
 35 34  2  0  0  0  0
M  END
>  <minimizedAffinity>
22.6549149

$$$$
