
 OpenBabel10152418383D

 37 40  0  0  0  0  0  0  0  0999 V2000
   -1.1010  -10.4250  -23.7330 C   0  0  0  0  0  0  0  0  0  0  0  0
   -1.7870  -10.5660  -24.9380 C   0  0  0  0  0  3  0  0  0  0  0  0
   -1.1380  -11.1110  -26.0410 C   0  0  0  0  0  3  0  0  0  0  0  0
    0.1820  -11.5510  -25.9250 C   0  0  0  0  0  3  0  0  0  0  0  0
    0.8540  -11.5340  -24.6930 C   0  0  0  0  0  0  0  0  0  0  0  0
    0.1860  -10.9680  -23.5980 C   0  0  0  0  0  3  0  0  0  0  0  0
   -1.6670   -8.3540  -22.4240 C   0  0  0  0  0  0  0  0  0  0  0  0
   -2.0760   -7.9110  -21.3560 O   0  0  0  0  0  0  0  0  0  0  0  0
   -1.7340   -9.7050  -22.7050 N   0  0  0  0  0  0  0  0  0  0  0  0
   -2.3800  -10.2050  -22.1050 H   0  0  0  0  0  0  0  0  0  0  0  0
   -0.5130   -5.5280  -25.4220 C   0  0  0  0  0  0  0  0  0  0  0  0
   -1.1360   -6.7320  -25.7760 C   0  0  0  0  0  3  0  0  0  0  0  0
   -1.4710   -7.6800  -24.8050 C   0  0  0  0  0  3  0  0  0  0  0  0
   -1.1910   -7.4120  -23.4660 C   0  0  0  0  0  0  0  0  0  0  0  0
   -0.4980   -6.2470  -23.1130 C   0  0  0  0  0  3  0  0  0  0  0  0
   -0.1710   -5.3020  -24.0890 C   0  0  0  0  0  3  0  0  0  0  0  0
   -0.3070   -4.6700  -26.4640 O   0  0  0  0  0  0  0  0  0  0  0  0
    1.0220   -4.1730  -28.4460 C   0  0  0  0  0  1  0  0  0  0  0  0
    0.1640   -5.1890  -27.7080 C   0  0  0  0  0  2  0  0  0  0  0  0
    2.2830  -12.0360  -24.5450 C   0  0  0  0  0  2  0  0  0  0  0  0
    3.2500  -11.1180  -25.1220 N   0  0  0  0  0  0  0  0  0  0  0  0
    4.0150  -10.7970  -24.5520 H   0  0  0  0  0  0  0  0  0  0  0  0
    3.2920  -10.9810  -26.5030 C   0  0  0  0  0  0  0  0  0  0  0  0
    3.7520  -12.0380  -27.1950 N   0  0  0  0  0  0  0  0  0  0  0  0
    4.1280  -11.8170  -28.4520 C   0  0  0  0  0  3  0  0  0  0  0  0
    4.1790  -10.6240  -29.0460 N   0  0  0  0  0  0  0  0  0  0  0  0
    3.6790   -9.5700  -28.3710 C   0  0  0  0  0  0  0  0  0  0  0  0
    3.7330   -8.2740  -28.8960 C   0  0  0  0  0  0  0  0  0  0  0  0
    3.1330   -7.1710  -28.2730 C   0  0  0  0  0  3  0  0  0  0  0  0
    2.5120   -7.3370  -27.0470 C   0  0  0  0  0  3  0  0  0  0  0  0
    2.5400   -8.5900  -26.4410 C   0  0  0  0  0  3  0  0  0  0  0  0
    3.1280   -9.7110  -27.0900 C   0  0  0  0  0  0  0  0  0  0  0  0
    4.5600   -7.9830  -30.0820 C   0  0  0  0  0  0  0  0  0  0  0  0
    4.8500   -6.6620  -30.2810 N   0  0  0  0  0  0  0  0  0  0  0  0
    4.8570   -8.8510  -30.8910 O   0  0  0  0  0  0  0  0  0  0  0  0
    5.3780   -6.4040  -31.1030 H   0  0  0  0  0  0  0  0  0  0  0  0
    4.5850   -5.9420  -29.6240 H   0  0  0  0  0  0  0  0  0  0  0  0
  1  6  1  0  0  0  0
  1  9  1  0  0  0  0
  2  1  2  0  0  0  0
  3  4  2  0  0  0  0
  3  2  1  0  0  0  0
  4  5  1  0  0  0  0
  5 20  1  0  0  0  0
  5  6  2  0  0  0  0
  7  8  2  0  0  0  0
  9  7  1  0  0  0  0
  9 10  1  0  0  0  0
 11 16  1  0  0  0  0
 12 11  2  0  0  0  0
 12 13  1  0  0  0  0
 13 14  2  0  0  0  0
 14 15  1  0  0  0  0
 14  7  1  0  0  0  0
 16 15  2  0  0  0  0
 17 11  1  0  0  0  0
 18 19  1  0  0  0  0
 19 17  1  0  0  0  0
 21 22  1  0  0  0  0
 21 20  1  0  0  0  0
 23 21  1  0  0  0  0
 24 23  2  0  0  0  0
 25 24  1  0  0  0  0
 26 25  2  0  0  0  0
 26 27  1  0  0  0  0
 27 32  1  0  0  0  0
 28 27  2  0  0  0  0
 28 29  1  0  0  0  0
 29 30  2  0  0  0  0
 30 31  1  0  0  0  0
 32 23  1  0  0  0  0
 32 31  2  0  0  0  0
 33 28  1  0  0  0  0
 34 33  1  0  0  0  0
 34 37  1  0  0  0  0
 35 33  2  0  0  0  0
 36 34  1  0  0  0  0
M  END
>  <minimizedAffinity>
-8.8807621

$$$$
