
 OpenBabel10152418383D

 37 40  0  0  0  0  0  0  0  0999 V2000
    4.4410   -9.9930  -28.4060 C   0  0  0  0  0  0  0  0  0  0  0  0
    4.8640  -11.3150  -28.2700 C   0  0  0  0  0  3  0  0  0  0  0  0
    4.5110  -12.0380  -27.1350 C   0  0  0  0  0  3  0  0  0  0  0  0
    3.7020  -11.4520  -26.1600 C   0  0  0  0  0  3  0  0  0  0  0  0
    3.1620  -10.1680  -26.3310 C   0  0  0  0  0  0  0  0  0  0  0  0
    3.5420   -9.4520  -27.4750 C   0  0  0  0  0  3  0  0  0  0  0  0
    4.4950   -8.0830  -30.0390 C   0  0  0  0  0  0  0  0  0  0  0  0
    4.9260   -7.6810  -31.1160 O   0  0  0  0  0  0  0  0  0  0  0  0
    4.9720   -9.2480  -29.4730 N   0  0  0  0  0  0  0  0  0  0  0  0
    5.8570   -9.5480  -29.8660 H   0  0  0  0  0  0  0  0  0  0  0  0
    1.7900   -5.4790  -27.9870 C   0  0  0  0  0  0  0  0  0  0  0  0
    3.0480   -5.7750  -27.4460 C   0  0  0  0  0  3  0  0  0  0  0  0
    3.9160   -6.6620  -28.0880 C   0  0  0  0  0  3  0  0  0  0  0  0
    3.5240   -7.2480  -29.2900 C   0  0  0  0  0  0  0  0  0  0  0  0
    2.2380   -7.0200  -29.7970 C   0  0  0  0  0  3  0  0  0  0  0  0
    1.3790   -6.1260  -29.1520 C   0  0  0  0  0  3  0  0  0  0  0  0
    1.0790   -4.5450  -27.2900 O   0  0  0  0  0  0  0  0  0  0  0  0
   -0.9390   -3.7070  -26.2100 C   0  0  0  0  0  1  0  0  0  0  0  0
   -0.3450   -4.6470  -27.2470 C   0  0  0  0  0  2  0  0  0  0  0  0
    2.2560   -9.5260  -25.2900 C   0  0  0  0  0  2  0  0  0  0  0  0
    1.0780   -8.9200  -25.8860 N   0  0  0  0  0  0  0  0  0  0  0  0
    0.8410   -9.1520  -26.8370 H   0  0  0  0  0  0  0  0  0  0  0  0
    0.1420   -8.3260  -25.0500 C   0  0  0  0  0  0  0  0  0  0  0  0
    0.0930   -6.9820  -25.0670 N   0  0  0  0  0  0  0  0  0  0  0  0
   -0.5250   -6.3900  -24.0480 C   0  0  0  0  0  3  0  0  0  0  0  0
   -1.0090   -7.0110  -22.9710 N   0  0  0  0  0  0  0  0  0  0  0  0
   -1.0000   -8.3570  -22.9710 C   0  0  0  0  0  0  0  0  0  0  0  0
   -1.4440   -9.0910  -21.8650 C   0  0  0  0  0  0  0  0  0  0  0  0
   -1.5470  -10.4890  -21.8650 C   0  0  0  0  0  3  0  0  0  0  0  0
   -1.1310  -11.2010  -22.9770 C   0  0  0  0  0  3  0  0  0  0  0  0
   -0.5770  -10.5110  -24.0510 C   0  0  0  0  0  3  0  0  0  0  0  0
   -0.4980   -9.0900  -24.0550 C   0  0  0  0  0  0  0  0  0  0  0  0
   -1.6960   -8.4190  -20.5760 C   0  0  0  0  0  0  0  0  0  0  0  0
   -2.7500   -7.5480  -20.5690 N   0  0  0  0  0  0  0  0  0  0  0  0
   -0.9390   -8.5440  -19.6240 O   0  0  0  0  0  0  0  0  0  0  0  0
   -2.9390   -7.0290  -19.7220 H   0  0  0  0  0  0  0  0  0  0  0  0
   -3.3620   -7.4280  -21.3640 H   0  0  0  0  0  0  0  0  0  0  0  0
  1  2  2  0  0  0  0
  1  6  1  0  0  0  0
  2  3  1  0  0  0  0
  3  4  2  0  0  0  0
  5  4  1  0  0  0  0
  5 20  1  0  0  0  0
  6  5  2  0  0  0  0
  7  9  1  0  0  0  0
  7 14  1  0  0  0  0
  8  7  2  0  0  0  0
  9  1  1  0  0  0  0
 10  9  1  0  0  0  0
 11 12  1  0  0  0  0
 11 17  1  0  0  0  0
 13 12  2  0  0  0  0
 14 13  1  0  0  0  0
 15 14  2  0  0  0  0
 15 16  1  0  0  0  0
 16 11  2  0  0  0  0
 17 19  1  0  0  0  0
 19 18  1  0  0  0  0
 21 20  1  0  0  0  0
 21 23  1  0  0  0  0
 22 21  1  0  0  0  0
 23 32  1  0  0  0  0
 24 23  2  0  0  0  0
 24 25  1  0  0  0  0
 25 26  2  0  0  0  0
 27 26  1  0  0  0  0
 27 28  1  0  0  0  0
 28 29  2  0  0  0  0
 28 33  1  0  0  0  0
 30 29  1  0  0  0  0
 31 30  2  0  0  0  0
 32 31  1  0  0  0  0
 32 27  2  0  0  0  0
 33 34  1  0  0  0  0
 33 35  2  0  0  0  0
 34 36  1  0  0  0  0
 37 34  1  0  0  0  0
M  END
>  <minimizedAffinity>
-6.30235672

$$$$
