
 OpenBabel10152418383D

 37 40  0  0  0  0  0  0  0  0999 V2000
   -0.5600   -5.7120  -25.5370 C   0  0  0  0  0  0  0  0  0  0  0  0
    0.0780   -5.3220  -24.3600 C   0  0  0  0  0  3  0  0  0  0  0  0
   -0.2940   -5.9000  -23.1510 C   0  0  0  0  0  3  0  0  0  0  0  0
   -1.2730   -6.8940  -23.1260 C   0  0  0  0  0  3  0  0  0  0  0  0
   -1.8420   -7.3900  -24.3090 C   0  0  0  0  0  0  0  0  0  0  0  0
   -1.4640   -6.7850  -25.5150 C   0  0  0  0  0  3  0  0  0  0  0  0
    0.7930   -5.0800  -27.5600 C   0  0  0  0  0  0  0  0  0  0  0  0
    1.0240   -4.2100  -28.3940 O   0  0  0  0  0  0  0  0  0  0  0  0
   -0.2830   -4.9730  -26.7010 N   0  0  0  0  0  0  0  0  0  0  0  0
   -0.9760   -4.3020  -27.0120 H   0  0  0  0  0  0  0  0  0  0  0  0
    3.3740   -8.4910  -27.4500 C   0  0  0  0  0  0  0  0  0  0  0  0
    3.2640   -7.7140  -28.6100 C   0  0  0  0  0  3  0  0  0  0  0  0
    2.3870   -6.6280  -28.6670 C   0  0  0  0  0  3  0  0  0  0  0  0
    1.6220   -6.3100  -27.5470 C   0  0  0  0  0  0  0  0  0  0  0  0
    1.6670   -7.1280  -26.4100 C   0  0  0  0  0  3  0  0  0  0  0  0
    2.5520   -8.2090  -26.3590 C   0  0  0  0  0  3  0  0  0  0  0  0
    4.3180   -9.4750  -27.5140 O   0  0  0  0  0  0  0  0  0  0  0  0
    4.8700  -11.2270  -29.1170 C   0  0  0  0  0  1  0  0  0  0  0  0
    4.9500   -9.7500  -28.7650 C   0  0  0  0  0  2  0  0  0  0  0  0
   -2.8910   -8.4940  -24.3010 C   0  0  0  0  0  2  0  0  0  0  0  0
   -2.7700   -9.3570  -23.1390 N   0  0  0  0  0  0  0  0  0  0  0  0
   -3.4990   -9.3420  -22.4450 H   0  0  0  0  0  0  0  0  0  0  0  0
   -1.8560  -10.4010  -23.1810 C   0  0  0  0  0  0  0  0  0  0  0  0
   -1.4550  -10.8930  -21.9950 N   0  0  0  0  0  0  0  0  0  0  0  0
   -0.3470  -11.6290  -21.9920 C   0  0  0  0  0  3  0  0  0  0  0  0
    0.4470  -11.8350  -23.0440 N   0  0  0  0  0  0  0  0  0  0  0  0
    0.0270  -11.3810  -24.2410 C   0  0  0  0  0  0  0  0  0  0  0  0
    0.8150  -11.5110  -25.3890 C   0  0  0  0  0  0  0  0  0  0  0  0
    0.3710  -11.1450  -26.6680 C   0  0  0  0  0  3  0  0  0  0  0  0
   -0.8770  -10.5640  -26.8130 C   0  0  0  0  0  3  0  0  0  0  0  0
   -1.6410  -10.3140  -25.6770 C   0  0  0  0  0  3  0  0  0  0  0  0
   -1.1960  -10.7100  -24.3850 C   0  0  0  0  0  0  0  0  0  0  0  0
    2.2290  -11.9170  -25.2820 C   0  0  0  0  0  0  0  0  0  0  0  0
    2.7090  -12.0270  -24.0060 N   0  0  0  0  0  0  0  0  0  0  0  0
    2.9460  -12.0270  -26.2670 O   0  0  0  0  0  0  0  0  0  0  0  0
    3.6840  -12.2610  -23.8780 H   0  0  0  0  0  0  0  0  0  0  0  0
    2.1210  -11.9140  -23.1930 H   0  0  0  0  0  0  0  0  0  0  0  0
  1  6  2  0  0  0  0
  1  2  1  0  0  0  0
  2  3  2  0  0  0  0
  3  4  1  0  0  0  0
  5 20  1  0  0  0  0
  5  4  2  0  0  0  0
  6  5  1  0  0  0  0
  7 14  1  0  0  0  0
  7  9  1  0  0  0  0
  8  7  2  0  0  0  0
  9  1  1  0  0  0  0
 10  9  1  0  0  0  0
 11 16  1  0  0  0  0
 12 11  2  0  0  0  0
 13 12  1  0  0  0  0
 13 14  2  0  0  0  0
 14 15  1  0  0  0  0
 15 16  2  0  0  0  0
 17 11  1  0  0  0  0
 18 19  1  0  0  0  0
 19 17  1  0  0  0  0
 20 21  1  0  0  0  0
 21 22  1  0  0  0  0
 23 21  1  0  0  0  0
 23 24  1  0  0  0  0
 24 25  2  0  0  0  0
 26 25  1  0  0  0  0
 27 26  2  0  0  0  0
 28 33  1  0  0  0  0
 28 27  1  0  0  0  0
 29 28  2  0  0  0  0
 30 29  1  0  0  0  0
 30 31  2  0  0  0  0
 31 32  1  0  0  0  0
 32 27  1  0  0  0  0
 32 23  2  0  0  0  0
 33 34  1  0  0  0  0
 34 36  1  0  0  0  0
 34 37  1  0  0  0  0
 35 33  2  0  0  0  0
M  END
>  <minimizedAffinity>
-6.4414649

$$$$
