
 OpenBabel10152418383D

 37 40  0  0  0  0  0  0  0  0999 V2000
    2.8990   -8.7740  -26.7880 C   0  0  0  0  0  0  0  0  0  0  0  0
    2.9420   -7.8990  -25.7030 C   0  0  0  0  0  3  0  0  0  0  0  0
    2.3430   -8.2620  -24.5010 C   0  0  0  0  0  3  0  0  0  0  0  0
    1.7380   -9.5130  -24.3740 C   0  0  0  0  0  3  0  0  0  0  0  0
    1.7880  -10.4590  -25.4100 C   0  0  0  0  0  0  0  0  0  0  0  0
    2.3840  -10.0680  -26.6170 C   0  0  0  0  0  3  0  0  0  0  0  0
    2.7650   -7.3650  -28.8660 C   0  0  0  0  0  0  0  0  0  0  0  0
    3.1500   -7.2250  -30.0220 O   0  0  0  0  0  0  0  0  0  0  0  0
    3.3520   -8.2930  -28.0280 N   0  0  0  0  0  0  0  0  0  0  0  0
    4.2590   -8.6070  -28.3550 H   0  0  0  0  0  0  0  0  0  0  0  0
   -0.1220   -4.7410  -27.1090 C   0  0  0  0  0  0  0  0  0  0  0  0
   -0.3040   -6.1290  -27.0770 C   0  0  0  0  0  3  0  0  0  0  0  0
    0.6110   -6.9880  -27.6910 C   0  0  0  0  0  3  0  0  0  0  0  0
    1.7250   -6.4510  -28.3320 C   0  0  0  0  0  0  0  0  0  0  0  0
    1.8730   -5.0620  -28.4370 C   0  0  0  0  0  3  0  0  0  0  0  0
    0.9570   -4.2100  -27.8150 C   0  0  0  0  0  3  0  0  0  0  0  0
   -1.0560   -4.0310  -26.4100 O   0  0  0  0  0  0  0  0  0  0  0  0
   -1.4020   -2.0400  -25.0460 C   0  0  0  0  0  1  0  0  0  0  0  0
   -0.9740   -2.6050  -26.3920 C   0  0  0  0  0  2  0  0  0  0  0  0
    1.1570  -11.8380  -25.2770 C   0  0  0  0  0  2  0  0  0  0  0  0
   -0.2630  -11.8240  -25.5850 N   0  0  0  0  0  0  0  0  0  0  0  0
   -0.6800  -12.6450  -25.9900 H   0  0  0  0  0  0  0  0  0  0  0  0
   -1.0560  -10.8380  -25.0140 C   0  0  0  0  0  0  0  0  0  0  0  0
   -1.2860   -9.7460  -25.7650 N   0  0  0  0  0  0  0  0  0  0  0  0
   -1.7310   -8.6630  -25.1320 C   0  0  0  0  0  3  0  0  0  0  0  0
   -1.8710   -8.5420  -23.8110 N   0  0  0  0  0  0  0  0  0  0  0  0
   -1.6830   -9.6450  -23.0610 C   0  0  0  0  0  0  0  0  0  0  0  0
   -1.7630   -9.6020  -21.6650 C   0  0  0  0  0  0  0  0  0  0  0  0
   -1.6760  -10.7440  -20.8570 C   0  0  0  0  0  3  0  0  0  0  0  0
   -1.4310  -11.9740  -21.4430 C   0  0  0  0  0  3  0  0  0  0  0  0
   -1.2320  -12.0370  -22.8200 C   0  0  0  0  0  3  0  0  0  0  0  0
   -1.3460  -10.8780  -23.6370 C   0  0  0  0  0  0  0  0  0  0  0  0
   -1.8040   -8.3060  -20.9600 C   0  0  0  0  0  0  0  0  0  0  0  0
   -2.6110   -7.3590  -21.5280 N   0  0  0  0  0  0  0  0  0  0  0  0
   -1.0730   -8.0650  -20.0090 O   0  0  0  0  0  0  0  0  0  0  0  0
   -2.6420   -6.4400  -21.1080 H   0  0  0  0  0  0  0  0  0  0  0  0
   -3.1970   -7.5520  -22.3260 H   0  0  0  0  0  0  0  0  0  0  0  0
  1  6  2  0  0  0  0
  1  2  1  0  0  0  0
  2  3  2  0  0  0  0
  3  4  1  0  0  0  0
  5 20  1  0  0  0  0
  5  4  2  0  0  0  0
  6  5  1  0  0  0  0
  7 14  1  0  0  0  0
  7  9  1  0  0  0  0
  8  7  2  0  0  0  0
  9  1  1  0  0  0  0
 10  9  1  0  0  0  0
 11 12  1  0  0  0  0
 11 17  1  0  0  0  0
 13 12  2  0  0  0  0
 14 13  1  0  0  0  0
 15 14  2  0  0  0  0
 15 16  1  0  0  0  0
 16 11  2  0  0  0  0
 17 19  1  0  0  0  0
 19 18  1  0  0  0  0
 21 20  1  0  0  0  0
 21 23  1  0  0  0  0
 22 21  1  0  0  0  0
 23 32  1  0  0  0  0
 24 25  1  0  0  0  0
 24 23  2  0  0  0  0
 25 26  2  0  0  0  0
 26 27  1  0  0  0  0
 27 28  1  0  0  0  0
 28 33  1  0  0  0  0
 28 29  2  0  0  0  0
 30 29  1  0  0  0  0
 31 30  2  0  0  0  0
 32 27  2  0  0  0  0
 32 31  1  0  0  0  0
 33 35  2  0  0  0  0
 34 36  1  0  0  0  0
 34 33  1  0  0  0  0
 37 34  1  0  0  0  0
M  END
>  <minimizedAffinity>
-9.29404354

$$$$
