
 OpenBabel10152418383D

 37 40  0  0  0  0  0  0  0  0999 V2000
   -1.0800  -10.3260  -24.0670 C   0  0  0  0  0  0  0  0  0  0  0  0
   -2.0820  -10.4150  -25.0320 C   0  0  0  0  0  3  0  0  0  0  0  0
   -1.7760  -10.8940  -26.3010 C   0  0  0  0  0  3  0  0  0  0  0  0
   -0.4790  -11.3220  -26.5900 C   0  0  0  0  0  3  0  0  0  0  0  0
    0.5170  -11.3580  -25.6020 C   0  0  0  0  0  0  0  0  0  0  0  0
    0.1910  -10.8580  -24.3340 C   0  0  0  0  0  3  0  0  0  0  0  0
   -1.2470   -8.3310  -22.5460 C   0  0  0  0  0  0  0  0  0  0  0  0
   -1.3320   -7.9470  -21.3840 O   0  0  0  0  0  0  0  0  0  0  0  0
   -1.3920   -9.6670  -22.8650 N   0  0  0  0  0  0  0  0  0  0  0  0
   -1.8390  -10.2050  -22.1320 H   0  0  0  0  0  0  0  0  0  0  0  0
   -0.5800   -5.5570  -25.7340 C   0  0  0  0  0  0  0  0  0  0  0  0
   -0.0800   -5.3040  -24.4500 C   0  0  0  0  0  3  0  0  0  0  0  0
   -0.3360   -6.1830  -23.3940 C   0  0  0  0  0  3  0  0  0  0  0  0
   -1.0890   -7.3320  -23.6310 C   0  0  0  0  0  0  0  0  0  0  0  0
   -1.6590   -7.5500  -24.8920 C   0  0  0  0  0  3  0  0  0  0  0  0
   -1.3940   -6.6700  -25.9440 C   0  0  0  0  0  3  0  0  0  0  0  0
   -0.1950   -4.6500  -26.6800 O   0  0  0  0  0  0  0  0  0  0  0  0
    1.6450   -4.5540  -28.2760 C   0  0  0  0  0  1  0  0  0  0  0  0
    0.2740   -5.1220  -27.9440 C   0  0  0  0  0  2  0  0  0  0  0  0
    1.9280  -11.8480  -25.8950 C   0  0  0  0  0  2  0  0  0  0  0  0
    2.9400  -10.9890  -25.3050 N   0  0  0  0  0  0  0  0  0  0  0  0
    3.4790  -11.3360  -24.5280 H   0  0  0  0  0  0  0  0  0  0  0  0
    3.3670   -9.8790  -26.0210 C   0  0  0  0  0  0  0  0  0  0  0  0
    2.9540   -8.6810  -25.5700 N   0  0  0  0  0  0  0  0  0  0  0  0
    3.0480   -7.6560  -26.4120 C   0  0  0  0  0  3  0  0  0  0  0  0
    3.4220   -7.7360  -27.6900 N   0  0  0  0  0  0  0  0  0  0  0  0
    3.8770   -8.9250  -28.1320 C   0  0  0  0  0  0  0  0  0  0  0  0
    4.2470   -9.1140  -29.4680 C   0  0  0  0  0  0  0  0  0  0  0  0
    4.8200  -10.3020  -29.9430 C   0  0  0  0  0  3  0  0  0  0  0  0
    4.9740  -11.3740  -29.0810 C   0  0  0  0  0  3  0  0  0  0  0  0
    4.5120  -11.2590  -27.7730 C   0  0  0  0  0  3  0  0  0  0  0  0
    3.9530  -10.0430  -27.2900 C   0  0  0  0  0  0  0  0  0  0  0  0
    3.9130   -8.0990  -30.4860 C   0  0  0  0  0  0  0  0  0  0  0  0
    4.4360   -6.8550  -30.2620 N   0  0  0  0  0  0  0  0  0  0  0  0
    3.1260   -8.3290  -31.3930 O   0  0  0  0  0  0  0  0  0  0  0  0
    4.2020   -6.1130  -30.9070 H   0  0  0  0  0  0  0  0  0  0  0  0
    5.0680   -6.6610  -29.4990 H   0  0  0  0  0  0  0  0  0  0  0  0
  1  9  1  0  0  0  0
  2  1  2  0  0  0  0
  3  2  1  0  0  0  0
  4  3  2  0  0  0  0
  4  5  1  0  0  0  0
  5  6  2  0  0  0  0
  6  1  1  0  0  0  0
  7  8  2  0  0  0  0
  9  7  1  0  0  0  0
  9 10  1  0  0  0  0
 11 12  1  0  0  0  0
 12 13  2  0  0  0  0
 14 13  1  0  0  0  0
 14  7  1  0  0  0  0
 15 14  2  0  0  0  0
 16 11  2  0  0  0  0
 16 15  1  0  0  0  0
 17 11  1  0  0  0  0
 18 19  1  0  0  0  0
 19 17  1  0  0  0  0
 20  5  1  0  0  0  0
 20 21  1  0  0  0  0
 21 22  1  0  0  0  0
 23 24  1  0  0  0  0
 23 21  1  0  0  0  0
 25 24  2  0  0  0  0
 26 25  1  0  0  0  0
 27 26  2  0  0  0  0
 27 32  1  0  0  0  0
 28 27  1  0  0  0  0
 29 28  2  0  0  0  0
 29 30  1  0  0  0  0
 30 31  2  0  0  0  0
 31 32  1  0  0  0  0
 32 23  2  0  0  0  0
 33 34  1  0  0  0  0
 33 28  1  0  0  0  0
 34 37  1  0  0  0  0
 35 33  2  0  0  0  0
 36 34  1  0  0  0  0
M  END
>  <minimizedAffinity>
-8.62986851

$$$$
