
 OpenBabel11232419033D

 40 45  0  0  1  0  0  0  0  0999 V2000
   26.0400   65.1340   19.6830 C   0  0  0  0  0  0  0  0  0  0  0  0
   26.6310   64.1760   18.8760 C   0  0  0  0  0  3  0  0  0  0  0  0
   26.2840   62.8720   18.9040 N   0  0  0  0  0  0  0  0  0  0  0  0
   25.2730   62.5160   19.7350 C   0  0  0  0  0  3  0  0  0  0  0  0
   24.5800   63.4080   20.5500 C   0  0  0  0  0  0  0  0  0  0  0  0
   24.9570   64.7530   20.4720 C   0  0  0  0  0  3  0  0  0  0  0  0
   23.6000   62.9730   21.5480 C   0  0  0  0  0  0  0  0  0  0  0  0
   22.4310   62.2680   21.1710 C   0  0  0  0  0  3  0  0  0  0  0  0
   21.4320   61.9590   22.1030 C   0  0  0  0  0  3  0  0  0  0  0  0
   21.6220   62.3810   23.4000 C   0  0  0  0  0  0  0  0  0  0  0  0
   22.7610   63.0730   23.8020 C   0  0  0  0  0  0  0  0  0  0  0  0
   23.7680   63.3510   22.8930 C   0  0  0  0  0  3  0  0  0  0  0  0
   22.6700   63.3950   25.2760 C   0  0  2  0  0  3  0  0  0  0  0  0
   21.2920   62.7800   25.6340 C   0  0  0  0  0  0  0  0  0  0  0  0
   20.7410   62.7690   26.7240 O   0  0  0  0  0  0  0  0  0  0  0  0
   20.7680   62.2130   24.4750 N   0  0  0  0  0  0  0  0  0  0  0  0
   19.8730   61.7440   24.4570 H   0  0  0  0  0  0  0  0  0  0  0  0
   22.6940   64.8480   25.6330 C   0  0  0  0  0  0  0  0  0  0  0  0
   23.7250   65.7550   25.7940 C   0  0  0  0  0  3  0  0  0  0  0  0
   23.1350   67.0090   26.0710 C   0  0  0  0  0  3  0  0  0  0  0  0
   21.7780   66.8020   26.0510 C   0  0  0  0  0  3  0  0  0  0  0  0
   21.4960   65.5010   25.7850 O   0  0  0  0  0  0  0  0  0  0  0  0
   26.4540   66.4270   19.8000 O   0  0  0  0  0  0  0  0  0  0  0  0
   25.5280   67.3020   20.4710 C   0  0  0  0  0  2  0  0  0  0  0  0
   25.2500   66.7730   21.8970 C   0  0  1  0  0  3  0  0  0  0  0  0
   26.3820   67.1690   22.8170 N   0  0  0  0  0  4  0  0  0  0  0  0
   26.2110   66.8790   23.7890 H   0  0  0  0  0  0  0  0  0  0  0  0
   26.5650   68.1820   22.8110 H   0  0  0  0  0  0  0  0  0  0  0  0
   27.2540   66.7070   22.5270 H   0  0  0  0  0  0  0  0  0  0  0  0
   23.9440   67.3060   22.5010 C   0  0  0  0  0  2  0  0  0  0  0  0
   22.7550   66.4700   22.1710 C   0  0  0  0  0  0  0  0  0  0  0  0
   21.6780   66.2070   22.9970 C   0  0  0  0  0  3  0  0  0  0  0  0
   20.7940   65.4130   22.3130 N   0  0  0  0  0  0  0  0  0  0  0  0
   21.2680   65.1590   21.0480 C   0  0  0  0  0  0  0  0  0  0  0  0
   20.6970   64.4150   20.0100 C   0  0  0  0  0  3  0  0  0  0  0  0
   21.3980   64.3390   18.8040 C   0  0  0  0  0  3  0  0  0  0  0  0
   22.6220   64.9810   18.6470 C   0  0  0  0  0  3  0  0  0  0  0  0
   23.1820   65.7190   19.6970 C   0  0  0  0  0  3  0  0  0  0  0  0
   22.4950   65.8120   20.9250 C   0  0  0  0  0  0  0  0  0  0  0  0
   19.9100   65.0720   22.6690 H   0  0  0  0  0  0  0  0  0  0  0  0
  1 23  1  0  0  0  0
  1  6  1  0  0  0  0
  2  3  1  0  0  0  0
  2  1  2  0  0  0  0
  3  4  2  0  0  0  0
  4  5  1  0  0  0  0
  5  7  1  0  0  0  0
  6  5  2  0  0  0  0
  7 12  1  0  0  0  0
  8  7  2  0  0  0  0
  8  9  1  0  0  0  0
  9 10  2  0  0  0  0
 10 11  1  0  0  0  0
 10 16  1  0  0  0  0
 11 13  1  0  0  0  0
 12 11  2  0  0  0  0
 13 18  1  6  0  0  0
 13 14  1  0  0  0  0
 14 15  2  0  0  0  0
 16 14  1  0  0  0  0
 17 16  1  0  0  0  0
 18 22  1  0  0  0  0
 18 19  2  0  0  0  0
 19 20  1  0  0  0  0
 21 20  2  0  0  0  0
 22 21  1  0  0  0  0
 23 24  1  0  0  0  0
 25 24  1  6  0  0  0
 25 30  1  0  0  0  0
 25 26  1  0  0  0  0
 26 27  1  0  0  0  0
 28 26  1  0  0  0  0
 29 26  1  0  0  0  0
 31 30  1  0  0  0  0
 31 32  2  0  0  0  0
 33 40  1  0  0  0  0
 33 32  1  0  0  0  0
 34 33  1  0  0  0  0
 35 34  2  0  0  0  0
 36 35  1  0  0  0  0
 37 36  2  0  0  0  0
 37 38  1  0  0  0  0
 38 39  2  0  0  0  0
 39 34  1  0  0  0  0
 39 31  1  0  0  0  0
M  END
>  <minimizedAffinity>
22.0387211

$$$$
