
 OpenBabel10152418243D

 37 40  0  0  1  0  0  0  0  0999 V2000
    2.2510  -11.6010  -25.2080 C   0  0  2  0  0  3  0  0  0  0  0  0
    2.2310  -10.5140  -24.1260 C   0  0  0  0  0  1  0  0  0  0  0  0
    3.6310   -9.3090  -27.9590 C   0  0  0  0  0  0  0  0  0  0  0  0
    4.1590  -10.2500  -28.8490 C   0  0  0  0  0  3  0  0  0  0  0  0
    4.1560  -11.6070  -28.5330 C   0  0  0  0  0  3  0  0  0  0  0  0
    3.5640  -12.0390  -27.3500 C   0  0  0  0  0  3  0  0  0  0  0  0
    2.9730  -11.1200  -26.4650 C   0  0  0  0  0  0  0  0  0  0  0  0
    3.0520   -9.7430  -26.7620 C   0  0  0  0  0  3  0  0  0  0  0  0
    2.6550   -7.0030  -28.3120 C   0  0  0  0  0  0  0  0  0  0  0  0
    2.6470   -6.1030  -29.1560 O   0  0  0  0  0  0  0  0  0  0  0  0
    3.6080   -7.9750  -28.3960 N   0  0  0  0  0  0  0  0  0  0  0  0
    4.3860   -7.6850  -28.9760 H   0  0  0  0  0  0  0  0  0  0  0  0
   -0.1550   -5.4850  -23.5870 C   0  0  0  0  0  1  0  0  0  0  0  0
    0.0540   -6.4340  -24.7690 C   0  0  0  0  0  0  0  0  0  0  0  0
    1.4150   -7.1560  -24.6470 C   0  0  0  0  0  3  0  0  0  0  0  0
    2.1220   -7.4460  -25.9440 C   0  0  0  0  0  3  0  0  0  0  0  0
    1.7470   -6.9040  -27.1200 C   0  0  0  0  0  0  0  0  0  0  0  0
    0.6370   -5.9700  -27.1550 C   0  0  0  0  0  3  0  0  0  0  0  0
   -0.1400   -5.7380  -26.0890 C   0  0  0  0  0  0  0  0  0  0  0  0
   -1.1520   -4.8510  -26.2170 F   0  0  0  0  0  0  0  0  0  0  0  0
    0.8840  -11.9660  -25.5450 N   0  0  0  0  0  0  0  0  0  0  0  0
    0.6790  -12.8550  -25.9680 H   0  0  0  0  0  0  0  0  0  0  0  0
   -0.1280  -11.0510  -25.3110 C   0  0  0  0  0  0  0  0  0  0  0  0
   -0.4220  -10.2100  -26.3140 N   0  0  0  0  0  0  0  0  0  0  0  0
   -1.2920   -9.2430  -26.0460 C   0  0  0  0  0  3  0  0  0  0  0  0
   -1.8170   -8.9700  -24.8500 N   0  0  0  0  0  0  0  0  0  0  0  0
   -1.5300   -9.8140  -23.8410 C   0  0  0  0  0  0  0  0  0  0  0  0
   -2.0200   -9.6040  -22.5460 C   0  0  0  0  0  0  0  0  0  0  0  0
   -1.8180  -10.5130  -21.4970 C   0  0  0  0  0  3  0  0  0  0  0  0
   -1.0530  -11.6460  -21.7140 C   0  0  0  0  0  3  0  0  0  0  0  0
   -0.4820  -11.8450  -22.9670 C   0  0  0  0  0  3  0  0  0  0  0  0
   -0.7130  -10.9380  -24.0380 C   0  0  0  0  0  0  0  0  0  0  0  0
   -2.7160   -8.3520  -22.1970 C   0  0  0  0  0  0  0  0  0  0  0  0
   -3.8410   -8.0800  -22.9260 N   0  0  0  0  0  0  0  0  0  0  0  0
   -2.2470   -7.5590  -21.3930 O   0  0  0  0  0  0  0  0  0  0  0  0
   -4.3280   -7.2130  -22.7480 H   0  0  0  0  0  0  0  0  0  0  0  0
   -4.2040   -8.7170  -23.6190 H   0  0  0  0  0  0  0  0  0  0  0  0
  1  2  1  1  0  0  0
  3  8  1  0  0  0  0
  4  5  1  0  0  0  0
  4  3  2  0  0  0  0
  5  6  2  0  0  0  0
  6  7  1  0  0  0  0
  7  1  1  0  0  0  0
  8  7  2  0  0  0  0
  9 17  1  0  0  0  0
 10  9  2  0  0  0  0
 11  9  1  0  0  0  0
 11  3  1  0  0  0  0
 12 11  1  0  0  0  0
 14 15  1  0  0  0  0
 14 13  1  0  0  0  0
 16 15  2  0  0  0  0
 17 16  1  0  0  0  0
 18 17  2  0  0  0  0
 18 19  1  0  0  0  0
 19 14  2  0  0  0  0
 20 19  1  0  0  0  0
 21 23  1  0  0  0  0
 21  1  1  0  0  0  0
 22 21  1  0  0  0  0
 23 32  1  0  0  0  0
 24 25  1  0  0  0  0
 24 23  2  0  0  0  0
 25 26  2  0  0  0  0
 26 27  1  0  0  0  0
 27 28  1  0  0  0  0
 28 33  1  0  0  0  0
 28 29  2  0  0  0  0
 30 29  1  0  0  0  0
 31 30  2  0  0  0  0
 32 27  2  0  0  0  0
 32 31  1  0  0  0  0
 33 35  2  0  0  0  0
 34 36  1  0  0  0  0
 34 33  1  0  0  0  0
 37 34  1  0  0  0  0
M  END
>  <minimizedAffinity>
-8.16364288

$$$$
