
 OpenBabel10152418243D

 37 40  0  0  1  0  0  0  0  0999 V2000
    1.0660  -11.0400  -25.8430 C   0  0  2  0  0  3  0  0  0  0  0  0
    0.2320  -12.0390  -26.6540 C   0  0  0  0  0  1  0  0  0  0  0  0
    4.0130   -9.6470  -27.8680 C   0  0  0  0  0  0  0  0  0  0  0  0
    4.9740  -10.6400  -27.6560 C   0  0  0  0  0  3  0  0  0  0  0  0
    4.7160  -11.7070  -26.7980 C   0  0  0  0  0  3  0  0  0  0  0  0
    3.4670  -11.8220  -26.1950 C   0  0  0  0  0  3  0  0  0  0  0  0
    2.4620  -10.8690  -26.4380 C   0  0  0  0  0  0  0  0  0  0  0  0
    2.7640   -9.7540  -27.2480 C   0  0  0  0  0  3  0  0  0  0  0  0
    3.6030   -7.6290  -29.3370 C   0  0  0  0  0  0  0  0  0  0  0  0
    3.9020   -7.2030  -30.4560 O   0  0  0  0  0  0  0  0  0  0  0  0
    4.3320   -8.6530  -28.8070 N   0  0  0  0  0  0  0  0  0  0  0  0
    5.2260   -8.7550  -29.2730 H   0  0  0  0  0  0  0  0  0  0  0  0
   -0.9620   -4.8480  -27.3510 C   0  0  0  0  0  1  0  0  0  0  0  0
    0.3990   -5.5100  -27.1270 C   0  0  0  0  0  0  0  0  0  0  0  0
    1.5080   -4.7260  -27.8640 C   0  0  0  0  0  3  0  0  0  0  0  0
    2.6350   -5.5510  -28.4240 C   0  0  0  0  0  3  0  0  0  0  0  0
    2.5820   -6.8950  -28.5160 C   0  0  0  0  0  0  0  0  0  0  0  0
    1.3820   -7.5940  -28.0960 C   0  0  0  0  0  3  0  0  0  0  0  0
    0.3740   -6.9760  -27.4680 C   0  0  0  0  0  0  0  0  0  0  0  0
   -0.7040   -7.7100  -27.1130 F   0  0  0  0  0  0  0  0  0  0  0  0
    1.1780  -11.5130  -24.4720 N   0  0  0  0  0  0  0  0  0  0  0  0
    1.8670  -12.2010  -24.2220 H   0  0  0  0  0  0  0  0  0  0  0  0
    0.2930  -11.0300  -23.5250 C   0  0  0  0  0  0  0  0  0  0  0  0
   -0.3100  -11.9410  -22.7450 N   0  0  0  0  0  0  0  0  0  0  0  0
   -1.2610  -11.4940  -21.9330 C   0  0  0  0  0  3  0  0  0  0  0  0
   -1.7390  -10.2490  -21.8950 N   0  0  0  0  0  0  0  0  0  0  0  0
   -1.1340   -9.3300  -22.6710 C   0  0  0  0  0  0  0  0  0  0  0  0
   -1.5730   -8.0010  -22.7130 C   0  0  0  0  0  0  0  0  0  0  0  0
   -0.9080   -7.0000  -23.4360 C   0  0  0  0  0  3  0  0  0  0  0  0
    0.2010   -7.3300  -24.1960 C   0  0  0  0  0  3  0  0  0  0  0  0
    0.6170   -8.6580  -24.2420 C   0  0  0  0  0  3  0  0  0  0  0  0
   -0.0410   -9.6650  -23.4850 C   0  0  0  0  0  0  0  0  0  0  0  0
   -2.8290   -7.6000  -22.0520 C   0  0  0  0  0  0  0  0  0  0  0  0
   -2.7650   -7.4740  -20.6920 N   0  0  0  0  0  0  0  0  0  0  0  0
   -3.8790   -7.5060  -22.6720 O   0  0  0  0  0  0  0  0  0  0  0  0
   -3.6110   -7.2400  -20.1930 H   0  0  0  0  0  0  0  0  0  0  0  0
   -1.9050   -7.5930  -20.1770 H   0  0  0  0  0  0  0  0  0  0  0  0
  1  2  1  6  0  0  0
  1 21  1  0  0  0  0
  3  4  2  0  0  0  0
  3  8  1  0  0  0  0
  4  5  1  0  0  0  0
  5  6  2  0  0  0  0
  7  6  1  0  0  0  0
  7  1  1  0  0  0  0
  8  7  2  0  0  0  0
  9 11  1  0  0  0  0
  9 17  1  0  0  0  0
 10  9  2  0  0  0  0
 11  3  1  0  0  0  0
 12 11  1  0  0  0  0
 13 14  1  0  0  0  0
 15 14  2  0  0  0  0
 16 15  1  0  0  0  0
 17 16  2  0  0  0  0
 17 18  1  0  0  0  0
 18 19  2  0  0  0  0
 19 14  1  0  0  0  0
 19 20  1  0  0  0  0
 21 22  1  0  0  0  0
 21 23  1  0  0  0  0
 23 32  2  0  0  0  0
 23 24  1  0  0  0  0
 24 25  2  0  0  0  0
 25 26  1  0  0  0  0
 27 26  2  0  0  0  0
 28 27  1  0  0  0  0
 28 33  1  0  0  0  0
 29 28  2  0  0  0  0
 30 29  1  0  0  0  0
 31 30  2  0  0  0  0
 31 32  1  0  0  0  0
 32 27  1  0  0  0  0
 33 34  1  0  0  0  0
 34 36  1  0  0  0  0
 34 37  1  0  0  0  0
 35 33  2  0  0  0  0
M  END
>  <minimizedAffinity>
-7.62236834

$$$$
