
 OpenBabel10152418243D

 37 40  0  0  1  0  0  0  0  0999 V2000
    0.3880   -6.9030  -26.6820 C   0  0  2  0  0  3  0  0  0  0  0  0
   -0.5790   -6.2560  -27.6800 C   0  0  0  0  0  1  0  0  0  0  0  0
   -0.7720   -7.4270  -23.0610 C   0  0  0  0  0  0  0  0  0  0  0  0
   -0.9540   -6.1040  -22.6460 C   0  0  0  0  0  3  0  0  0  0  0  0
   -0.6220   -5.0440  -23.4870 C   0  0  0  0  0  3  0  0  0  0  0  0
   -0.1670   -5.3020  -24.7770 C   0  0  0  0  0  3  0  0  0  0  0  0
   -0.0320   -6.6220  -25.2400 C   0  0  0  0  0  0  0  0  0  0  0  0
   -0.2970   -7.6850  -24.3520 C   0  0  0  0  0  3  0  0  0  0  0  0
   -1.6570   -9.6980  -22.3860 C   0  0  0  0  0  0  0  0  0  0  0  0
   -2.4160  -10.2040  -21.5550 O   0  0  0  0  0  0  0  0  0  0  0  0
   -1.2040   -8.4280  -22.1780 N   0  0  0  0  0  0  0  0  0  0  0  0
   -1.3110   -8.1490  -21.2090 H   0  0  0  0  0  0  0  0  0  0  0  0
    1.0770  -11.8120  -26.9230 C   0  0  0  0  0  1  0  0  0  0  0  0
    0.1670  -11.9980  -25.7070 C   0  0  0  0  0  0  0  0  0  0  0  0
   -1.1610  -11.2340  -25.9060 C   0  0  0  0  0  3  0  0  0  0  0  0
   -1.7710  -10.6420  -24.6630 C   0  0  0  0  0  3  0  0  0  0  0  0
   -1.1050  -10.5480  -23.4950 C   0  0  0  0  0  0  0  0  0  0  0  0
    0.2720  -10.9980  -23.4190 C   0  0  0  0  0  3  0  0  0  0  0  0
    0.8700  -11.6540  -24.4210 C   0  0  0  0  0  0  0  0  0  0  0  0
    2.1560  -12.0360  -24.2580 F   0  0  0  0  0  0  0  0  0  0  0  0
    1.7270   -6.3820  -26.9060 N   0  0  0  0  0  0  0  0  0  0  0  0
    2.0750   -5.6090  -26.3660 H   0  0  0  0  0  0  0  0  0  0  0  0
    2.5030   -6.9430  -27.9060 C   0  0  0  0  0  0  0  0  0  0  0  0
    2.4290   -6.3700  -29.1170 N   0  0  0  0  0  0  0  0  0  0  0  0
    3.0610   -6.9880  -30.1080 C   0  0  0  0  0  3  0  0  0  0  0  0
    3.6710   -8.1720  -30.0320 N   0  0  0  0  0  0  0  0  0  0  0  0
    3.7530   -8.7490  -28.8180 C   0  0  0  0  0  0  0  0  0  0  0  0
    4.3590   -9.9980  -28.6380 C   0  0  0  0  0  0  0  0  0  0  0  0
    4.5450  -10.5820  -27.3760 C   0  0  0  0  0  3  0  0  0  0  0  0
    4.0620   -9.9380  -26.2490 C   0  0  0  0  0  3  0  0  0  0  0  0
    3.3810   -8.7340  -26.4000 C   0  0  0  0  0  3  0  0  0  0  0  0
    3.2210   -8.1290  -27.6760 C   0  0  0  0  0  0  0  0  0  0  0  0
    4.7650  -10.8140  -29.7980 C   0  0  0  0  0  0  0  0  0  0  0  0
    4.9740  -10.1230  -30.9590 N   0  0  0  0  0  0  0  0  0  0  0  0
    4.7950  -12.0350  -29.7450 O   0  0  0  0  0  0  0  0  0  0  0  0
    5.2150  -10.6450  -31.7900 H   0  0  0  0  0  0  0  0  0  0  0  0
    4.9090   -9.1170  -31.0110 H   0  0  0  0  0  0  0  0  0  0  0  0
  1  2  1  6  0  0  0
  1  7  1  0  0  0  0
  3  4  1  0  0  0  0
  3 11  1  0  0  0  0
  5  4  2  0  0  0  0
  6  5  1  0  0  0  0
  7  6  2  0  0  0  0
  7  8  1  0  0  0  0
  8  3  2  0  0  0  0
  9 11  1  0  0  0  0
  9 10  2  0  0  0  0
 11 12  1  0  0  0  0
 13 14  1  0  0  0  0
 14 19  1  0  0  0  0
 15 14  2  0  0  0  0
 15 16  1  0  0  0  0
 16 17  2  0  0  0  0
 17 18  1  0  0  0  0
 17  9  1  0  0  0  0
 19 20  1  0  0  0  0
 19 18  2  0  0  0  0
 21  1  1  0  0  0  0
 21 22  1  0  0  0  0
 23 32  1  0  0  0  0
 23 21  1  0  0  0  0
 24 23  2  0  0  0  0
 25 26  2  0  0  0  0
 25 24  1  0  0  0  0
 26 27  1  0  0  0  0
 27 28  2  0  0  0  0
 27 32  1  0  0  0  0
 28 29  1  0  0  0  0
 29 30  2  0  0  0  0
 31 30  1  0  0  0  0
 32 31  2  0  0  0  0
 33 35  2  0  0  0  0
 33 28  1  0  0  0  0
 34 33  1  0  0  0  0
 36 34  1  0  0  0  0
 37 34  1  0  0  0  0
M  END
>  <minimizedAffinity>
-8.31669044

$$$$
