
 OpenBabel10152418243D

 37 40  0  0  1  0  0  0  0  0999 V2000
   -0.2800   -5.9010  -25.0940 C   0  0  2  0  0  3  0  0  0  0  0  0
   -0.8150   -4.6150  -24.4530 C   0  0  0  0  0  1  0  0  0  0  0  0
    1.9300   -6.1490  -28.2220 C   0  0  0  0  0  0  0  0  0  0  0  0
    1.4940   -5.0340  -28.9450 C   0  0  0  0  0  3  0  0  0  0  0  0
    0.4360   -4.2550  -28.4800 C   0  0  0  0  0  3  0  0  0  0  0  0
   -0.1500   -4.5490  -27.2530 C   0  0  0  0  0  3  0  0  0  0  0  0
    0.3080   -5.6290  -26.4770 C   0  0  0  0  0  0  0  0  0  0  0  0
    1.3270   -6.4550  -26.9970 C   0  0  0  0  0  3  0  0  0  0  0  0
    3.7970   -7.8550  -28.2310 C   0  0  0  0  0  0  0  0  0  0  0  0
    4.9740   -7.9600  -28.5860 O   0  0  0  0  0  0  0  0  0  0  0  0
    3.0500   -6.8280  -28.7280 N   0  0  0  0  0  0  0  0  0  0  0  0
    3.4650   -6.4350  -29.5650 H   0  0  0  0  0  0  0  0  0  0  0  0
    2.5840  -12.0210  -24.5300 C   0  0  0  0  0  1  0  0  0  0  0  0
    2.1640  -11.0660  -25.6500 C   0  0  0  0  0  0  0  0  0  0  0  0
    2.9180  -11.4030  -26.9560 C   0  0  0  0  0  3  0  0  0  0  0  0
    3.2670  -10.2320  -27.8340 C   0  0  0  0  0  3  0  0  0  0  0  0
    3.1700   -8.9520  -27.4200 C   0  0  0  0  0  0  0  0  0  0  0  0
    2.7480   -8.6710  -26.0610 C   0  0  0  0  0  3  0  0  0  0  0  0
    2.2940   -9.6240  -25.2380 C   0  0  0  0  0  0  0  0  0  0  0  0
    1.9220   -9.2670  -23.9890 F   0  0  0  0  0  0  0  0  0  0  0  0
   -1.3640   -6.8640  -25.2100 N   0  0  0  0  0  0  0  0  0  0  0  0
   -2.2150   -6.6240  -25.6890 H   0  0  0  0  0  0  0  0  0  0  0  0
   -1.2210   -8.1050  -24.6140 C   0  0  0  0  0  0  0  0  0  0  0  0
   -1.0960   -9.1570  -25.4380 N   0  0  0  0  0  0  0  0  0  0  0  0
   -1.0990  -10.3590  -24.8740 C   0  0  0  0  0  3  0  0  0  0  0  0
   -1.3170  -10.6200  -23.5840 N   0  0  0  0  0  0  0  0  0  0  0  0
   -1.4370   -9.5680  -22.7520 C   0  0  0  0  0  0  0  0  0  0  0  0
   -1.6840   -9.7370  -21.3840 C   0  0  0  0  0  0  0  0  0  0  0  0
   -1.7200   -8.6690  -20.4770 C   0  0  0  0  0  3  0  0  0  0  0  0
   -1.5660   -7.3740  -20.9410 C   0  0  0  0  0  3  0  0  0  0  0  0
   -1.4010   -7.1620  -22.3060 C   0  0  0  0  0  3  0  0  0  0  0  0
   -1.3340   -8.2490  -23.2210 C   0  0  0  0  0  0  0  0  0  0  0  0
   -2.0060  -11.0680  -20.8360 C   0  0  0  0  0  0  0  0  0  0  0  0
   -1.0690  -12.0390  -21.0560 N   0  0  0  0  0  0  0  0  0  0  0  0
   -3.0910  -11.3070  -20.3250 O   0  0  0  0  0  0  0  0  0  0  0  0
   -1.2640  -12.9760  -20.7330 H   0  0  0  0  0  0  0  0  0  0  0  0
   -0.1900  -11.8490  -21.5160 H   0  0  0  0  0  0  0  0  0  0  0  0
  1  2  1  6  0  0  0
  3  8  1  0  0  0  0
  4  5  1  0  0  0  0
  4  3  2  0  0  0  0
  5  6  2  0  0  0  0
  6  7  1  0  0  0  0
  7  1  1  0  0  0  0
  8  7  2  0  0  0  0
  9 17  1  0  0  0  0
 10  9  2  0  0  0  0
 11  9  1  0  0  0  0
 11  3  1  0  0  0  0
 12 11  1  0  0  0  0
 14 19  1  0  0  0  0
 14 13  1  0  0  0  0
 15 14  2  0  0  0  0
 16 17  2  0  0  0  0
 16 15  1  0  0  0  0
 17 18  1  0  0  0  0
 18 19  2  0  0  0  0
 19 20  1  0  0  0  0
 21  1  1  0  0  0  0
 21 23  1  0  0  0  0
 22 21  1  0  0  0  0
 23 32  1  0  0  0  0
 24 25  1  0  0  0  0
 24 23  2  0  0  0  0
 25 26  2  0  0  0  0
 26 27  1  0  0  0  0
 27 28  1  0  0  0  0
 28 33  1  0  0  0  0
 28 29  2  0  0  0  0
 30 29  1  0  0  0  0
 31 30  2  0  0  0  0
 32 27  2  0  0  0  0
 32 31  1  0  0  0  0
 33 35  2  0  0  0  0
 34 33  1  0  0  0  0
 34 36  1  0  0  0  0
 37 34  1  0  0  0  0
M  END
>  <minimizedAffinity>
-9.260005

$$$$
