
 OpenBabel10152418243D

 37 40  0  0  1  0  0  0  0  0999 V2000
    1.3090   -5.2660  -28.5110 C   0  0  2  0  0  3  0  0  0  0  0  0
    1.0190   -3.7620  -28.6020 C   0  0  0  0  0  1  0  0  0  0  0  0
   -0.6830   -7.8720  -26.5190 C   0  0  0  0  0  0  0  0  0  0  0  0
   -1.1600   -7.0910  -25.4620 C   0  0  0  0  0  3  0  0  0  0  0  0
   -0.7750   -5.7580  -25.3330 C   0  0  0  0  0  3  0  0  0  0  0  0
    0.0390   -5.1780  -26.3010 C   0  0  0  0  0  3  0  0  0  0  0  0
    0.4840   -5.9240  -27.4070 C   0  0  0  0  0  0  0  0  0  0  0  0
    0.1500   -7.2930  -27.4830 C   0  0  0  0  0  3  0  0  0  0  0  0
   -1.3040  -10.1800  -25.6900 C   0  0  0  0  0  0  0  0  0  0  0  0
   -1.3090  -11.3500  -26.0810 O   0  0  0  0  0  0  0  0  0  0  0  0
   -1.1850   -9.1800  -26.6110 N   0  0  0  0  0  0  0  0  0  0  0  0
   -1.4100   -9.5040  -27.5440 H   0  0  0  0  0  0  0  0  0  0  0  0
   -1.9180   -7.8780  -20.5090 C   0  0  0  0  0  1  0  0  0  0  0  0
   -2.1640   -9.0160  -21.5010 C   0  0  0  0  0  0  0  0  0  0  0  0
   -0.8300   -9.7000  -21.8780 C   0  0  0  0  0  3  0  0  0  0  0  0
   -0.7290  -10.2080  -23.2910 C   0  0  0  0  0  3  0  0  0  0  0  0
   -1.6150   -9.8800  -24.2520 C   0  0  0  0  0  0  0  0  0  0  0  0
   -2.7020   -8.9700  -23.9420 C   0  0  0  0  0  3  0  0  0  0  0  0
   -2.9610   -8.5610  -22.6940 C   0  0  0  0  0  0  0  0  0  0  0  0
   -3.9960   -7.7130  -22.5020 F   0  0  0  0  0  0  0  0  0  0  0  0
    2.7240   -5.4640  -28.2420 N   0  0  0  0  0  0  0  0  0  0  0  0
    3.2790   -4.7280  -27.8400 H   0  0  0  0  0  0  0  0  0  0  0  0
    3.3060   -6.6720  -28.5860 C   0  0  0  0  0  0  0  0  0  0  0  0
    3.7560   -6.7860  -29.8450 N   0  0  0  0  0  0  0  0  0  0  0  0
    4.1860   -7.9850  -30.2180 C   0  0  0  0  0  3  0  0  0  0  0  0
    4.1160   -9.1040  -29.4940 N   0  0  0  0  0  0  0  0  0  0  0  0
    3.6710   -8.9940  -28.2280 C   0  0  0  0  0  0  0  0  0  0  0  0
    3.5460  -10.1120  -27.3940 C   0  0  0  0  0  0  0  0  0  0  0  0
    3.1770  -10.0200  -26.0440 C   0  0  0  0  0  3  0  0  0  0  0  0
    2.8610   -8.7850  -25.5060 C   0  0  0  0  0  3  0  0  0  0  0  0
    2.8950   -7.6620  -26.3280 C   0  0  0  0  0  3  0  0  0  0  0  0
    3.2980   -7.7530  -27.6880 C   0  0  0  0  0  0  0  0  0  0  0  0
    3.7200  -11.4750  -27.9300 C   0  0  0  0  0  0  0  0  0  0  0  0
    4.9740  -12.0050  -27.7940 N   0  0  0  0  0  0  0  0  0  0  0  0
    2.8340  -12.0380  -28.5550 O   0  0  0  0  0  0  0  0  0  0  0  0
    5.1510  -12.9210  -28.1820 H   0  0  0  0  0  0  0  0  0  0  0  0
    5.7180  -11.5210  -27.3130 H   0  0  0  0  0  0  0  0  0  0  0  0
  1  2  1  1  0  0  0
  1 21  1  0  0  0  0
  1  7  1  0  0  0  0
  3  4  1  0  0  0  0
  4  5  2  0  0  0  0
  6  5  1  0  0  0  0
  7  6  2  0  0  0  0
  8  7  1  0  0  0  0
  8  3  2  0  0  0  0
  9 17  1  0  0  0  0
 10  9  2  0  0  0  0
 11  3  1  0  0  0  0
 11  9  1  0  0  0  0
 12 11  1  0  0  0  0
 14 13  1  0  0  0  0
 15 14  1  0  0  0  0
 16 15  2  0  0  0  0
 17 18  2  0  0  0  0
 17 16  1  0  0  0  0
 18 19  1  0  0  0  0
 19 20  1  0  0  0  0
 19 14  2  0  0  0  0
 21 22  1  0  0  0  0
 23 21  1  0  0  0  0
 23 32  1  0  0  0  0
 24 23  2  0  0  0  0
 25 24  1  0  0  0  0
 25 26  2  0  0  0  0
 26 27  1  0  0  0  0
 27 32  2  0  0  0  0
 27 28  1  0  0  0  0
 28 29  2  0  0  0  0
 29 30  1  0  0  0  0
 31 30  2  0  0  0  0
 32 31  1  0  0  0  0
 33 34  1  0  0  0  0
 33 28  1  0  0  0  0
 34 37  1  0  0  0  0
 35 33  2  0  0  0  0
 36 34  1  0  0  0  0
M  END
>  <minimizedAffinity>
-8.14861107

$$$$
