
 OpenBabel10152418243D

 37 40  0  0  1  0  0  0  0  0999 V2000
    3.7760   -7.7560  -28.5190 C   0  0  2  0  0  3  0  0  0  0  0  0
    4.7470   -7.1380  -29.5320 C   0  0  0  0  0  1  0  0  0  0  0  0
    4.3410  -11.1900  -26.9000 C   0  0  0  0  0  0  0  0  0  0  0  0
    4.6520  -11.9650  -28.0220 C   0  0  0  0  0  3  0  0  0  0  0  0
    4.5940  -11.4170  -29.3020 C   0  0  0  0  0  3  0  0  0  0  0  0
    4.2880  -10.0690  -29.4630 C   0  0  0  0  0  3  0  0  0  0  0  0
    4.0300   -9.2530  -28.3480 C   0  0  0  0  0  0  0  0  0  0  0  0
    4.0160   -9.8390  -27.0650 C   0  0  0  0  0  3  0  0  0  0  0  0
    3.6800  -11.8910  -24.5620 C   0  0  0  0  0  0  0  0  0  0  0  0
    4.1840  -12.0390  -23.4450 O   0  0  0  0  0  0  0  0  0  0  0  0
    4.5010  -11.8040  -25.6480 N   0  0  0  0  0  0  0  0  0  0  0  0
    5.4260  -12.1650  -25.4470 H   0  0  0  0  0  0  0  0  0  0  0  0
   -1.8970  -10.9970  -25.3440 C   0  0  0  0  0  1  0  0  0  0  0  0
   -0.7140  -11.9450  -25.1320 C   0  0  0  0  0  0  0  0  0  0  0  0
   -0.0980  -11.7320  -23.7310 C   0  0  0  0  0  3  0  0  0  0  0  0
    1.3930  -11.9120  -23.6360 C   0  0  0  0  0  3  0  0  0  0  0  0
    2.1910  -12.0010  -24.7190 C   0  0  0  0  0  0  0  0  0  0  0  0
    1.6120  -11.8830  -26.0440 C   0  0  0  0  0  3  0  0  0  0  0  0
    0.2890  -11.8490  -26.2500 C   0  0  0  0  0  0  0  0  0  0  0  0
   -0.1570  -11.7390  -27.5210 F   0  0  0  0  0  0  0  0  0  0  0  0
    2.4110   -7.5460  -28.9750 N   0  0  0  0  0  0  0  0  0  0  0  0
    2.0540   -8.0420  -29.7740 H   0  0  0  0  0  0  0  0  0  0  0  0
    1.6220   -6.6210  -28.3150 C   0  0  0  0  0  0  0  0  0  0  0  0
    1.5560   -5.3930  -28.8530 N   0  0  0  0  0  0  0  0  0  0  0  0
    0.9150   -4.4670  -28.1490 C   0  0  0  0  0  3  0  0  0  0  0  0
    0.4240   -4.6180  -26.9180 N   0  0  0  0  0  0  0  0  0  0  0  0
    0.4820   -5.8490  -26.3750 C   0  0  0  0  0  0  0  0  0  0  0  0
    0.0090   -6.1050  -25.0830 C   0  0  0  0  0  0  0  0  0  0  0  0
   -0.0330   -7.3910  -24.5260 C   0  0  0  0  0  3  0  0  0  0  0  0
    0.4670   -8.4630  -25.2450 C   0  0  0  0  0  3  0  0  0  0  0  0
    1.0210   -8.2320  -26.5010 C   0  0  0  0  0  3  0  0  0  0  0  0
    1.0340   -6.9320  -27.0770 C   0  0  0  0  0  0  0  0  0  0  0  0
   -0.4020   -4.9990  -24.1980 C   0  0  0  0  0  0  0  0  0  0  0  0
   -0.2080   -5.2110  -22.8610 N   0  0  0  0  0  0  0  0  0  0  0  0
   -0.9830   -4.0130  -24.6280 O   0  0  0  0  0  0  0  0  0  0  0  0
   -0.5120   -4.4970  -22.2130 H   0  0  0  0  0  0  0  0  0  0  0  0
    0.2350   -6.0450  -22.5030 H   0  0  0  0  0  0  0  0  0  0  0  0
  1  2  1  6  0  0  0
  1  7  1  0  0  0  0
  3 11  1  0  0  0  0
  4  3  2  0  0  0  0
  5  4  1  0  0  0  0
  6  5  2  0  0  0  0
  6  7  1  0  0  0  0
  7  8  2  0  0  0  0
  8  3  1  0  0  0  0
  9 10  2  0  0  0  0
 11 12  1  0  0  0  0
 11  9  1  0  0  0  0
 13 14  1  0  0  0  0
 14 15  1  0  0  0  0
 15 16  2  0  0  0  0
 17  9  1  0  0  0  0
 17 16  1  0  0  0  0
 18 17  2  0  0  0  0
 19 18  1  0  0  0  0
 19 14  2  0  0  0  0
 20 19  1  0  0  0  0
 21  1  1  0  0  0  0
 21 23  1  0  0  0  0
 22 21  1  0  0  0  0
 23 32  1  0  0  0  0
 24 23  2  0  0  0  0
 24 25  1  0  0  0  0
 25 26  2  0  0  0  0
 26 27  1  0  0  0  0
 27 28  1  0  0  0  0
 28 29  2  0  0  0  0
 28 33  1  0  0  0  0
 30 29  1  0  0  0  0
 31 30  2  0  0  0  0
 32 31  1  0  0  0  0
 32 27  2  0  0  0  0
 33 34  1  0  0  0  0
 34 37  1  0  0  0  0
 34 36  1  0  0  0  0
 35 33  2  0  0  0  0
M  END
>  <minimizedAffinity>
-7.31220675

$$$$
