
 OpenBabel10152418243D

 37 40  0  0  1  0  0  0  0  0999 V2000
   -0.2800   -5.9010  -25.0940 C   0  0  2  0  0  3  0  0  0  0  0  0
   -0.8150   -4.6150  -24.4530 C   0  0  0  0  0  1  0  0  0  0  0  0
    1.9300   -6.1490  -28.2220 C   0  0  0  0  0  0  0  0  0  0  0  0
    1.4940   -5.0340  -28.9450 C   0  0  0  0  0  3  0  0  0  0  0  0
    0.4360   -4.2550  -28.4800 C   0  0  0  0  0  3  0  0  0  0  0  0
   -0.1500   -4.5490  -27.2530 C   0  0  0  0  0  3  0  0  0  0  0  0
    0.3080   -5.6290  -26.4770 C   0  0  0  0  0  0  0  0  0  0  0  0
    1.3270   -6.4550  -26.9970 C   0  0  0  0  0  3  0  0  0  0  0  0
    3.7970   -7.8550  -28.2310 C   0  0  0  0  0  0  0  0  0  0  0  0
    4.9740   -7.9600  -28.5860 O   0  0  0  0  0  0  0  0  0  0  0  0
    3.0500   -6.8280  -28.7280 N   0  0  0  0  0  0  0  0  0  0  0  0
    3.4650   -6.4350  -29.5650 H   0  0  0  0  0  0  0  0  0  0  0  0
    2.5840  -12.0210  -24.5300 C   0  0  0  0  0  1  0  0  0  0  0  0
    2.1640  -11.0660  -25.6500 C   0  0  0  0  0  0  0  0  0  0  0  0
    2.9180  -11.4030  -26.9560 C   0  0  0  0  0  3  0  0  0  0  0  0
    3.2670  -10.2320  -27.8340 C   0  0  0  0  0  3  0  0  0  0  0  0
    3.1700   -8.9520  -27.4200 C   0  0  0  0  0  0  0  0  0  0  0  0
    2.7480   -8.6710  -26.0610 C   0  0  0  0  0  3  0  0  0  0  0  0
    2.2940   -9.6240  -25.2380 C   0  0  0  0  0  0  0  0  0  0  0  0
    1.9220   -9.2670  -23.9890 F   0  0  0  0  0  0  0  0  0  0  0  0
   -1.3640   -6.8640  -25.2100 N   0  0  0  0  0  0  0  0  0  0  0  0
   -2.2150   -6.6240  -25.6890 H   0  0  0  0  0  0  0  0  0  0  0  0
   -1.2210   -8.1050  -24.6140 C   0  0  0  0  0  0  0  0  0  0  0  0
   -1.0960   -9.1570  -25.4380 N   0  0  0  0  0  0  0  0  0  0  0  0
   -1.0990  -10.3590  -24.8740 C   0  0  0  0  0  3  0  0  0  0  0  0
   -1.3170  -10.6200  -23.5840 N   0  0  0  0  0  0  0  0  0  0  0  0
   -1.4370   -9.5680  -22.7520 C   0  0  0  0  0  0  0  0  0  0  0  0
   -1.6840   -9.7370  -21.3840 C   0  0  0  0  0  0  0  0  0  0  0  0
   -1.7200   -8.6690  -20.4770 C   0  0  0  0  0  3  0  0  0  0  0  0
   -1.5660   -7.3740  -20.9410 C   0  0  0  0  0  3  0  0  0  0  0  0
   -1.4010   -7.1620  -22.3060 C   0  0  0  0  0  3  0  0  0  0  0  0
   -1.3340   -8.2490  -23.2210 C   0  0  0  0  0  0  0  0  0  0  0  0
   -2.0060  -11.0680  -20.8360 C   0  0  0  0  0  0  0  0  0  0  0  0
   -1.0690  -12.0390  -21.0560 N   0  0  0  0  0  0  0  0  0  0  0  0
   -3.0910  -11.3070  -20.3250 O   0  0  0  0  0  0  0  0  0  0  0  0
   -1.2640  -12.9760  -20.7330 H   0  0  0  0  0  0  0  0  0  0  0  0
   -0.1900  -11.8490  -21.5160 H   0  0  0  0  0  0  0  0  0  0  0  0
  1  2  1  6  0  0  0
  3  8  1  0  0  0  0
  4  5  1  0  0  0  0
  4  3  2  0  0  0  0
  5  6  2  0  0  0  0
  6  7  1  0  0  0  0
  7  1  1  0  0  0  0
  8  7  2  0  0  0  0
  9 17  1  0  0  0  0
 10  9  2  0  0  0  0
 11  9  1  0  0  0  0
 11  3  1  0  0  0  0
 12 11  1  0  0  0  0
 14 19  1  0  0  0  0
 14 13  1  0  0  0  0
 15 14  2  0  0  0  0
 16 17  2  0  0  0  0
 16 15  1  0  0  0  0
 17 18  1  0  0  0  0
 18 19  2  0  0  0  0
 19 20  1  0  0  0  0
 21  1  1  0  0  0  0
 21 23  1  0  0  0  0
 22 21  1  0  0  0  0
 23 32  1  0  0  0  0
 24 25  1  0  0  0  0
 24 23  2  0  0  0  0
 25 26  2  0  0  0  0
 26 27  1  0  0  0  0
 27 28  1  0  0  0  0
 28 33  1  0  0  0  0
 28 29  2  0  0  0  0
 30 29  1  0  0  0  0
 31 30  2  0  0  0  0
 32 27  2  0  0  0  0
 32 31  1  0  0  0  0
 33 35  2  0  0  0  0
 34 33  1  0  0  0  0
 34 36  1  0  0  0  0
 37 34  1  0  0  0  0
M  END
>  <minimizedAffinity>
-9.260005

$$$$

 OpenBabel10152418243D

 37 40  0  0  1  0  0  0  0  0999 V2000
    0.3880   -6.9030  -26.6820 C   0  0  2  0  0  3  0  0  0  0  0  0
   -0.5790   -6.2560  -27.6800 C   0  0  0  0  0  1  0  0  0  0  0  0
   -0.7720   -7.4270  -23.0610 C   0  0  0  0  0  0  0  0  0  0  0  0
   -0.9540   -6.1040  -22.6460 C   0  0  0  0  0  3  0  0  0  0  0  0
   -0.6220   -5.0440  -23.4870 C   0  0  0  0  0  3  0  0  0  0  0  0
   -0.1670   -5.3020  -24.7770 C   0  0  0  0  0  3  0  0  0  0  0  0
   -0.0320   -6.6220  -25.2400 C   0  0  0  0  0  0  0  0  0  0  0  0
   -0.2970   -7.6850  -24.3520 C   0  0  0  0  0  3  0  0  0  0  0  0
   -1.6570   -9.6980  -22.3860 C   0  0  0  0  0  0  0  0  0  0  0  0
   -2.4160  -10.2040  -21.5550 O   0  0  0  0  0  0  0  0  0  0  0  0
   -1.2040   -8.4280  -22.1780 N   0  0  0  0  0  0  0  0  0  0  0  0
   -1.3110   -8.1490  -21.2090 H   0  0  0  0  0  0  0  0  0  0  0  0
    1.0770  -11.8120  -26.9230 C   0  0  0  0  0  1  0  0  0  0  0  0
    0.1670  -11.9980  -25.7070 C   0  0  0  0  0  0  0  0  0  0  0  0
   -1.1610  -11.2340  -25.9060 C   0  0  0  0  0  3  0  0  0  0  0  0
   -1.7710  -10.6420  -24.6630 C   0  0  0  0  0  3  0  0  0  0  0  0
   -1.1050  -10.5480  -23.4950 C   0  0  0  0  0  0  0  0  0  0  0  0
    0.2720  -10.9980  -23.4190 C   0  0  0  0  0  3  0  0  0  0  0  0
    0.8700  -11.6540  -24.4210 C   0  0  0  0  0  0  0  0  0  0  0  0
    2.1560  -12.0360  -24.2580 F   0  0  0  0  0  0  0  0  0  0  0  0
    1.7270   -6.3820  -26.9060 N   0  0  0  0  0  0  0  0  0  0  0  0
    2.0750   -5.6090  -26.3660 H   0  0  0  0  0  0  0  0  0  0  0  0
    2.5030   -6.9430  -27.9060 C   0  0  0  0  0  0  0  0  0  0  0  0
    2.4290   -6.3700  -29.1170 N   0  0  0  0  0  0  0  0  0  0  0  0
    3.0610   -6.9880  -30.1080 C   0  0  0  0  0  3  0  0  0  0  0  0
    3.6710   -8.1720  -30.0320 N   0  0  0  0  0  0  0  0  0  0  0  0
    3.7530   -8.7490  -28.8180 C   0  0  0  0  0  0  0  0  0  0  0  0
    4.3590   -9.9980  -28.6380 C   0  0  0  0  0  0  0  0  0  0  0  0
    4.5450  -10.5820  -27.3760 C   0  0  0  0  0  3  0  0  0  0  0  0
    4.0620   -9.9380  -26.2490 C   0  0  0  0  0  3  0  0  0  0  0  0
    3.3810   -8.7340  -26.4000 C   0  0  0  0  0  3  0  0  0  0  0  0
    3.2210   -8.1290  -27.6760 C   0  0  0  0  0  0  0  0  0  0  0  0
    4.7650  -10.8140  -29.7980 C   0  0  0  0  0  0  0  0  0  0  0  0
    4.9740  -10.1230  -30.9590 N   0  0  0  0  0  0  0  0  0  0  0  0
    4.7950  -12.0350  -29.7450 O   0  0  0  0  0  0  0  0  0  0  0  0
    5.2150  -10.6450  -31.7900 H   0  0  0  0  0  0  0  0  0  0  0  0
    4.9090   -9.1170  -31.0110 H   0  0  0  0  0  0  0  0  0  0  0  0
  1  2  1  6  0  0  0
  1  7  1  0  0  0  0
  3  4  1  0  0  0  0
  3 11  1  0  0  0  0
  5  4  2  0  0  0  0
  6  5  1  0  0  0  0
  7  6  2  0  0  0  0
  7  8  1  0  0  0  0
  8  3  2  0  0  0  0
  9 11  1  0  0  0  0
  9 10  2  0  0  0  0
 11 12  1  0  0  0  0
 13 14  1  0  0  0  0
 14 19  1  0  0  0  0
 15 14  2  0  0  0  0
 15 16  1  0  0  0  0
 16 17  2  0  0  0  0
 17 18  1  0  0  0  0
 17  9  1  0  0  0  0
 19 20  1  0  0  0  0
 19 18  2  0  0  0  0
 21  1  1  0  0  0  0
 21 22  1  0  0  0  0
 23 32  1  0  0  0  0
 23 21  1  0  0  0  0
 24 23  2  0  0  0  0
 25 26  2  0  0  0  0
 25 24  1  0  0  0  0
 26 27  1  0  0  0  0
 27 28  2  0  0  0  0
 27 32  1  0  0  0  0
 28 29  1  0  0  0  0
 29 30  2  0  0  0  0
 31 30  1  0  0  0  0
 32 31  2  0  0  0  0
 33 35  2  0  0  0  0
 33 28  1  0  0  0  0
 34 33  1  0  0  0  0
 36 34  1  0  0  0  0
 37 34  1  0  0  0  0
M  END
>  <minimizedAffinity>
-8.31669044

$$$$

 OpenBabel10152418243D

 37 40  0  0  1  0  0  0  0  0999 V2000
    0.6970   -5.8890  -28.0100 C   0  0  2  0  0  3  0  0  0  0  0  0
    0.0640   -5.2870  -29.2710 C   0  0  0  0  0  1  0  0  0  0  0  0
   -0.3720   -5.3520  -24.3630 C   0  0  0  0  0  0  0  0  0  0  0  0
   -1.0260   -4.1200  -24.4570 C   0  0  0  0  0  3  0  0  0  0  0  0
   -1.0490   -3.4170  -25.6590 C   0  0  0  0  0  3  0  0  0  0  0  0
   -0.4730   -3.9750  -26.7970 C   0  0  0  0  0  3  0  0  0  0  0  0
    0.1380   -5.2400  -26.7450 C   0  0  0  0  0  0  0  0  0  0  0  0
    0.2220   -5.9050  -25.5030 C   0  0  0  0  0  3  0  0  0  0  0  0
   -1.0960   -7.1770  -22.7680 C   0  0  0  0  0  0  0  0  0  0  0  0
   -1.4510   -7.3150  -21.5950 O   0  0  0  0  0  0  0  0  0  0  0  0
   -0.4660   -6.0230  -23.1340 N   0  0  0  0  0  0  0  0  0  0  0  0
   -0.0990   -5.5280  -22.3300 H   0  0  0  0  0  0  0  0  0  0  0  0
   -0.1420  -11.4720  -26.3960 C   0  0  0  0  0  1  0  0  0  0  0  0
   -1.0910  -10.6480  -25.5230 C   0  0  0  0  0  0  0  0  0  0  0  0
   -1.2060   -9.2050  -26.0640 C   0  0  0  0  0  3  0  0  0  0  0  0
   -1.3770   -8.1270  -25.0280 C   0  0  0  0  0  3  0  0  0  0  0  0
   -1.1910   -8.3420  -23.7100 C   0  0  0  0  0  0  0  0  0  0  0  0
   -0.7740   -9.6540  -23.2510 C   0  0  0  0  0  3  0  0  0  0  0  0
   -0.7160  -10.7150  -24.0670 C   0  0  0  0  0  0  0  0  0  0  0  0
   -0.3160  -11.8980  -23.5490 F   0  0  0  0  0  0  0  0  0  0  0  0
    2.1370   -5.6950  -28.0590 N   0  0  0  0  0  0  0  0  0  0  0  0
    2.5350   -4.7760  -27.9670 H   0  0  0  0  0  0  0  0  0  0  0  0
    2.9510   -6.7930  -28.2730 C   0  0  0  0  0  0  0  0  0  0  0  0
    3.6000   -6.8400  -29.4470 N   0  0  0  0  0  0  0  0  0  0  0  0
    4.2700   -7.9560  -29.7130 C   0  0  0  0  0  3  0  0  0  0  0  0
    4.2710   -9.0660  -28.9720 N   0  0  0  0  0  0  0  0  0  0  0  0
    3.6270   -9.0210  -27.7900 C   0  0  0  0  0  0  0  0  0  0  0  0
    3.5580  -10.1380  -26.9490 C   0  0  0  0  0  0  0  0  0  0  0  0
    2.9780  -10.0990  -25.6730 C   0  0  0  0  0  3  0  0  0  0  0  0
    2.3880   -8.9280  -25.2280 C   0  0  0  0  0  3  0  0  0  0  0  0
    2.3660   -7.8210  -26.0720 C   0  0  0  0  0  3  0  0  0  0  0  0
    2.9810   -7.8550  -27.3530 C   0  0  0  0  0  0  0  0  0  0  0  0
    4.0300  -11.4580  -27.4090 C   0  0  0  0  0  0  0  0  0  0  0  0
    3.2850  -12.0380  -28.3980 N   0  0  0  0  0  0  0  0  0  0  0  0
    4.9530  -12.0390  -26.8550 O   0  0  0  0  0  0  0  0  0  0  0  0
    3.5470  -12.9610  -28.7160 H   0  0  0  0  0  0  0  0  0  0  0  0
    2.4970  -11.5750  -28.8260 H   0  0  0  0  0  0  0  0  0  0  0  0
  1  2  1  6  0  0  0
  1  7  1  0  0  0  0
  3 11  1  0  0  0  0
  4  3  1  0  0  0  0
  5  4  2  0  0  0  0
  6  7  2  0  0  0  0
  6  5  1  0  0  0  0
  7  8  1  0  0  0  0
  8  3  2  0  0  0  0
  9 10  2  0  0  0  0
 11  9  1  0  0  0  0
 11 12  1  0  0  0  0
 13 14  1  0  0  0  0
 14 19  1  0  0  0  0
 15 14  2  0  0  0  0
 15 16  1  0  0  0  0
 16 17  2  0  0  0  0
 17 18  1  0  0  0  0
 17  9  1  0  0  0  0
 19 20  1  0  0  0  0
 19 18  2  0  0  0  0
 21  1  1  0  0  0  0
 21 22  1  0  0  0  0
 23 21  1  0  0  0  0
 23 32  1  0  0  0  0
 24 23  2  0  0  0  0
 25 24  1  0  0  0  0
 25 26  2  0  0  0  0
 26 27  1  0  0  0  0
 27 32  2  0  0  0  0
 27 28  1  0  0  0  0
 28 29  2  0  0  0  0
 29 30  1  0  0  0  0
 31 30  2  0  0  0  0
 32 31  1  0  0  0  0
 33 28  1  0  0  0  0
 33 35  2  0  0  0  0
 34 33  1  0  0  0  0
 36 34  1  0  0  0  0
 37 34  1  0  0  0  0
M  END
>  <minimizedAffinity>
-8.21110344

$$$$

 OpenBabel10152418243D

 37 40  0  0  1  0  0  0  0  0999 V2000
    2.2510  -11.6010  -25.2080 C   0  0  2  0  0  3  0  0  0  0  0  0
    2.2310  -10.5140  -24.1260 C   0  0  0  0  0  1  0  0  0  0  0  0
    3.6310   -9.3090  -27.9590 C   0  0  0  0  0  0  0  0  0  0  0  0
    4.1590  -10.2500  -28.8490 C   0  0  0  0  0  3  0  0  0  0  0  0
    4.1560  -11.6070  -28.5330 C   0  0  0  0  0  3  0  0  0  0  0  0
    3.5640  -12.0390  -27.3500 C   0  0  0  0  0  3  0  0  0  0  0  0
    2.9730  -11.1200  -26.4650 C   0  0  0  0  0  0  0  0  0  0  0  0
    3.0520   -9.7430  -26.7620 C   0  0  0  0  0  3  0  0  0  0  0  0
    2.6550   -7.0030  -28.3120 C   0  0  0  0  0  0  0  0  0  0  0  0
    2.6470   -6.1030  -29.1560 O   0  0  0  0  0  0  0  0  0  0  0  0
    3.6080   -7.9750  -28.3960 N   0  0  0  0  0  0  0  0  0  0  0  0
    4.3860   -7.6850  -28.9760 H   0  0  0  0  0  0  0  0  0  0  0  0
   -0.1550   -5.4850  -23.5870 C   0  0  0  0  0  1  0  0  0  0  0  0
    0.0540   -6.4340  -24.7690 C   0  0  0  0  0  0  0  0  0  0  0  0
    1.4150   -7.1560  -24.6470 C   0  0  0  0  0  3  0  0  0  0  0  0
    2.1220   -7.4460  -25.9440 C   0  0  0  0  0  3  0  0  0  0  0  0
    1.7470   -6.9040  -27.1200 C   0  0  0  0  0  0  0  0  0  0  0  0
    0.6370   -5.9700  -27.1550 C   0  0  0  0  0  3  0  0  0  0  0  0
   -0.1400   -5.7380  -26.0890 C   0  0  0  0  0  0  0  0  0  0  0  0
   -1.1520   -4.8510  -26.2170 F   0  0  0  0  0  0  0  0  0  0  0  0
    0.8840  -11.9660  -25.5450 N   0  0  0  0  0  0  0  0  0  0  0  0
    0.6790  -12.8550  -25.9680 H   0  0  0  0  0  0  0  0  0  0  0  0
   -0.1280  -11.0510  -25.3110 C   0  0  0  0  0  0  0  0  0  0  0  0
   -0.4220  -10.2100  -26.3140 N   0  0  0  0  0  0  0  0  0  0  0  0
   -1.2920   -9.2430  -26.0460 C   0  0  0  0  0  3  0  0  0  0  0  0
   -1.8170   -8.9700  -24.8500 N   0  0  0  0  0  0  0  0  0  0  0  0
   -1.5300   -9.8140  -23.8410 C   0  0  0  0  0  0  0  0  0  0  0  0
   -2.0200   -9.6040  -22.5460 C   0  0  0  0  0  0  0  0  0  0  0  0
   -1.8180  -10.5130  -21.4970 C   0  0  0  0  0  3  0  0  0  0  0  0
   -1.0530  -11.6460  -21.7140 C   0  0  0  0  0  3  0  0  0  0  0  0
   -0.4820  -11.8450  -22.9670 C   0  0  0  0  0  3  0  0  0  0  0  0
   -0.7130  -10.9380  -24.0380 C   0  0  0  0  0  0  0  0  0  0  0  0
   -2.7160   -8.3520  -22.1970 C   0  0  0  0  0  0  0  0  0  0  0  0
   -3.8410   -8.0800  -22.9260 N   0  0  0  0  0  0  0  0  0  0  0  0
   -2.2470   -7.5590  -21.3930 O   0  0  0  0  0  0  0  0  0  0  0  0
   -4.3280   -7.2130  -22.7480 H   0  0  0  0  0  0  0  0  0  0  0  0
   -4.2040   -8.7170  -23.6190 H   0  0  0  0  0  0  0  0  0  0  0  0
  1  2  1  1  0  0  0
  3  8  1  0  0  0  0
  4  5  1  0  0  0  0
  4  3  2  0  0  0  0
  5  6  2  0  0  0  0
  6  7  1  0  0  0  0
  7  1  1  0  0  0  0
  8  7  2  0  0  0  0
  9 17  1  0  0  0  0
 10  9  2  0  0  0  0
 11  9  1  0  0  0  0
 11  3  1  0  0  0  0
 12 11  1  0  0  0  0
 14 15  1  0  0  0  0
 14 13  1  0  0  0  0
 16 15  2  0  0  0  0
 17 16  1  0  0  0  0
 18 17  2  0  0  0  0
 18 19  1  0  0  0  0
 19 14  2  0  0  0  0
 20 19  1  0  0  0  0
 21 23  1  0  0  0  0
 21  1  1  0  0  0  0
 22 21  1  0  0  0  0
 23 32  1  0  0  0  0
 24 25  1  0  0  0  0
 24 23  2  0  0  0  0
 25 26  2  0  0  0  0
 26 27  1  0  0  0  0
 27 28  1  0  0  0  0
 28 33  1  0  0  0  0
 28 29  2  0  0  0  0
 30 29  1  0  0  0  0
 31 30  2  0  0  0  0
 32 27  2  0  0  0  0
 32 31  1  0  0  0  0
 33 35  2  0  0  0  0
 34 36  1  0  0  0  0
 34 33  1  0  0  0  0
 37 34  1  0  0  0  0
M  END
>  <minimizedAffinity>
-8.16364288

$$$$

 OpenBabel10152418243D

 37 40  0  0  1  0  0  0  0  0999 V2000
    1.3090   -5.2660  -28.5110 C   0  0  2  0  0  3  0  0  0  0  0  0
    1.0190   -3.7620  -28.6020 C   0  0  0  0  0  1  0  0  0  0  0  0
   -0.6830   -7.8720  -26.5190 C   0  0  0  0  0  0  0  0  0  0  0  0
   -1.1600   -7.0910  -25.4620 C   0  0  0  0  0  3  0  0  0  0  0  0
   -0.7750   -5.7580  -25.3330 C   0  0  0  0  0  3  0  0  0  0  0  0
    0.0390   -5.1780  -26.3010 C   0  0  0  0  0  3  0  0  0  0  0  0
    0.4840   -5.9240  -27.4070 C   0  0  0  0  0  0  0  0  0  0  0  0
    0.1500   -7.2930  -27.4830 C   0  0  0  0  0  3  0  0  0  0  0  0
   -1.3040  -10.1800  -25.6900 C   0  0  0  0  0  0  0  0  0  0  0  0
   -1.3090  -11.3500  -26.0810 O   0  0  0  0  0  0  0  0  0  0  0  0
   -1.1850   -9.1800  -26.6110 N   0  0  0  0  0  0  0  0  0  0  0  0
   -1.4100   -9.5040  -27.5440 H   0  0  0  0  0  0  0  0  0  0  0  0
   -1.9180   -7.8780  -20.5090 C   0  0  0  0  0  1  0  0  0  0  0  0
   -2.1640   -9.0160  -21.5010 C   0  0  0  0  0  0  0  0  0  0  0  0
   -0.8300   -9.7000  -21.8780 C   0  0  0  0  0  3  0  0  0  0  0  0
   -0.7290  -10.2080  -23.2910 C   0  0  0  0  0  3  0  0  0  0  0  0
   -1.6150   -9.8800  -24.2520 C   0  0  0  0  0  0  0  0  0  0  0  0
   -2.7020   -8.9700  -23.9420 C   0  0  0  0  0  3  0  0  0  0  0  0
   -2.9610   -8.5610  -22.6940 C   0  0  0  0  0  0  0  0  0  0  0  0
   -3.9960   -7.7130  -22.5020 F   0  0  0  0  0  0  0  0  0  0  0  0
    2.7240   -5.4640  -28.2420 N   0  0  0  0  0  0  0  0  0  0  0  0
    3.2790   -4.7280  -27.8400 H   0  0  0  0  0  0  0  0  0  0  0  0
    3.3060   -6.6720  -28.5860 C   0  0  0  0  0  0  0  0  0  0  0  0
    3.7560   -6.7860  -29.8450 N   0  0  0  0  0  0  0  0  0  0  0  0
    4.1860   -7.9850  -30.2180 C   0  0  0  0  0  3  0  0  0  0  0  0
    4.1160   -9.1040  -29.4940 N   0  0  0  0  0  0  0  0  0  0  0  0
    3.6710   -8.9940  -28.2280 C   0  0  0  0  0  0  0  0  0  0  0  0
    3.5460  -10.1120  -27.3940 C   0  0  0  0  0  0  0  0  0  0  0  0
    3.1770  -10.0200  -26.0440 C   0  0  0  0  0  3  0  0  0  0  0  0
    2.8610   -8.7850  -25.5060 C   0  0  0  0  0  3  0  0  0  0  0  0
    2.8950   -7.6620  -26.3280 C   0  0  0  0  0  3  0  0  0  0  0  0
    3.2980   -7.7530  -27.6880 C   0  0  0  0  0  0  0  0  0  0  0  0
    3.7200  -11.4750  -27.9300 C   0  0  0  0  0  0  0  0  0  0  0  0
    4.9740  -12.0050  -27.7940 N   0  0  0  0  0  0  0  0  0  0  0  0
    2.8340  -12.0380  -28.5550 O   0  0  0  0  0  0  0  0  0  0  0  0
    5.1510  -12.9210  -28.1820 H   0  0  0  0  0  0  0  0  0  0  0  0
    5.7180  -11.5210  -27.3130 H   0  0  0  0  0  0  0  0  0  0  0  0
  1  2  1  1  0  0  0
  1 21  1  0  0  0  0
  1  7  1  0  0  0  0
  3  4  1  0  0  0  0
  4  5  2  0  0  0  0
  6  5  1  0  0  0  0
  7  6  2  0  0  0  0
  8  7  1  0  0  0  0
  8  3  2  0  0  0  0
  9 17  1  0  0  0  0
 10  9  2  0  0  0  0
 11  3  1  0  0  0  0
 11  9  1  0  0  0  0
 12 11  1  0  0  0  0
 14 13  1  0  0  0  0
 15 14  1  0  0  0  0
 16 15  2  0  0  0  0
 17 18  2  0  0  0  0
 17 16  1  0  0  0  0
 18 19  1  0  0  0  0
 19 20  1  0  0  0  0
 19 14  2  0  0  0  0
 21 22  1  0  0  0  0
 23 21  1  0  0  0  0
 23 32  1  0  0  0  0
 24 23  2  0  0  0  0
 25 24  1  0  0  0  0
 25 26  2  0  0  0  0
 26 27  1  0  0  0  0
 27 32  2  0  0  0  0
 27 28  1  0  0  0  0
 28 29  2  0  0  0  0
 29 30  1  0  0  0  0
 31 30  2  0  0  0  0
 32 31  1  0  0  0  0
 33 34  1  0  0  0  0
 33 28  1  0  0  0  0
 34 37  1  0  0  0  0
 35 33  2  0  0  0  0
 36 34  1  0  0  0  0
M  END
>  <minimizedAffinity>
-8.14861107

$$$$

 OpenBabel10152418243D

 37 40  0  0  1  0  0  0  0  0999 V2000
    1.0660  -11.0400  -25.8430 C   0  0  2  0  0  3  0  0  0  0  0  0
    0.2320  -12.0390  -26.6540 C   0  0  0  0  0  1  0  0  0  0  0  0
    4.0130   -9.6470  -27.8680 C   0  0  0  0  0  0  0  0  0  0  0  0
    4.9740  -10.6400  -27.6560 C   0  0  0  0  0  3  0  0  0  0  0  0
    4.7160  -11.7070  -26.7980 C   0  0  0  0  0  3  0  0  0  0  0  0
    3.4670  -11.8220  -26.1950 C   0  0  0  0  0  3  0  0  0  0  0  0
    2.4620  -10.8690  -26.4380 C   0  0  0  0  0  0  0  0  0  0  0  0
    2.7640   -9.7540  -27.2480 C   0  0  0  0  0  3  0  0  0  0  0  0
    3.6030   -7.6290  -29.3370 C   0  0  0  0  0  0  0  0  0  0  0  0
    3.9020   -7.2030  -30.4560 O   0  0  0  0  0  0  0  0  0  0  0  0
    4.3320   -8.6530  -28.8070 N   0  0  0  0  0  0  0  0  0  0  0  0
    5.2260   -8.7550  -29.2730 H   0  0  0  0  0  0  0  0  0  0  0  0
   -0.9620   -4.8480  -27.3510 C   0  0  0  0  0  1  0  0  0  0  0  0
    0.3990   -5.5100  -27.1270 C   0  0  0  0  0  0  0  0  0  0  0  0
    1.5080   -4.7260  -27.8640 C   0  0  0  0  0  3  0  0  0  0  0  0
    2.6350   -5.5510  -28.4240 C   0  0  0  0  0  3  0  0  0  0  0  0
    2.5820   -6.8950  -28.5160 C   0  0  0  0  0  0  0  0  0  0  0  0
    1.3820   -7.5940  -28.0960 C   0  0  0  0  0  3  0  0  0  0  0  0
    0.3740   -6.9760  -27.4680 C   0  0  0  0  0  0  0  0  0  0  0  0
   -0.7040   -7.7100  -27.1130 F   0  0  0  0  0  0  0  0  0  0  0  0
    1.1780  -11.5130  -24.4720 N   0  0  0  0  0  0  0  0  0  0  0  0
    1.8670  -12.2010  -24.2220 H   0  0  0  0  0  0  0  0  0  0  0  0
    0.2930  -11.0300  -23.5250 C   0  0  0  0  0  0  0  0  0  0  0  0
   -0.3100  -11.9410  -22.7450 N   0  0  0  0  0  0  0  0  0  0  0  0
   -1.2610  -11.4940  -21.9330 C   0  0  0  0  0  3  0  0  0  0  0  0
   -1.7390  -10.2490  -21.8950 N   0  0  0  0  0  0  0  0  0  0  0  0
   -1.1340   -9.3300  -22.6710 C   0  0  0  0  0  0  0  0  0  0  0  0
   -1.5730   -8.0010  -22.7130 C   0  0  0  0  0  0  0  0  0  0  0  0
   -0.9080   -7.0000  -23.4360 C   0  0  0  0  0  3  0  0  0  0  0  0
    0.2010   -7.3300  -24.1960 C   0  0  0  0  0  3  0  0  0  0  0  0
    0.6170   -8.6580  -24.2420 C   0  0  0  0  0  3  0  0  0  0  0  0
   -0.0410   -9.6650  -23.4850 C   0  0  0  0  0  0  0  0  0  0  0  0
   -2.8290   -7.6000  -22.0520 C   0  0  0  0  0  0  0  0  0  0  0  0
   -2.7650   -7.4740  -20.6920 N   0  0  0  0  0  0  0  0  0  0  0  0
   -3.8790   -7.5060  -22.6720 O   0  0  0  0  0  0  0  0  0  0  0  0
   -3.6110   -7.2400  -20.1930 H   0  0  0  0  0  0  0  0  0  0  0  0
   -1.9050   -7.5930  -20.1770 H   0  0  0  0  0  0  0  0  0  0  0  0
  1  2  1  6  0  0  0
  1 21  1  0  0  0  0
  3  4  2  0  0  0  0
  3  8  1  0  0  0  0
  4  5  1  0  0  0  0
  5  6  2  0  0  0  0
  7  6  1  0  0  0  0
  7  1  1  0  0  0  0
  8  7  2  0  0  0  0
  9 11  1  0  0  0  0
  9 17  1  0  0  0  0
 10  9  2  0  0  0  0
 11  3  1  0  0  0  0
 12 11  1  0  0  0  0
 13 14  1  0  0  0  0
 15 14  2  0  0  0  0
 16 15  1  0  0  0  0
 17 16  2  0  0  0  0
 17 18  1  0  0  0  0
 18 19  2  0  0  0  0
 19 14  1  0  0  0  0
 19 20  1  0  0  0  0
 21 22  1  0  0  0  0
 21 23  1  0  0  0  0
 23 32  2  0  0  0  0
 23 24  1  0  0  0  0
 24 25  2  0  0  0  0
 25 26  1  0  0  0  0
 27 26  2  0  0  0  0
 28 27  1  0  0  0  0
 28 33  1  0  0  0  0
 29 28  2  0  0  0  0
 30 29  1  0  0  0  0
 31 30  2  0  0  0  0
 31 32  1  0  0  0  0
 32 27  1  0  0  0  0
 33 34  1  0  0  0  0
 34 36  1  0  0  0  0
 34 37  1  0  0  0  0
 35 33  2  0  0  0  0
M  END
>  <minimizedAffinity>
-7.62236834

$$$$

 OpenBabel10152418243D

 37 40  0  0  1  0  0  0  0  0999 V2000
    3.7760   -7.7560  -28.5190 C   0  0  2  0  0  3  0  0  0  0  0  0
    4.7470   -7.1380  -29.5320 C   0  0  0  0  0  1  0  0  0  0  0  0
    4.3410  -11.1900  -26.9000 C   0  0  0  0  0  0  0  0  0  0  0  0
    4.6520  -11.9650  -28.0220 C   0  0  0  0  0  3  0  0  0  0  0  0
    4.5940  -11.4170  -29.3020 C   0  0  0  0  0  3  0  0  0  0  0  0
    4.2880  -10.0690  -29.4630 C   0  0  0  0  0  3  0  0  0  0  0  0
    4.0300   -9.2530  -28.3480 C   0  0  0  0  0  0  0  0  0  0  0  0
    4.0160   -9.8390  -27.0650 C   0  0  0  0  0  3  0  0  0  0  0  0
    3.6800  -11.8910  -24.5620 C   0  0  0  0  0  0  0  0  0  0  0  0
    4.1840  -12.0390  -23.4450 O   0  0  0  0  0  0  0  0  0  0  0  0
    4.5010  -11.8040  -25.6480 N   0  0  0  0  0  0  0  0  0  0  0  0
    5.4260  -12.1650  -25.4470 H   0  0  0  0  0  0  0  0  0  0  0  0
   -1.8970  -10.9970  -25.3440 C   0  0  0  0  0  1  0  0  0  0  0  0
   -0.7140  -11.9450  -25.1320 C   0  0  0  0  0  0  0  0  0  0  0  0
   -0.0980  -11.7320  -23.7310 C   0  0  0  0  0  3  0  0  0  0  0  0
    1.3930  -11.9120  -23.6360 C   0  0  0  0  0  3  0  0  0  0  0  0
    2.1910  -12.0010  -24.7190 C   0  0  0  0  0  0  0  0  0  0  0  0
    1.6120  -11.8830  -26.0440 C   0  0  0  0  0  3  0  0  0  0  0  0
    0.2890  -11.8490  -26.2500 C   0  0  0  0  0  0  0  0  0  0  0  0
   -0.1570  -11.7390  -27.5210 F   0  0  0  0  0  0  0  0  0  0  0  0
    2.4110   -7.5460  -28.9750 N   0  0  0  0  0  0  0  0  0  0  0  0
    2.0540   -8.0420  -29.7740 H   0  0  0  0  0  0  0  0  0  0  0  0
    1.6220   -6.6210  -28.3150 C   0  0  0  0  0  0  0  0  0  0  0  0
    1.5560   -5.3930  -28.8530 N   0  0  0  0  0  0  0  0  0  0  0  0
    0.9150   -4.4670  -28.1490 C   0  0  0  0  0  3  0  0  0  0  0  0
    0.4240   -4.6180  -26.9180 N   0  0  0  0  0  0  0  0  0  0  0  0
    0.4820   -5.8490  -26.3750 C   0  0  0  0  0  0  0  0  0  0  0  0
    0.0090   -6.1050  -25.0830 C   0  0  0  0  0  0  0  0  0  0  0  0
   -0.0330   -7.3910  -24.5260 C   0  0  0  0  0  3  0  0  0  0  0  0
    0.4670   -8.4630  -25.2450 C   0  0  0  0  0  3  0  0  0  0  0  0
    1.0210   -8.2320  -26.5010 C   0  0  0  0  0  3  0  0  0  0  0  0
    1.0340   -6.9320  -27.0770 C   0  0  0  0  0  0  0  0  0  0  0  0
   -0.4020   -4.9990  -24.1980 C   0  0  0  0  0  0  0  0  0  0  0  0
   -0.2080   -5.2110  -22.8610 N   0  0  0  0  0  0  0  0  0  0  0  0
   -0.9830   -4.0130  -24.6280 O   0  0  0  0  0  0  0  0  0  0  0  0
   -0.5120   -4.4970  -22.2130 H   0  0  0  0  0  0  0  0  0  0  0  0
    0.2350   -6.0450  -22.5030 H   0  0  0  0  0  0  0  0  0  0  0  0
  1  2  1  6  0  0  0
  1  7  1  0  0  0  0
  3 11  1  0  0  0  0
  4  3  2  0  0  0  0
  5  4  1  0  0  0  0
  6  5  2  0  0  0  0
  6  7  1  0  0  0  0
  7  8  2  0  0  0  0
  8  3  1  0  0  0  0
  9 10  2  0  0  0  0
 11 12  1  0  0  0  0
 11  9  1  0  0  0  0
 13 14  1  0  0  0  0
 14 15  1  0  0  0  0
 15 16  2  0  0  0  0
 17  9  1  0  0  0  0
 17 16  1  0  0  0  0
 18 17  2  0  0  0  0
 19 18  1  0  0  0  0
 19 14  2  0  0  0  0
 20 19  1  0  0  0  0
 21  1  1  0  0  0  0
 21 23  1  0  0  0  0
 22 21  1  0  0  0  0
 23 32  1  0  0  0  0
 24 23  2  0  0  0  0
 24 25  1  0  0  0  0
 25 26  2  0  0  0  0
 26 27  1  0  0  0  0
 27 28  1  0  0  0  0
 28 29  2  0  0  0  0
 28 33  1  0  0  0  0
 30 29  1  0  0  0  0
 31 30  2  0  0  0  0
 32 31  1  0  0  0  0
 32 27  2  0  0  0  0
 33 34  1  0  0  0  0
 34 37  1  0  0  0  0
 34 36  1  0  0  0  0
 35 33  2  0  0  0  0
M  END
>  <minimizedAffinity>
-7.31220675

$$$$
