
 OpenBabel10152418243D

 37 40  0  0  1  0  0  0  0  0999 V2000
    0.6970   -5.8890  -28.0100 C   0  0  2  0  0  3  0  0  0  0  0  0
    0.0640   -5.2870  -29.2710 C   0  0  0  0  0  1  0  0  0  0  0  0
   -0.3720   -5.3520  -24.3630 C   0  0  0  0  0  0  0  0  0  0  0  0
   -1.0260   -4.1200  -24.4570 C   0  0  0  0  0  3  0  0  0  0  0  0
   -1.0490   -3.4170  -25.6590 C   0  0  0  0  0  3  0  0  0  0  0  0
   -0.4730   -3.9750  -26.7970 C   0  0  0  0  0  3  0  0  0  0  0  0
    0.1380   -5.2400  -26.7450 C   0  0  0  0  0  0  0  0  0  0  0  0
    0.2220   -5.9050  -25.5030 C   0  0  0  0  0  3  0  0  0  0  0  0
   -1.0960   -7.1770  -22.7680 C   0  0  0  0  0  0  0  0  0  0  0  0
   -1.4510   -7.3150  -21.5950 O   0  0  0  0  0  0  0  0  0  0  0  0
   -0.4660   -6.0230  -23.1340 N   0  0  0  0  0  0  0  0  0  0  0  0
   -0.0990   -5.5280  -22.3300 H   0  0  0  0  0  0  0  0  0  0  0  0
   -0.1420  -11.4720  -26.3960 C   0  0  0  0  0  1  0  0  0  0  0  0
   -1.0910  -10.6480  -25.5230 C   0  0  0  0  0  0  0  0  0  0  0  0
   -1.2060   -9.2050  -26.0640 C   0  0  0  0  0  3  0  0  0  0  0  0
   -1.3770   -8.1270  -25.0280 C   0  0  0  0  0  3  0  0  0  0  0  0
   -1.1910   -8.3420  -23.7100 C   0  0  0  0  0  0  0  0  0  0  0  0
   -0.7740   -9.6540  -23.2510 C   0  0  0  0  0  3  0  0  0  0  0  0
   -0.7160  -10.7150  -24.0670 C   0  0  0  0  0  0  0  0  0  0  0  0
   -0.3160  -11.8980  -23.5490 F   0  0  0  0  0  0  0  0  0  0  0  0
    2.1370   -5.6950  -28.0590 N   0  0  0  0  0  0  0  0  0  0  0  0
    2.5350   -4.7760  -27.9670 H   0  0  0  0  0  0  0  0  0  0  0  0
    2.9510   -6.7930  -28.2730 C   0  0  0  0  0  0  0  0  0  0  0  0
    3.6000   -6.8400  -29.4470 N   0  0  0  0  0  0  0  0  0  0  0  0
    4.2700   -7.9560  -29.7130 C   0  0  0  0  0  3  0  0  0  0  0  0
    4.2710   -9.0660  -28.9720 N   0  0  0  0  0  0  0  0  0  0  0  0
    3.6270   -9.0210  -27.7900 C   0  0  0  0  0  0  0  0  0  0  0  0
    3.5580  -10.1380  -26.9490 C   0  0  0  0  0  0  0  0  0  0  0  0
    2.9780  -10.0990  -25.6730 C   0  0  0  0  0  3  0  0  0  0  0  0
    2.3880   -8.9280  -25.2280 C   0  0  0  0  0  3  0  0  0  0  0  0
    2.3660   -7.8210  -26.0720 C   0  0  0  0  0  3  0  0  0  0  0  0
    2.9810   -7.8550  -27.3530 C   0  0  0  0  0  0  0  0  0  0  0  0
    4.0300  -11.4580  -27.4090 C   0  0  0  0  0  0  0  0  0  0  0  0
    3.2850  -12.0380  -28.3980 N   0  0  0  0  0  0  0  0  0  0  0  0
    4.9530  -12.0390  -26.8550 O   0  0  0  0  0  0  0  0  0  0  0  0
    3.5470  -12.9610  -28.7160 H   0  0  0  0  0  0  0  0  0  0  0  0
    2.4970  -11.5750  -28.8260 H   0  0  0  0  0  0  0  0  0  0  0  0
  1  2  1  6  0  0  0
  1  7  1  0  0  0  0
  3 11  1  0  0  0  0
  4  3  1  0  0  0  0
  5  4  2  0  0  0  0
  6  7  2  0  0  0  0
  6  5  1  0  0  0  0
  7  8  1  0  0  0  0
  8  3  2  0  0  0  0
  9 10  2  0  0  0  0
 11  9  1  0  0  0  0
 11 12  1  0  0  0  0
 13 14  1  0  0  0  0
 14 19  1  0  0  0  0
 15 14  2  0  0  0  0
 15 16  1  0  0  0  0
 16 17  2  0  0  0  0
 17 18  1  0  0  0  0
 17  9  1  0  0  0  0
 19 20  1  0  0  0  0
 19 18  2  0  0  0  0
 21  1  1  0  0  0  0
 21 22  1  0  0  0  0
 23 21  1  0  0  0  0
 23 32  1  0  0  0  0
 24 23  2  0  0  0  0
 25 24  1  0  0  0  0
 25 26  2  0  0  0  0
 26 27  1  0  0  0  0
 27 32  2  0  0  0  0
 27 28  1  0  0  0  0
 28 29  2  0  0  0  0
 29 30  1  0  0  0  0
 31 30  2  0  0  0  0
 32 31  1  0  0  0  0
 33 28  1  0  0  0  0
 33 35  2  0  0  0  0
 34 33  1  0  0  0  0
 36 34  1  0  0  0  0
 37 34  1  0  0  0  0
M  END
>  <minimizedAffinity>
-8.21110344

$$$$
