
 OpenBabel10152419153D

 40 43  0  0  0  0  0  0  0  0999 V2000
    5.2950  -11.8290    9.4800 C   0  0  0  0  0  0  0  0  0  0  0  0
    4.6120  -11.3300    8.3710 C   0  0  0  0  0  3  0  0  0  0  0  0
    5.3270  -10.8870    7.2660 C   0  0  0  0  0  3  0  0  0  0  0  0
    6.7200  -10.9750    7.2580 C   0  0  0  0  0  3  0  0  0  0  0  0
    7.4250  -11.5900    8.3060 C   0  0  0  0  0  0  0  0  0  0  0  0
    6.6820  -12.0380    9.4070 C   0  0  0  0  0  3  0  0  0  0  0  0
    4.8330  -12.7980   11.7640 C   0  0  0  0  0  0  0  0  0  0  0  0
    3.9790  -12.9920   12.6270 O   0  0  0  0  0  0  0  0  0  0  0  0
    4.5490  -12.0210   10.6570 N   0  0  0  0  0  0  0  0  0  0  0  0
    3.7170  -11.4560   10.7810 H   0  0  0  0  0  0  0  0  0  0  0  0
    8.8370  -14.2570   12.0300 C   0  0  0  0  0  0  0  0  0  0  0  0
    7.8240  -15.0470   11.4680 C   0  0  0  0  0  3  0  0  0  0  0  0
    6.5040  -14.5960   11.4370 C   0  0  0  0  0  3  0  0  0  0  0  0
    6.1980  -13.3450   11.9690 C   0  0  0  0  0  0  0  0  0  0  0  0
    7.1930  -12.5960   12.6150 C   0  0  0  0  0  3  0  0  0  0  0  0
    8.5390  -13.0090   12.5930 C   0  0  0  0  0  0  0  0  0  0  0  0
    9.6010  -12.0680   13.0960 C   0  0  0  0  0  0  0  0  0  0  0  0
    9.1030  -11.0350   13.8320 F   0  0  0  0  0  0  0  0  0  0  0  0
   10.5170  -12.6740   13.9050 F   0  0  0  0  0  0  0  0  0  0  0  0
   10.3260  -11.5050   12.0890 F   0  0  0  0  0  0  0  0  0  0  0  0
   10.7770  -15.0660   13.0680 C   0  0  0  0  0  1  0  0  0  0  0  0
   10.1070  -14.7330   11.8540 O   0  0  0  0  0  0  0  0  0  0  0  0
    8.9470  -11.6700    8.3130 C   0  0  0  0  0  2  0  0  0  0  0  0
    9.5780  -10.3620    8.3060 N   0  0  0  0  0  0  0  0  0  0  0  0
    9.9040   -9.9840    7.4320 H   0  0  0  0  0  0  0  0  0  0  0  0
    9.4230   -9.5430    9.4160 C   0  0  0  0  0  0  0  0  0  0  0  0
   10.5030   -9.3790   10.1990 N   0  0  0  0  0  0  0  0  0  0  0  0
   10.2890   -8.9410   11.4380 C   0  0  0  0  0  3  0  0  0  0  0  0
    9.0910   -8.7520   11.9930 N   0  0  0  0  0  0  0  0  0  0  0  0
    8.0110   -8.8670   11.1940 C   0  0  0  0  0  0  0  0  0  0  0  0
    6.7120   -8.7480   11.6950 C   0  0  0  0  0  0  0  0  0  0  0  0
    5.5680   -8.7560   10.8830 C   0  0  0  0  0  3  0  0  0  0  0  0
    5.7080   -8.9510    9.5200 C   0  0  0  0  0  3  0  0  0  0  0  0
    6.9760   -9.1990    9.0030 C   0  0  0  0  0  3  0  0  0  0  0  0
    8.1300   -9.1750    9.8330 C   0  0  0  0  0  0  0  0  0  0  0  0
    6.4810   -8.7930   13.1480 C   0  0  0  0  0  0  0  0  0  0  0  0
    7.6210   -8.7640   13.9080 N   0  0  0  0  0  0  0  0  0  0  0  0
    5.3690   -8.9600   13.6270 O   0  0  0  0  0  0  0  0  0  0  0  0
    7.5320   -8.8280   14.9120 H   0  0  0  0  0  0  0  0  0  0  0  0
    8.5420   -8.6640   13.5030 H   0  0  0  0  0  0  0  0  0  0  0  0
  1  9  1  0  0  0  0
  2  1  2  0  0  0  0
  3  2  1  0  0  0  0
  4  3  2  0  0  0  0
  4  5  1  0  0  0  0
  5 23  1  0  0  0  0
  5  6  2  0  0  0  0
  6  1  1  0  0  0  0
  7 14  1  0  0  0  0
  7  8  2  0  0  0  0
  9 10  1  0  0  0  0
  9  7  1  0  0  0  0
 11 16  1  0  0  0  0
 12 11  2  0  0  0  0
 13 12  1  0  0  0  0
 13 14  2  0  0  0  0
 14 15  1  0  0  0  0
 16 15  2  0  0  0  0
 16 17  1  0  0  0  0
 17 18  1  0  0  0  0
 17 19  1  0  0  0  0
 20 17  1  0  0  0  0
 22 11  1  0  0  0  0
 22 21  1  0  0  0  0
 24 23  1  0  0  0  0
 24 26  1  0  0  0  0
 25 24  1  0  0  0  0
 26 35  2  0  0  0  0
 26 27  1  0  0  0  0
 27 28  2  0  0  0  0
 28 29  1  0  0  0  0
 30 31  1  0  0  0  0
 30 29  2  0  0  0  0
 31 36  1  0  0  0  0
 32 31  2  0  0  0  0
 33 32  1  0  0  0  0
 34 33  2  0  0  0  0
 34 35  1  0  0  0  0
 35 30  1  0  0  0  0
 36 38  2  0  0  0  0
 36 37  1  0  0  0  0
 37 39  1  0  0  0  0
 40 37  1  0  0  0  0
M  END
>  <minimizedAffinity>
22.3764172

$$$$
