
 OpenBabel10152418123D

 39 42  0  0  1  0  0  0  0  0999 V2000
    0.9620   -8.6610  -25.7920 C   0  0  0  0  0  0  0  0  0  0  0  0
    1.0950   -8.1790  -24.4880 C   0  0  0  0  0  3  0  0  0  0  0  0
    0.6160   -6.9330  -24.1230 C   0  0  0  0  0  3  0  0  0  0  0  0
    0.2360   -6.0430  -25.1070 C   0  0  0  0  0  3  0  0  0  0  0  0
    0.5170   -6.3330  -26.4320 C   0  0  0  0  0  0  0  0  0  0  0  0
    0.7390   -7.6760  -26.7820 C   0  0  0  0  0  3  0  0  0  0  0  0
    0.5920   -5.3360  -27.4240 N   0  0  0  0  0  0  0  0  0  0  0  0
    1.5490   -5.0910  -28.4030 C   0  0  0  0  0  0  0  0  0  0  0  0
    1.4760   -4.0320  -29.0190 O   0  0  0  0  0  0  0  0  0  0  0  0
   -0.1890   -4.6960  -27.4990 H   0  0  0  0  0  0  0  0  0  0  0  0
    2.6030   -6.0430  -28.6770 C   0  0  2  0  0  3  0  0  0  0  0  0
    2.7310   -7.1060  -29.5550 C   0  0  0  0  0  2  0  0  0  0  0  0
    3.8100   -7.8790  -29.0410 C   0  0  1  0  0  3  0  0  0  0  0  0
    4.4860   -7.1770  -28.1180 N   0  0  0  0  0  2  0  0  0  0  0  0
    3.7860   -6.0350  -27.9920 N   0  0  0  0  0  0  0  0  0  0  0  0
    4.1030   -5.3410  -27.3220 H   0  0  0  0  0  0  0  0  0  0  0  0
    4.1450   -9.3460  -29.2930 C   0  0  0  0  0  0  0  0  0  0  0  0
    4.9700   -9.5140  -30.5800 C   0  0  0  0  0  1  0  0  0  0  0  0
    4.9720   -9.8920  -28.1040 C   0  0  0  0  0  1  0  0  0  0  0  0
    2.8790  -10.2190  -29.4200 C   0  0  0  0  0  1  0  0  0  0  0  0
    2.0900  -10.9580  -25.6310 C   0  0  0  0  0  1  0  0  0  0  0  0
    0.8500  -10.1680  -26.0920 C   0  0  1  0  0  3  0  0  0  0  0  0
   -0.3150  -10.8850  -25.5630 N   0  0  0  0  0  0  0  0  0  0  0  0
   -0.5180  -11.7680  -26.0260 H   0  0  0  0  0  0  0  0  0  0  0  0
   -0.9440  -10.8990  -24.3470 C   0  0  0  0  0  0  0  0  0  0  0  0
   -0.5710  -11.9800  -23.6450 N   0  0  0  0  0  0  0  0  0  0  0  0
   -0.7790  -11.9450  -22.3330 C   0  0  0  0  0  3  0  0  0  0  0  0
   -1.2610  -10.9030  -21.6530 N   0  0  0  0  0  0  0  0  0  0  0  0
   -1.7170   -9.8470  -22.3600 C   0  0  0  0  0  0  0  0  0  0  0  0
   -2.1460   -8.6630  -21.7270 C   0  0  0  0  0  0  0  0  0  0  0  0
   -2.7050   -7.6020  -22.4630 C   0  0  0  0  0  3  0  0  0  0  0  0
   -2.8250   -7.6880  -23.8400 C   0  0  0  0  0  3  0  0  0  0  0  0
   -2.3140   -8.8050  -24.4920 C   0  0  0  0  0  3  0  0  0  0  0  0
   -1.7040   -9.8630  -23.7700 C   0  0  0  0  0  0  0  0  0  0  0  0
   -1.9260   -8.3950  -20.2690 C   0  0  0  0  0  0  0  0  0  0  0  0
   -0.8620   -8.9860  -19.6530 N   0  0  0  0  0  0  0  0  0  0  0  0
   -2.6370   -7.6150  -19.6460 O   0  0  0  0  0  0  0  0  0  0  0  0
   -0.6800   -8.7820  -18.6820 H   0  0  0  0  0  0  0  0  0  0  0  0
   -0.2830   -9.6620  -20.1430 H   0  0  0  0  0  0  0  0  0  0  0  0
  1  2  1  0  0  0  0
  2  3  2  0  0  0  0
  4  3  1  0  0  0  0
  5  4  2  0  0  0  0
  6  5  1  0  0  0  0
  6  1  2  0  0  0  0
  7  5  1  0  0  0  0
  8  7  1  0  0  0  0
  9  8  2  0  0  0  0
 10  7  1  0  0  0  0
 11  8  1  1  0  0  0
 11 15  1  0  0  0  0
 12 13  1  0  0  0  0
 12 11  1  0  0  0  0
 13 17  1  1  0  0  0
 13 14  1  0  0  0  0
 14 15  1  0  0  0  0
 15 16  1  0  0  0  0
 17 19  1  0  0  0  0
 18 17  1  0  0  0  0
 20 17  1  0  0  0  0
 22  1  1  0  0  0  0
 22 21  1  1  0  0  0
 22 23  1  0  0  0  0
 23 25  1  0  0  0  0
 24 23  1  0  0  0  0
 25 34  2  0  0  0  0
 25 26  1  0  0  0  0
 26 27  2  0  0  0  0
 27 28  1  0  0  0  0
 29 30  1  0  0  0  0
 29 28  2  0  0  0  0
 30 35  1  0  0  0  0
 31 30  2  0  0  0  0
 32 31  1  0  0  0  0
 33 32  2  0  0  0  0
 33 34  1  0  0  0  0
 34 29  1  0  0  0  0
 35 36  1  0  0  0  0
 35 37  2  0  0  0  0
 36 38  1  0  0  0  0
 39 36  1  0  0  0  0
M  END
>  <minimizedAffinity>
-7.20518351

$$$$
