
 OpenBabel10152418123D

 39 42  0  0  1  0  0  0  0  0999 V2000
    0.3460  -10.8000  -23.8550 C   0  0  0  0  0  0  0  0  0  0  0  0
   -0.1480  -11.7680  -22.9790 C   0  0  0  0  0  3  0  0  0  0  0  0
   -1.2860  -11.5460  -22.2210 C   0  0  0  0  0  3  0  0  0  0  0  0
   -1.7930  -10.2670  -22.1260 C   0  0  0  0  0  3  0  0  0  0  0  0
   -1.0580   -9.2050  -22.6260 C   0  0  0  0  0  0  0  0  0  0  0  0
   -0.0820   -9.4770  -23.6000 C   0  0  0  0  0  3  0  0  0  0  0  0
   -1.2510   -7.8800  -22.1880 N   0  0  0  0  0  0  0  0  0  0  0  0
   -1.0480   -6.6650  -22.8350 C   0  0  0  0  0  0  0  0  0  0  0  0
   -1.1050   -5.6430  -22.1590 O   0  0  0  0  0  0  0  0  0  0  0  0
   -1.6490   -7.7480  -21.2670 H   0  0  0  0  0  0  0  0  0  0  0  0
   -0.7620   -6.6080  -24.2520 C   0  0  2  0  0  3  0  0  0  0  0  0
    0.2760   -6.0790  -24.9990 C   0  0  0  0  0  2  0  0  0  0  0  0
   -0.2380   -5.9750  -26.3220 C   0  0  1  0  0  3  0  0  0  0  0  0
   -1.3760   -6.6790  -26.4340 N   0  0  0  0  0  2  0  0  0  0  0  0
   -1.6120   -7.1270  -25.1880 N   0  0  0  0  0  0  0  0  0  0  0  0
   -2.4470   -7.6800  -25.0190 H   0  0  0  0  0  0  0  0  0  0  0  0
    0.2410   -5.0960  -27.4730 C   0  0  0  0  0  0  0  0  0  0  0  0
   -0.3770   -5.5430  -28.8090 C   0  0  0  0  0  1  0  0  0  0  0  0
   -0.1770   -3.6300  -27.2040 C   0  0  0  0  0  1  0  0  0  0  0  0
    1.7760   -5.1220  -27.6260 C   0  0  0  0  0  1  0  0  0  0  0  0
    0.3300  -10.8890  -26.4170 C   0  0  0  0  0  1  0  0  0  0  0  0
    1.1240  -11.1810  -25.1290 C   0  0  1  0  0  3  0  0  0  0  0  0
    2.4520  -10.5900  -25.3210 N   0  0  0  0  0  0  0  0  0  0  0  0
    2.9600  -10.3960  -24.4610 H   0  0  0  0  0  0  0  0  0  0  0  0
    3.3630  -10.6240  -26.3420 C   0  0  0  0  0  0  0  0  0  0  0  0
    3.5240  -11.8830  -26.7780 N   0  0  0  0  0  0  0  0  0  0  0  0
    4.0610  -12.0370  -27.9840 C   0  0  0  0  0  3  0  0  0  0  0  0
    4.3860  -11.0470  -28.8190 N   0  0  0  0  0  0  0  0  0  0  0  0
    4.3080   -9.7820  -28.3560 C   0  0  0  0  0  0  0  0  0  0  0  0
    4.5300   -8.6720  -29.1950 C   0  0  0  0  0  0  0  0  0  0  0  0
    4.5370   -7.3600  -28.6860 C   0  0  0  0  0  3  0  0  0  0  0  0
    4.2980   -7.1270  -27.3410 C   0  0  0  0  0  3  0  0  0  0  0  0
    3.9750   -8.2000  -26.5190 C   0  0  0  0  0  3  0  0  0  0  0  0
    3.9170   -9.5240  -27.0250 C   0  0  0  0  0  0  0  0  0  0  0  0
    4.6460   -8.7890  -30.6840 C   0  0  0  0  0  0  0  0  0  0  0  0
    4.9270  -10.0120  -31.2200 N   0  0  0  0  0  0  0  0  0  0  0  0
    4.4330   -7.8330  -31.4220 O   0  0  0  0  0  0  0  0  0  0  0  0
    4.9690  -10.1130  -32.2230 H   0  0  0  0  0  0  0  0  0  0  0  0
    5.1420  -10.8060  -30.6240 H   0  0  0  0  0  0  0  0  0  0  0  0
  1  6  2  0  0  0  0
  1  2  1  0  0  0  0
  2  3  2  0  0  0  0
  3  4  1  0  0  0  0
  5  7  1  0  0  0  0
  5  4  2  0  0  0  0
  6  5  1  0  0  0  0
  7 10  1  0  0  0  0
  8  7  1  0  0  0  0
  8  9  2  0  0  0  0
 11  8  1  6  0  0  0
 12 11  1  0  0  0  0
 13 17  1  1  0  0  0
 13 12  1  0  0  0  0
 14 13  1  0  0  0  0
 14 15  1  0  0  0  0
 15 16  1  0  0  0  0
 15 11  1  0  0  0  0
 17 19  1  0  0  0  0
 18 17  1  0  0  0  0
 20 17  1  0  0  0  0
 22 21  1  6  0  0  0
 22  1  1  0  0  0  0
 23 22  1  0  0  0  0
 23 24  1  0  0  0  0
 25 23  1  0  0  0  0
 26 25  1  0  0  0  0
 27 26  2  0  0  0  0
 28 29  2  0  0  0  0
 28 27  1  0  0  0  0
 29 34  1  0  0  0  0
 30 31  2  0  0  0  0
 30 29  1  0  0  0  0
 31 32  1  0  0  0  0
 32 33  2  0  0  0  0
 34 33  1  0  0  0  0
 34 25  2  0  0  0  0
 35 30  1  0  0  0  0
 36 35  1  0  0  0  0
 36 39  1  0  0  0  0
 37 35  2  0  0  0  0
 38 36  1  0  0  0  0
M  END
>  <minimizedAffinity>
-8.20862389

$$$$

 OpenBabel10152418123D

 39 42  0  0  1  0  0  0  0  0999 V2000
    0.9620   -8.6610  -25.7920 C   0  0  0  0  0  0  0  0  0  0  0  0
    1.0950   -8.1790  -24.4880 C   0  0  0  0  0  3  0  0  0  0  0  0
    0.6160   -6.9330  -24.1230 C   0  0  0  0  0  3  0  0  0  0  0  0
    0.2360   -6.0430  -25.1070 C   0  0  0  0  0  3  0  0  0  0  0  0
    0.5170   -6.3330  -26.4320 C   0  0  0  0  0  0  0  0  0  0  0  0
    0.7390   -7.6760  -26.7820 C   0  0  0  0  0  3  0  0  0  0  0  0
    0.5920   -5.3360  -27.4240 N   0  0  0  0  0  0  0  0  0  0  0  0
    1.5490   -5.0910  -28.4030 C   0  0  0  0  0  0  0  0  0  0  0  0
    1.4760   -4.0320  -29.0190 O   0  0  0  0  0  0  0  0  0  0  0  0
   -0.1890   -4.6960  -27.4990 H   0  0  0  0  0  0  0  0  0  0  0  0
    2.6030   -6.0430  -28.6770 C   0  0  2  0  0  3  0  0  0  0  0  0
    2.7310   -7.1060  -29.5550 C   0  0  0  0  0  2  0  0  0  0  0  0
    3.8100   -7.8790  -29.0410 C   0  0  1  0  0  3  0  0  0  0  0  0
    4.4860   -7.1770  -28.1180 N   0  0  0  0  0  2  0  0  0  0  0  0
    3.7860   -6.0350  -27.9920 N   0  0  0  0  0  0  0  0  0  0  0  0
    4.1030   -5.3410  -27.3220 H   0  0  0  0  0  0  0  0  0  0  0  0
    4.1450   -9.3460  -29.2930 C   0  0  0  0  0  0  0  0  0  0  0  0
    4.9700   -9.5140  -30.5800 C   0  0  0  0  0  1  0  0  0  0  0  0
    4.9720   -9.8920  -28.1040 C   0  0  0  0  0  1  0  0  0  0  0  0
    2.8790  -10.2190  -29.4200 C   0  0  0  0  0  1  0  0  0  0  0  0
    2.0900  -10.9580  -25.6310 C   0  0  0  0  0  1  0  0  0  0  0  0
    0.8500  -10.1680  -26.0920 C   0  0  1  0  0  3  0  0  0  0  0  0
   -0.3150  -10.8850  -25.5630 N   0  0  0  0  0  0  0  0  0  0  0  0
   -0.5180  -11.7680  -26.0260 H   0  0  0  0  0  0  0  0  0  0  0  0
   -0.9440  -10.8990  -24.3470 C   0  0  0  0  0  0  0  0  0  0  0  0
   -0.5710  -11.9800  -23.6450 N   0  0  0  0  0  0  0  0  0  0  0  0
   -0.7790  -11.9450  -22.3330 C   0  0  0  0  0  3  0  0  0  0  0  0
   -1.2610  -10.9030  -21.6530 N   0  0  0  0  0  0  0  0  0  0  0  0
   -1.7170   -9.8470  -22.3600 C   0  0  0  0  0  0  0  0  0  0  0  0
   -2.1460   -8.6630  -21.7270 C   0  0  0  0  0  0  0  0  0  0  0  0
   -2.7050   -7.6020  -22.4630 C   0  0  0  0  0  3  0  0  0  0  0  0
   -2.8250   -7.6880  -23.8400 C   0  0  0  0  0  3  0  0  0  0  0  0
   -2.3140   -8.8050  -24.4920 C   0  0  0  0  0  3  0  0  0  0  0  0
   -1.7040   -9.8630  -23.7700 C   0  0  0  0  0  0  0  0  0  0  0  0
   -1.9260   -8.3950  -20.2690 C   0  0  0  0  0  0  0  0  0  0  0  0
   -0.8620   -8.9860  -19.6530 N   0  0  0  0  0  0  0  0  0  0  0  0
   -2.6370   -7.6150  -19.6460 O   0  0  0  0  0  0  0  0  0  0  0  0
   -0.6800   -8.7820  -18.6820 H   0  0  0  0  0  0  0  0  0  0  0  0
   -0.2830   -9.6620  -20.1430 H   0  0  0  0  0  0  0  0  0  0  0  0
  1  2  1  0  0  0  0
  2  3  2  0  0  0  0
  4  3  1  0  0  0  0
  5  4  2  0  0  0  0
  6  5  1  0  0  0  0
  6  1  2  0  0  0  0
  7  5  1  0  0  0  0
  8  7  1  0  0  0  0
  9  8  2  0  0  0  0
 10  7  1  0  0  0  0
 11  8  1  1  0  0  0
 11 15  1  0  0  0  0
 12 13  1  0  0  0  0
 12 11  1  0  0  0  0
 13 17  1  1  0  0  0
 13 14  1  0  0  0  0
 14 15  1  0  0  0  0
 15 16  1  0  0  0  0
 17 19  1  0  0  0  0
 18 17  1  0  0  0  0
 20 17  1  0  0  0  0
 22  1  1  0  0  0  0
 22 21  1  1  0  0  0
 22 23  1  0  0  0  0
 23 25  1  0  0  0  0
 24 23  1  0  0  0  0
 25 34  2  0  0  0  0
 25 26  1  0  0  0  0
 26 27  2  0  0  0  0
 27 28  1  0  0  0  0
 29 30  1  0  0  0  0
 29 28  2  0  0  0  0
 30 35  1  0  0  0  0
 31 30  2  0  0  0  0
 32 31  1  0  0  0  0
 33 32  2  0  0  0  0
 33 34  1  0  0  0  0
 34 29  1  0  0  0  0
 35 36  1  0  0  0  0
 35 37  2  0  0  0  0
 36 38  1  0  0  0  0
 39 36  1  0  0  0  0
M  END
>  <minimizedAffinity>
-7.20518351

$$$$

 OpenBabel10152418123D

 39 42  0  0  1  0  0  0  0  0999 V2000
   -1.9010   -9.0810  -22.2040 C   0  0  0  0  0  0  0  0  0  0  0  0
   -1.9240   -9.9680  -21.1250 C   0  0  0  0  0  3  0  0  0  0  0  0
   -1.3260  -11.2140  -21.1980 C   0  0  0  0  0  3  0  0  0  0  0  0
   -0.9290  -11.6990  -22.4270 C   0  0  0  0  0  3  0  0  0  0  0  0
   -1.3040  -11.0260  -23.5780 C   0  0  0  0  0  0  0  0  0  0  0  0
   -1.6530   -9.6690  -23.4660 C   0  0  0  0  0  3  0  0  0  0  0  0
   -1.3510  -11.6530  -24.8390 N   0  0  0  0  0  0  0  0  0  0  0  0
   -0.5310  -11.5230  -25.9540 C   0  0  0  0  0  0  0  0  0  0  0  0
   -0.9090  -12.0380  -27.0020 O   0  0  0  0  0  0  0  0  0  0  0  0
   -2.0620  -12.3590  -24.9800 H   0  0  0  0  0  0  0  0  0  0  0  0
    0.7160  -10.7930  -25.8890 C   0  0  2  0  0  3  0  0  0  0  0  0
    1.2520   -9.7430  -26.6150 C   0  0  0  0  0  2  0  0  0  0  0  0
    2.6470   -9.7790  -26.3380 C   0  0  1  0  0  3  0  0  0  0  0  0
    2.8920  -10.5760  -25.2860 N   0  0  0  0  0  2  0  0  0  0  0  0
    1.6910  -11.0980  -24.9790 N   0  0  0  0  0  0  0  0  0  0  0  0
    1.6290  -11.7590  -24.2110 H   0  0  0  0  0  0  0  0  0  0  0  0
    3.8010   -9.1860  -27.1410 C   0  0  0  0  0  0  0  0  0  0  0  0
    4.3280   -7.8970  -26.4890 C   0  0  0  0  0  1  0  0  0  0  0  0
    4.9580  -10.2130  -27.2070 C   0  0  0  0  0  1  0  0  0  0  0  0
    3.3910   -8.8530  -28.5910 C   0  0  0  0  0  1  0  0  0  0  0  0
   -1.7450   -7.1510  -20.5240 C   0  0  0  0  0  1  0  0  0  0  0  0
   -1.9280   -7.5540  -22.0000 C   0  0  1  0  0  3  0  0  0  0  0  0
   -0.9780   -6.7460  -22.7700 N   0  0  0  0  0  0  0  0  0  0  0  0
   -0.0440   -7.1430  -22.8450 H   0  0  0  0  0  0  0  0  0  0  0  0
   -1.1170   -5.8200  -23.7680 C   0  0  0  0  0  0  0  0  0  0  0  0
   -1.3490   -4.6060  -23.2450 N   0  0  0  0  0  0  0  0  0  0  0  0
   -1.1280   -3.5600  -24.0330 C   0  0  0  0  0  3  0  0  0  0  0  0
   -0.6300   -3.6140  -25.2710 N   0  0  0  0  0  0  0  0  0  0  0  0
   -0.4760   -4.8320  -25.8340 C   0  0  0  0  0  0  0  0  0  0  0  0
    0.1380   -4.9930  -27.0920 C   0  0  0  0  0  0  0  0  0  0  0  0
    0.2140   -6.2530  -27.7130 C   0  0  0  0  0  3  0  0  0  0  0  0
   -0.2950   -7.3770  -27.0840 C   0  0  0  0  0  3  0  0  0  0  0  0
   -0.8110   -7.2550  -25.8000 C   0  0  0  0  0  3  0  0  0  0  0  0
   -0.8520   -6.0000  -25.1390 C   0  0  0  0  0  0  0  0  0  0  0  0
    0.8570   -3.8800  -27.7940 C   0  0  0  0  0  0  0  0  0  0  0  0
    0.3310   -2.6230  -27.7270 N   0  0  0  0  0  0  0  0  0  0  0  0
    1.9260   -4.0660  -28.3650 O   0  0  0  0  0  0  0  0  0  0  0  0
    0.8250   -1.8590  -28.1620 H   0  0  0  0  0  0  0  0  0  0  0  0
   -0.5710   -2.4560  -27.2900 H   0  0  0  0  0  0  0  0  0  0  0  0
  1 22  1  0  0  0  0
  1  2  1  0  0  0  0
  3  2  2  0  0  0  0
  4  3  1  0  0  0  0
  5  6  1  0  0  0  0
  5  4  2  0  0  0  0
  6  1  2  0  0  0  0
  7  5  1  0  0  0  0
  8  7  1  0  0  0  0
  9  8  2  0  0  0  0
 10  7  1  0  0  0  0
 11  8  1  6  0  0  0
 11 15  1  0  0  0  0
 12 13  1  0  0  0  0
 12 11  1  0  0  0  0
 13 17  1  6  0  0  0
 13 14  1  0  0  0  0
 14 15  1  0  0  0  0
 15 16  1  0  0  0  0
 17 18  1  0  0  0  0
 19 17  1  0  0  0  0
 20 17  1  0  0  0  0
 22 21  1  1  0  0  0
 23 22  1  0  0  0  0
 24 23  1  0  0  0  0
 25 26  1  0  0  0  0
 25 23  1  0  0  0  0
 27 26  2  0  0  0  0
 28 27  1  0  0  0  0
 29 28  2  0  0  0  0
 29 34  1  0  0  0  0
 30 29  1  0  0  0  0
 31 30  2  0  0  0  0
 31 32  1  0  0  0  0
 32 33  2  0  0  0  0
 33 34  1  0  0  0  0
 34 25  2  0  0  0  0
 35 36  1  0  0  0  0
 35 30  1  0  0  0  0
 36 39  1  0  0  0  0
 37 35  2  0  0  0  0
 38 36  1  0  0  0  0
M  END
>  <minimizedAffinity>
-5.56969404

$$$$
