
 OpenBabel10152418233D

 40 43  0  0  1  0  0  0  0  0999 V2000
    2.0070  -10.1390  -26.0870 C   0  0  2  0  0  3  0  0  0  0  0  0
    3.0230   -7.1270  -28.2390 C   0  0  0  0  0  0  0  0  0  0  0  0
    4.3910   -7.0530  -27.9840 C   0  0  0  0  0  3  0  0  0  0  0  0
    4.9550   -7.8330  -26.9790 C   0  0  0  0  0  3  0  0  0  0  0  0
    4.1730   -8.7700  -26.3010 C   0  0  0  0  0  3  0  0  0  0  0  0
    2.8230   -8.9620  -26.6390 C   0  0  0  0  0  0  0  0  0  0  0  0
    2.2370   -8.0670  -27.5600 C   0  0  0  0  0  3  0  0  0  0  0  0
    1.2670   -5.7470  -29.3760 C   0  0  0  0  0  0  0  0  0  0  0  0
    0.7300   -5.6230  -30.4740 O   0  0  0  0  0  0  0  0  0  0  0  0
    2.5090   -6.3300  -29.2730 N   0  0  0  0  0  0  0  0  0  0  0  0
    3.0680   -6.2500  -30.1130 H   0  0  0  0  0  0  0  0  0  0  0  0
   -0.7310   -3.7490  -26.1430 C   0  0  0  0  0  0  0  0  0  0  0  0
   -0.9150   -5.1150  -26.3570 C   0  0  0  0  0  3  0  0  0  0  0  0
   -0.2130   -5.7740  -27.3730 C   0  0  0  0  0  3  0  0  0  0  0  0
    0.6750   -5.0640  -28.1890 C   0  0  0  0  0  0  0  0  0  0  0  0
    0.8250   -3.6830  -27.9950 C   0  0  0  0  0  3  0  0  0  0  0  0
    0.1280   -3.0300  -26.9720 C   0  0  0  0  0  3  0  0  0  0  0  0
   -1.2950   -1.7920  -24.9650 C   0  0  0  0  0  1  0  0  0  0  0  0
   -1.4840   -3.1960  -25.1430 O   0  0  0  0  0  0  0  0  0  0  0  0
    1.6680   -9.9740  -24.6780 N   0  0  0  0  0  0  0  0  0  0  0  0
    2.4440   -9.9470  -24.0280 H   0  0  0  0  0  0  0  0  0  0  0  0
    0.4500   -9.3730  -24.3870 C   0  0  0  0  0  0  0  0  0  0  0  0
    0.2750   -8.1190  -24.8410 N   0  0  0  0  0  0  0  0  0  0  0  0
   -0.6310   -7.3760  -24.2120 C   0  0  0  0  0  3  0  0  0  0  0  0
   -1.2970   -7.7430  -23.1190 N   0  0  0  0  0  0  0  0  0  0  0  0
   -1.1590   -9.0180  -22.7130 C   0  0  0  0  0  0  0  0  0  0  0  0
   -1.7090   -9.4700  -21.5140 C   0  0  0  0  0  0  0  0  0  0  0  0
   -1.7200  -10.8170  -21.1230 C   0  0  0  0  0  3  0  0  0  0  0  0
   -1.0910  -11.7570  -21.9220 C   0  0  0  0  0  3  0  0  0  0  0  0
   -0.3730  -11.3150  -23.0280 C   0  0  0  0  0  3  0  0  0  0  0  0
   -0.3780   -9.9420  -23.4090 C   0  0  0  0  0  0  0  0  0  0  0  0
   -1.9380   -8.4720  -20.4520 C   0  0  0  0  0  0  0  0  0  0  0  0
   -2.4960   -7.3090  -20.9310 N   0  0  0  0  0  0  0  0  0  0  0  0
   -1.6230   -8.6340  -19.2930 O   0  0  0  0  0  0  0  0  0  0  0  0
   -2.6850   -6.5560  -20.2870 H   0  0  0  0  0  0  0  0  0  0  0  0
   -2.7740   -7.2040  -21.9000 H   0  0  0  0  0  0  0  0  0  0  0  0
    2.6820  -11.5130  -26.3080 C   0  0  0  0  0  2  0  0  0  0  0  0
    3.2240  -11.8280  -27.7010 C   0  0  0  0  0  2  0  0  0  0  0  0
    4.6340  -12.0390  -27.6880 O   0  0  0  0  0  0  0  0  0  0  0  0
    4.8760  -12.3310  -28.5850 H   0  0  0  0  0  0  0  0  0  0  0  0
  1 37  1  1  0  0  0
  1 20  1  0  0  0  0
  2  3  2  0  0  0  0
  2  7  1  0  0  0  0
  3  4  1  0  0  0  0
  4  5  2  0  0  0  0
  6  5  1  0  0  0  0
  6  1  1  0  0  0  0
  7  6  2  0  0  0  0
  8 10  1  0  0  0  0
  8 15  1  0  0  0  0
  9  8  2  0  0  0  0
 10  2  1  0  0  0  0
 11 10  1  0  0  0  0
 12 19  1  0  0  0  0
 13 12  1  0  0  0  0
 14 13  2  0  0  0  0
 15 16  2  0  0  0  0
 15 14  1  0  0  0  0
 16 17  1  0  0  0  0
 17 12  2  0  0  0  0
 19 18  1  0  0  0  0
 20 22  1  0  0  0  0
 20 21  1  0  0  0  0
 22 31  1  0  0  0  0
 23 22  2  0  0  0  0
 23 24  1  0  0  0  0
 24 25  2  0  0  0  0
 25 26  1  0  0  0  0
 26 27  1  0  0  0  0
 27 28  2  0  0  0  0
 27 32  1  0  0  0  0
 29 28  1  0  0  0  0
 30 29  2  0  0  0  0
 31 30  1  0  0  0  0
 31 26  2  0  0  0  0
 32 34  2  0  0  0  0
 33 32  1  0  0  0  0
 33 35  1  0  0  0  0
 36 33  1  0  0  0  0
 38 39  1  0  0  0  0
 38 37  1  0  0  0  0
 40 39  1  0  0  0  0
M  END
>  <minimizedAffinity>
-5.52385569

$$$$
