
 OpenBabel10152418233D

 40 43  0  0  1  0  0  0  0  0999 V2000
    0.0620  -11.4380  -24.9900 C   0  0  2  0  0  3  0  0  0  0  0  0
   -1.6670   -9.3030  -22.3090 C   0  0  0  0  0  0  0  0  0  0  0  0
   -1.5690  -10.1290  -21.1910 C   0  0  0  0  0  3  0  0  0  0  0  0
   -1.1320  -11.4430  -21.3330 C   0  0  0  0  0  3  0  0  0  0  0  0
   -0.6870  -11.9000  -22.5740 C   0  0  0  0  0  3  0  0  0  0  0  0
   -0.6420  -11.0420  -23.6850 C   0  0  0  0  0  0  0  0  0  0  0  0
   -1.2190   -9.7610  -23.5550 C   0  0  0  0  0  3  0  0  0  0  0  0
   -1.5290   -6.8130  -22.5530 C   0  0  0  0  0  0  0  0  0  0  0  0
   -1.5950   -5.7930  -21.8710 O   0  0  0  0  0  0  0  0  0  0  0  0
   -2.0990   -7.9830  -22.1090 N   0  0  0  0  0  0  0  0  0  0  0  0
   -2.8680   -7.8440  -21.4650 H   0  0  0  0  0  0  0  0  0  0  0  0
   -0.2480   -6.2420  -26.6120 C   0  0  0  0  0  0  0  0  0  0  0  0
    0.4690   -5.6830  -25.5530 C   0  0  0  0  0  3  0  0  0  0  0  0
    0.0830   -5.9240  -24.2300 C   0  0  0  0  0  3  0  0  0  0  0  0
   -1.0320   -6.7240  -23.9570 C   0  0  0  0  0  0  0  0  0  0  0  0
   -1.7720   -7.2500  -25.0250 C   0  0  0  0  0  3  0  0  0  0  0  0
   -1.3780   -7.0130  -26.3470 C   0  0  0  0  0  3  0  0  0  0  0  0
    1.2310   -4.9420  -27.8980 C   0  0  0  0  0  1  0  0  0  0  0  0
    0.1950   -5.9230  -27.8670 O   0  0  0  0  0  0  0  0  0  0  0  0
    1.4940  -11.6450  -24.8140 N   0  0  0  0  0  0  0  0  0  0  0  0
    1.8320  -12.5910  -24.9410 H   0  0  0  0  0  0  0  0  0  0  0  0
    2.3190  -10.5420  -24.9990 C   0  0  0  0  0  0  0  0  0  0  0  0
    1.9360   -9.4000  -24.4020 N   0  0  0  0  0  0  0  0  0  0  0  0
    2.4100   -8.2680  -24.9160 C   0  0  0  0  0  3  0  0  0  0  0  0
    3.1440   -8.1780  -26.0230 N   0  0  0  0  0  0  0  0  0  0  0  0
    3.5700   -9.3300  -26.5750 C   0  0  0  0  0  0  0  0  0  0  0  0
    4.2340   -9.3540  -27.8000 C   0  0  0  0  0  0  0  0  0  0  0  0
    4.8260  -10.5060  -28.3400 C   0  0  0  0  0  3  0  0  0  0  0  0
    4.6910  -11.7110  -27.6720 C   0  0  0  0  0  3  0  0  0  0  0  0
    3.8780  -11.7570  -26.5440 C   0  0  0  0  0  3  0  0  0  0  0  0
    3.2900  -10.5750  -26.0100 C   0  0  0  0  0  0  0  0  0  0  0  0
    3.9780   -8.2420  -28.7360 C   0  0  0  0  0  0  0  0  0  0  0  0
    4.5580   -7.0630  -28.3260 N   0  0  0  0  0  0  0  0  0  0  0  0
    3.2900   -8.3400  -29.7290 O   0  0  0  0  0  0  0  0  0  0  0  0
    4.4340   -6.2370  -28.8910 H   0  0  0  0  0  0  0  0  0  0  0  0
    5.1490   -7.0100  -27.5060 H   0  0  0  0  0  0  0  0  0  0  0  0
   -0.1880  -10.4440  -26.1490 C   0  0  0  0  0  2  0  0  0  0  0  0
   -1.5290  -10.5160  -26.8770 C   0  0  0  0  0  2  0  0  0  0  0  0
   -2.4950  -11.2590  -26.1390 O   0  0  0  0  0  0  0  0  0  0  0  0
   -3.3380  -11.1680  -26.6200 H   0  0  0  0  0  0  0  0  0  0  0  0
  1 37  1  6  0  0  0
  1 20  1  0  0  0  0
  1  6  1  0  0  0  0
  2 10  1  0  0  0  0
  2  3  1  0  0  0  0
  4  3  2  0  0  0  0
  5  4  1  0  0  0  0
  6  7  1  0  0  0  0
  6  5  2  0  0  0  0
  7  2  2  0  0  0  0
  8 10  1  0  0  0  0
  8  9  2  0  0  0  0
 10 11  1  0  0  0  0
 12 17  2  0  0  0  0
 12 13  1  0  0  0  0
 13 14  2  0  0  0  0
 14 15  1  0  0  0  0
 15  8  1  0  0  0  0
 16 15  2  0  0  0  0
 17 16  1  0  0  0  0
 18 19  1  0  0  0  0
 19 12  1  0  0  0  0
 21 20  1  0  0  0  0
 22 20  1  0  0  0  0
 22 23  1  0  0  0  0
 24 23  2  0  0  0  0
 25 24  1  0  0  0  0
 26 25  2  0  0  0  0
 26 31  1  0  0  0  0
 27 26  1  0  0  0  0
 28 27  2  0  0  0  0
 28 29  1  0  0  0  0
 29 30  2  0  0  0  0
 30 31  1  0  0  0  0
 31 22  2  0  0  0  0
 32 33  1  0  0  0  0
 32 27  1  0  0  0  0
 33 36  1  0  0  0  0
 34 32  2  0  0  0  0
 35 33  1  0  0  0  0
 38 37  1  0  0  0  0
 38 39  1  0  0  0  0
 40 39  1  0  0  0  0
M  END
>  <minimizedAffinity>
-7.33420753

$$$$
