
 OpenBabel10152418233D

 40 43  0  0  1  0  0  0  0  0999 V2000
    2.1150  -10.4880  -26.6180 C   0  0  2  0  0  3  0  0  0  0  0  0
    2.9670   -7.1410  -28.2950 C   0  0  0  0  0  0  0  0  0  0  0  0
    4.2540   -6.9090  -27.8140 C   0  0  0  0  0  3  0  0  0  0  0  0
    4.7740   -7.7130  -26.8030 C   0  0  0  0  0  3  0  0  0  0  0  0
    4.0530   -8.8180  -26.3500 C   0  0  0  0  0  3  0  0  0  0  0  0
    2.8150   -9.1550  -26.9210 C   0  0  0  0  0  0  0  0  0  0  0  0
    2.2420   -8.2510  -27.8420 C   0  0  0  0  0  3  0  0  0  0  0  0
    1.2670   -5.7080  -29.4510 C   0  0  0  0  0  0  0  0  0  0  0  0
    0.7670   -5.5480  -30.5620 O   0  0  0  0  0  0  0  0  0  0  0  0
    2.4970   -6.3110  -29.3240 N   0  0  0  0  0  0  0  0  0  0  0  0
    3.0830   -6.2180  -30.1440 H   0  0  0  0  0  0  0  0  0  0  0  0
   -0.7960   -3.7400  -26.2400 C   0  0  0  0  0  0  0  0  0  0  0  0
   -1.0660   -5.0740  -26.5490 C   0  0  0  0  0  3  0  0  0  0  0  0
   -0.3470   -5.7280  -27.5540 C   0  0  0  0  0  3  0  0  0  0  0  0
    0.6470   -5.0470  -28.2660 C   0  0  0  0  0  0  0  0  0  0  0  0
    0.8860   -3.6950  -27.9800 C   0  0  0  0  0  3  0  0  0  0  0  0
    0.1700   -3.0470  -26.9680 C   0  0  0  0  0  3  0  0  0  0  0  0
   -1.2980   -1.8100  -24.9920 C   0  0  0  0  0  1  0  0  0  0  0  0
   -1.5730   -3.1850  -25.2600 O   0  0  0  0  0  0  0  0  0  0  0  0
    0.7050  -10.3180  -26.2890 N   0  0  0  0  0  0  0  0  0  0  0  0
    0.0390  -10.6240  -26.9880 H   0  0  0  0  0  0  0  0  0  0  0  0
    0.3740  -10.2540  -24.9410 C   0  0  0  0  0  0  0  0  0  0  0  0
   -0.0640  -11.3930  -24.3760 N   0  0  0  0  0  0  0  0  0  0  0  0
   -0.8040  -11.2700  -23.2780 C   0  0  0  0  0  3  0  0  0  0  0  0
   -1.2200  -10.1160  -22.7600 N   0  0  0  0  0  0  0  0  0  0  0  0
   -0.7240   -8.9860  -23.2970 C   0  0  0  0  0  0  0  0  0  0  0  0
   -1.1890   -7.7280  -22.9160 C   0  0  0  0  0  0  0  0  0  0  0  0
   -0.6030   -6.5240  -23.3350 C   0  0  0  0  0  3  0  0  0  0  0  0
    0.4490   -6.5620  -24.2350 C   0  0  0  0  0  3  0  0  0  0  0  0
    0.8140   -7.7900  -24.7770 C   0  0  0  0  0  3  0  0  0  0  0  0
    0.2090   -9.0010  -24.3350 C   0  0  0  0  0  0  0  0  0  0  0  0
   -2.5590   -7.6430  -22.3750 C   0  0  0  0  0  0  0  0  0  0  0  0
   -2.5810   -7.5690  -21.0010 N   0  0  0  0  0  0  0  0  0  0  0  0
   -3.5580   -7.6860  -23.0590 O   0  0  0  0  0  0  0  0  0  0  0  0
   -3.4710   -7.5180  -20.5290 H   0  0  0  0  0  0  0  0  0  0  0  0
   -1.7320   -7.5100  -20.4510 H   0  0  0  0  0  0  0  0  0  0  0  0
    2.8180  -11.3130  -25.5140 C   0  0  0  0  0  2  0  0  0  0  0  0
    4.1340  -12.0040  -25.8650 C   0  0  0  0  0  2  0  0  0  0  0  0
    4.3570  -12.0390  -27.2720 O   0  0  0  0  0  0  0  0  0  0  0  0
    5.2530  -12.3990  -27.4000 H   0  0  0  0  0  0  0  0  0  0  0  0
  1 20  1  0  0  0  0
  1 37  1  1  0  0  0
  2  7  2  0  0  0  0
  2  3  1  0  0  0  0
  3  4  2  0  0  0  0
  4  5  1  0  0  0  0
  6  1  1  0  0  0  0
  6  5  2  0  0  0  0
  7  6  1  0  0  0  0
  8 10  1  0  0  0  0
  8 15  1  0  0  0  0
  9  8  2  0  0  0  0
 10  2  1  0  0  0  0
 11 10  1  0  0  0  0
 12 19  1  0  0  0  0
 13 12  1  0  0  0  0
 14 13  2  0  0  0  0
 15 16  2  0  0  0  0
 15 14  1  0  0  0  0
 16 17  1  0  0  0  0
 17 12  2  0  0  0  0
 19 18  1  0  0  0  0
 20 22  1  0  0  0  0
 21 20  1  0  0  0  0
 22 23  2  0  0  0  0
 22 31  1  0  0  0  0
 23 24  1  0  0  0  0
 24 25  2  0  0  0  0
 26 27  1  0  0  0  0
 26 25  1  0  0  0  0
 27 32  1  0  0  0  0
 28 27  2  0  0  0  0
 29 28  1  0  0  0  0
 30 31  1  0  0  0  0
 30 29  2  0  0  0  0
 31 26  2  0  0  0  0
 32 33  1  0  0  0  0
 33 35  1  0  0  0  0
 33 36  1  0  0  0  0
 34 32  2  0  0  0  0
 38 37  1  0  0  0  0
 39 38  1  0  0  0  0
 40 39  1  0  0  0  0
M  END
>  <minimizedAffinity>
-5.36735535

$$$$
