
 OpenBabel10152418233D

 40 43  0  0  1  0  0  0  0  0999 V2000
   -0.0930   -7.0100  -25.5460 C   0  0  2  0  0  3  0  0  0  0  0  0
    1.9730   -6.1260  -28.6580 C   0  0  0  0  0  0  0  0  0  0  0  0
    1.8660   -4.7360  -28.6770 C   0  0  0  0  0  3  0  0  0  0  0  0
    0.9760   -4.0960  -27.8190 C   0  0  0  0  0  3  0  0  0  0  0  0
    0.2740   -4.8330  -26.8640 C   0  0  0  0  0  3  0  0  0  0  0  0
    0.4740   -6.2170  -26.7320 C   0  0  0  0  0  0  0  0  0  0  0  0
    1.2700   -6.8670  -27.6990 C   0  0  0  0  0  3  0  0  0  0  0  0
    3.9400   -7.5660  -29.2390 C   0  0  0  0  0  0  0  0  0  0  0  0
    4.9740   -7.5270  -29.9030 O   0  0  0  0  0  0  0  0  0  0  0  0
    2.8960   -6.7200  -29.5320 N   0  0  0  0  0  0  0  0  0  0  0  0
    2.8760   -6.4160  -30.4980 H   0  0  0  0  0  0  0  0  0  0  0  0
    3.0110  -10.7570  -26.5210 C   0  0  0  0  0  0  0  0  0  0  0  0
    3.1740  -11.0080  -27.8840 C   0  0  0  0  0  3  0  0  0  0  0  0
    3.5390   -9.9750  -28.7560 C   0  0  0  0  0  3  0  0  0  0  0  0
    3.7350   -8.6780  -28.2670 C   0  0  0  0  0  0  0  0  0  0  0  0
    3.5290   -8.4250  -26.9040 C   0  0  0  0  0  3  0  0  0  0  0  0
    3.1730   -9.4620  -26.0340 C   0  0  0  0  0  3  0  0  0  0  0  0
    2.6770  -11.6030  -24.3520 C   0  0  0  0  0  1  0  0  0  0  0  0
    2.6280  -11.8280  -25.7600 O   0  0  0  0  0  0  0  0  0  0  0  0
   -1.5510   -7.0220  -25.5260 N   0  0  0  0  0  0  0  0  0  0  0  0
   -2.0170   -6.6290  -26.3350 H   0  0  0  0  0  0  0  0  0  0  0  0
   -2.1640   -7.9740  -24.7210 C   0  0  0  0  0  0  0  0  0  0  0  0
   -2.7960   -7.5170  -23.6250 N   0  0  0  0  0  0  0  0  0  0  0  0
   -2.9730   -8.3830  -22.6310 C   0  0  0  0  0  3  0  0  0  0  0  0
   -2.4900   -9.6230  -22.6010 N   0  0  0  0  0  0  0  0  0  0  0  0
   -1.9140  -10.0870  -23.7260 C   0  0  0  0  0  0  0  0  0  0  0  0
   -1.2660  -11.3210  -23.7630 C   0  0  0  0  0  0  0  0  0  0  0  0
   -0.7840  -11.9120  -24.9410 C   0  0  0  0  0  3  0  0  0  0  0  0
   -0.8820  -11.2140  -26.1330 C   0  0  0  0  0  3  0  0  0  0  0  0
   -1.3550   -9.9060  -26.1010 C   0  0  0  0  0  3  0  0  0  0  0  0
   -1.8420   -9.3280  -24.8950 C   0  0  0  0  0  0  0  0  0  0  0  0
   -0.7240  -11.8430  -22.4930 C   0  0  0  0  0  0  0  0  0  0  0  0
   -1.7010  -12.0380  -21.5430 N   0  0  0  0  0  0  0  0  0  0  0  0
    0.4550  -12.0320  -22.2890 O   0  0  0  0  0  0  0  0  0  0  0  0
   -1.4350  -12.3840  -20.6340 H   0  0  0  0  0  0  0  0  0  0  0  0
   -2.6840  -11.8980  -21.7440 H   0  0  0  0  0  0  0  0  0  0  0  0
    0.4480   -6.5370  -24.1760 C   0  0  0  0  0  2  0  0  0  0  0  0
   -0.1330   -5.2550  -23.5810 C   0  0  0  0  0  2  0  0  0  0  0  0
   -1.0650   -5.5290  -22.5370 O   0  0  0  0  0  0  0  0  0  0  0  0
   -1.3040   -4.6670  -22.1510 H   0  0  0  0  0  0  0  0  0  0  0  0
  1 20  1  0  0  0  0
  1 37  1  1  0  0  0
  2  7  1  0  0  0  0
  3  2  2  0  0  0  0
  3  4  1  0  0  0  0
  4  5  2  0  0  0  0
  5  6  1  0  0  0  0
  6  1  1  0  0  0  0
  7  6  2  0  0  0  0
  8 15  1  0  0  0  0
  9  8  2  0  0  0  0
 10  8  1  0  0  0  0
 10  2  1  0  0  0  0
 11 10  1  0  0  0  0
 12 17  1  0  0  0  0
 12 19  1  0  0  0  0
 13 12  2  0  0  0  0
 14 15  2  0  0  0  0
 14 13  1  0  0  0  0
 15 16  1  0  0  0  0
 16 17  2  0  0  0  0
 19 18  1  0  0  0  0
 20 22  1  0  0  0  0
 21 20  1  0  0  0  0
 22 23  1  0  0  0  0
 23 24  2  0  0  0  0
 24 25  1  0  0  0  0
 26 25  2  0  0  0  0
 27 26  1  0  0  0  0
 27 32  1  0  0  0  0
 28 27  2  0  0  0  0
 29 30  2  0  0  0  0
 29 28  1  0  0  0  0
 30 31  1  0  0  0  0
 31 22  2  0  0  0  0
 31 26  1  0  0  0  0
 32 34  2  0  0  0  0
 32 33  1  0  0  0  0
 33 35  1  0  0  0  0
 36 33  1  0  0  0  0
 37 38  1  0  0  0  0
 38 39  1  0  0  0  0
 39 40  1  0  0  0  0
M  END
>  <minimizedAffinity>
-7.88409519

$$$$
