
 OpenBabel11232420253D

 39 44  0  0  1  0  0  0  0  0999 V2000
   -5.8930   -9.1700   12.1700 C   0  0  0  0  0  0  0  0  0  0  0  0
   -5.6740  -10.2190   13.0080 N   0  0  0  0  0  0  0  0  0  0  0  0
   -4.5610  -10.1970   13.7720 C   0  0  0  0  0  0  0  0  0  0  0  0
   -4.3770  -11.3550   14.6450 C   0  0  0  0  0  3  0  0  0  0  0  0
   -3.2950  -11.4460   15.4300 C   0  0  0  0  0  3  0  0  0  0  0  0
   -2.3170  -10.4240   15.4100 C   0  0  0  0  0  0  0  0  0  0  0  0
   -1.1910  -10.3180   16.0740 N   0  0  0  0  0  0  0  0  0  0  0  0
   -0.5840   -9.1590   15.6900 N   0  0  0  0  0  0  0  0  0  0  0  0
   -1.3450   -8.5600   14.7890 C   0  0  0  0  0  0  0  0  0  0  0  0
   -2.4850   -9.3170   14.5820 N   0  0  0  0  0  0  0  0  0  0  0  0
   -3.6250   -9.1620   13.7490 C   0  0  0  0  0  0  0  0  0  0  0  0
   -3.8830   -8.0740   12.9210 C   0  0  0  0  0  3  0  0  0  0  0  0
   -5.0360   -8.0540   12.1090 C   0  0  0  0  0  0  0  0  0  0  0  0
   -5.2960   -6.8750   11.2630 C   0  0  0  0  0  0  0  0  0  0  0  0
   -5.1250   -6.9380    9.8700 C   0  0  0  0  0  3  0  0  0  0  0  0
   -5.3610   -5.8180    9.0680 C   0  0  0  0  0  3  0  0  0  0  0  0
   -5.7640   -4.6170    9.6470 C   0  0  0  0  0  3  0  0  0  0  0  0
   -5.9300   -4.5330   11.0270 C   0  0  0  0  0  3  0  0  0  0  0  0
   -5.6960   -5.6530   11.8290 C   0  0  0  0  0  3  0  0  0  0  0  0
   -9.4130   -9.7860    9.6570 C   0  0  0  0  0  0  0  0  0  0  0  0
   -9.4820   -9.1890   10.9370 C   0  0  0  0  0  3  0  0  0  0  0  0
   -8.3520   -8.9830   11.7430 C   0  0  0  0  0  3  0  0  0  0  0  0
   -7.0760   -9.3550   11.3090 C   0  0  0  0  0  0  0  0  0  0  0  0
   -6.9800   -9.9550   10.0490 C   0  0  0  0  0  3  0  0  0  0  0  0
   -8.1130  -10.1610    9.2470 C   0  0  0  0  0  3  0  0  0  0  0  0
  -13.4500   -9.4610    7.1250 C   0  0  0  0  0  1  0  0  0  0  0  0
  -12.3230   -8.7750    7.8900 C   0  0  2  0  0  0  0  0  0  0  0  0
  -10.9020   -9.2160    7.4590 C   0  0  0  0  0  2  0  0  0  0  0  0
  -10.7440  -10.0220    8.7810 C   0  0  2  0  0  0  0  0  0  0  0  0
  -12.0610   -9.3700    9.2940 C   0  0  0  0  0  2  0  0  0  0  0  0
  -10.9320  -11.4760    8.5330 N   0  0  0  0  0  4  0  0  0  0  0  0
  -10.1140  -11.8780    8.0550 H   0  0  0  0  0  0  0  0  0  0  0  0
  -11.0630  -11.9890    9.4150 H   0  0  0  0  0  0  0  0  0  0  0  0
  -11.7480  -11.6870    7.9470 H   0  0  0  0  0  0  0  0  0  0  0  0
  -12.5640   -7.3580    7.8520 O   0  0  0  0  0  0  0  0  0  0  0  0
  -11.8770   -6.9090    8.3750 H   0  0  0  0  0  0  0  0  0  0  0  0
   -0.9780   -7.3020   14.1140 C   0  0  0  0  0  3  0  0  0  0  0  0
   -0.9140   -7.4600   12.7630 F   0  0  0  0  0  0  0  0  0  0  0  0
   -1.8990   -6.3270   14.3440 F   0  0  0  0  0  0  0  0  0  0  0  0
  1  2  1  0  0  0  0
  2  3  2  0  0  0  0
  3  4  1  0  0  0  0
  4  5  2  0  0  0  0
  6  5  1  0  0  0  0
  6  7  2  0  0  0  0
  8  7  1  0  0  0  0
  9  8  2  0  0  0  0
 10  9  1  0  0  0  0
 10  6  1  0  0  0  0
 11  3  1  0  0  0  0
 11 10  1  0  0  0  0
 12 11  2  0  0  0  0
 13  1  2  0  0  0  0
 13 12  1  0  0  0  0
 14 19  1  0  0  0  0
 14 13  1  0  0  0  0
 15 14  2  0  0  0  0
 16 17  2  0  0  0  0
 16 15  1  0  0  0  0
 17 18  1  0  0  0  0
 18 19  2  0  0  0  0
 20 21  1  0  0  0  0
 21 22  2  0  0  0  0
 23 22  1  0  0  0  0
 23  1  1  0  0  0  0
 24 23  2  0  0  0  0
 25 20  2  0  0  0  0
 25 24  1  0  0  0  0
 27 26  1  6  0  0  0
 27 30  1  0  0  0  0
 28 27  1  0  0  0  0
 28 29  1  0  0  0  0
 29 31  1  6  0  0  0
 29 30  1  0  0  0  0
 29 20  1  0  0  0  0
 31 33  1  0  0  0  0
 32 31  1  0  0  0  0
 34 31  1  0  0  0  0
 35 27  1  0  0  0  0
 35 36  1  0  0  0  0
 37 39  1  0  0  0  0
 37  9  1  0  0  0  0
 38 37  1  0  0  0  0
M  END
>  <minimizedAffinity>
-5.87718058

$$$$
