
 OpenBabel11232420253D

 39 44  0  0  1  0  0  0  0  0999 V2000
   -7.6120   -8.6620   10.4850 C   0  0  0  0  0  0  0  0  0  0  0  0
   -7.3970   -7.3220   10.3860 N   0  0  0  0  0  0  0  0  0  0  0  0
   -6.3150   -6.8070   11.0060 C   0  0  0  0  0  0  0  0  0  0  0  0
   -6.1420   -5.3620   10.8700 C   0  0  0  0  0  3  0  0  0  0  0  0
   -5.1130   -4.7430   11.4640 C   0  0  0  0  0  3  0  0  0  0  0  0
   -4.1900   -5.4870   12.2370 C   0  0  0  0  0  0  0  0  0  0  0  0
   -3.1350   -5.0900   12.9080 N   0  0  0  0  0  0  0  0  0  0  0  0
   -2.5850   -6.1820   13.5120 N   0  0  0  0  0  0  0  0  0  0  0  0
   -3.3100   -7.2450   13.2060 C   0  0  0  0  0  0  0  0  0  0  0  0
   -4.3460   -6.8640   12.3710 N   0  0  0  0  0  0  0  0  0  0  0  0
   -5.4070   -7.5700   11.7420 C   0  0  0  0  0  0  0  0  0  0  0  0
   -5.6120   -8.9440   11.8000 C   0  0  0  0  0  3  0  0  0  0  0  0
   -6.7290   -9.5250   11.1630 C   0  0  0  0  0  0  0  0  0  0  0  0
   -6.9050  -10.9880   11.2180 C   0  0  0  0  0  0  0  0  0  0  0  0
   -7.4510  -11.6040   12.3550 C   0  0  0  0  0  3  0  0  0  0  0  0
   -7.6080  -12.9910   12.4130 C   0  0  0  0  0  3  0  0  0  0  0  0
   -7.2150  -13.7840   11.3370 C   0  0  0  0  0  3  0  0  0  0  0  0
   -6.6630  -13.1910   10.2040 C   0  0  0  0  0  3  0  0  0  0  0  0
   -6.5070  -11.8040   10.1460 C   0  0  0  0  0  3  0  0  0  0  0  0
  -11.3400  -10.0120    8.6520 C   0  0  0  0  0  0  0  0  0  0  0  0
  -11.1640   -9.9240   10.0520 C   0  0  0  0  0  3  0  0  0  0  0  0
   -9.9710   -9.4830   10.6430 C   0  0  0  0  0  3  0  0  0  0  0  0
   -8.8780   -9.0920    9.8640 C   0  0  0  0  0  0  0  0  0  0  0  0
   -9.0220   -9.1780    8.4750 C   0  0  0  0  0  3  0  0  0  0  0  0
  -10.2170   -9.6210    7.8880 C   0  0  0  0  0  3  0  0  0  0  0  0
  -15.4590  -10.6820    6.3270 C   0  0  0  0  0  1  0  0  0  0  0  0
  -14.2540   -9.7980    6.6320 C   0  0  2  0  0  0  0  0  0  0  0  0
  -12.8870  -10.5100    6.4760 C   0  0  0  0  0  2  0  0  0  0  0  0
  -12.7240  -10.5490    8.0240 C   0  0  2  0  0  0  0  0  0  0  0  0
  -13.9680   -9.6220    8.1430 C   0  0  0  0  0  2  0  0  0  0  0  0
  -13.0200  -11.9070    8.5480 N   0  0  0  0  0  4  0  0  0  0  0  0
  -12.2540  -12.5610    8.3350 H   0  0  0  0  0  0  0  0  0  0  0  0
  -13.1440  -11.8930    9.5690 H   0  0  0  0  0  0  0  0  0  0  0  0
  -13.8750  -12.3190    8.1550 H   0  0  0  0  0  0  0  0  0  0  0  0
  -14.4010   -8.5790    5.8830 O   0  0  0  0  0  0  0  0  0  0  0  0
  -13.6620   -7.9860    6.1030 H   0  0  0  0  0  0  0  0  0  0  0  0
   -3.0380   -8.5980   13.7250 C   0  0  0  0  0  3  0  0  0  0  0  0
   -1.7610   -8.7080   14.1850 F   0  0  0  0  0  0  0  0  0  0  0  0
   -3.8520   -8.9030   14.7720 F   0  0  0  0  0  0  0  0  0  0  0  0
  1 13  1  0  0  0  0
  2  1  2  0  0  0  0
  2  3  1  0  0  0  0
  3 11  2  0  0  0  0
  4  3  1  0  0  0  0
  4  5  2  0  0  0  0
  5  6  1  0  0  0  0
  6 10  1  0  0  0  0
  6  7  2  0  0  0  0
  7  8  1  0  0  0  0
  9  8  2  0  0  0  0
  9 37  1  0  0  0  0
 10  9  1  0  0  0  0
 11 12  1  0  0  0  0
 11 10  1  0  0  0  0
 13 14  1  0  0  0  0
 13 12  2  0  0  0  0
 14 15  1  0  0  0  0
 15 16  2  0  0  0  0
 17 16  1  0  0  0  0
 18 17  2  0  0  0  0
 19 18  1  0  0  0  0
 19 14  2  0  0  0  0
 20 21  1  0  0  0  0
 21 22  2  0  0  0  0
 23  1  1  0  0  0  0
 23 22  1  0  0  0  0
 24 23  2  0  0  0  0
 25 24  1  0  0  0  0
 25 20  2  0  0  0  0
 27 26  1  6  0  0  0
 27 30  1  0  0  0  0
 28 27  1  0  0  0  0
 28 29  1  0  0  0  0
 29 30  1  0  0  0  0
 29 31  1  1  0  0  0
 29 20  1  0  0  0  0
 31 33  1  0  0  0  0
 32 31  1  0  0  0  0
 34 31  1  0  0  0  0
 35 36  1  0  0  0  0
 35 27  1  0  0  0  0
 37 38  1  0  0  0  0
 37 39  1  0  0  0  0
M  END
>  <minimizedAffinity>
-4.90125608

$$$$
