
 OpenBabel11232420253D

 39 44  0  0  1  0  0  0  0  0999 V2000
   -7.2400  -11.9200    8.6660 C   0  0  0  0  0  0  0  0  0  0  0  0
   -6.4560  -12.1110    7.5700 N   0  0  0  0  0  0  0  0  0  0  0  0
   -6.5320  -13.3020    6.9390 C   0  0  0  0  0  0  0  0  0  0  0  0
   -5.6610  -13.4500    5.7740 C   0  0  0  0  0  3  0  0  0  0  0  0
   -5.6400  -14.5990    5.0850 C   0  0  0  0  0  3  0  0  0  0  0  0
   -6.4570  -15.6820    5.4890 C   0  0  0  0  0  0  0  0  0  0  0  0
   -6.5810  -16.8840    4.9780 N   0  0  0  0  0  0  0  0  0  0  0  0
   -7.4780  -17.5730    5.7400 N   0  0  0  0  0  0  0  0  0  0  0  0
   -7.8970  -16.7870    6.7170 C   0  0  0  0  0  0  0  0  0  0  0  0
   -7.2910  -15.5480    6.5960 N   0  0  0  0  0  0  0  0  0  0  0  0
   -7.3660  -14.3440    7.3450 C   0  0  0  0  0  0  0  0  0  0  0  0
   -8.1950  -14.1200    8.4400 C   0  0  0  0  0  3  0  0  0  0  0  0
   -8.1510  -12.8900    9.1270 C   0  0  0  0  0  0  0  0  0  0  0  0
   -9.0620  -12.6720   10.2660 C   0  0  0  0  0  0  0  0  0  0  0  0
   -8.7400  -13.1530   11.5460 C   0  0  0  0  0  3  0  0  0  0  0  0
   -9.6070  -12.9580   12.6240 C   0  0  0  0  0  3  0  0  0  0  0  0
  -10.8120  -12.2840   12.4370 C   0  0  0  0  0  3  0  0  0  0  0  0
  -11.1520  -11.8070   11.1740 C   0  0  0  0  0  3  0  0  0  0  0  0
  -10.2840  -12.0020   10.0960 C   0  0  0  0  0  3  0  0  0  0  0  0
   -6.5650   -8.1140   10.7010 C   0  0  0  0  0  0  0  0  0  0  0  0
   -5.9700   -9.3250   11.1250 C   0  0  0  0  0  3  0  0  0  0  0  0
   -6.1780  -10.5470   10.4690 C   0  0  0  0  0  3  0  0  0  0  0  0
   -6.9920  -10.6300    9.3350 C   0  0  0  0  0  0  0  0  0  0  0  0
   -7.6010   -9.4480    8.8990 C   0  0  0  0  0  3  0  0  0  0  0  0
   -7.3900   -8.2280    9.5600 C   0  0  0  0  0  3  0  0  0  0  0  0
   -4.8240   -4.3230   13.0280 C   0  0  0  0  0  1  0  0  0  0  0  0
   -4.5780   -5.6290   12.2790 C   0  0  2  0  0  0  0  0  0  0  0  0
   -5.2970   -5.7220   10.9100 C   0  0  0  0  0  2  0  0  0  0  0  0
   -6.3110   -6.7410   11.5060 C   0  0  2  0  0  0  0  0  0  0  0  0
   -5.4300   -6.8170   12.7860 C   0  0  0  0  0  2  0  0  0  0  0  0
   -7.6110   -6.0800   11.7930 N   0  0  0  0  0  4  0  0  0  0  0  0
   -8.1310   -5.8940   10.9240 H   0  0  0  0  0  0  0  0  0  0  0  0
   -8.2030   -6.6690   12.3930 H   0  0  0  0  0  0  0  0  0  0  0  0
   -7.5120   -5.1780   12.2740 H   0  0  0  0  0  0  0  0  0  0  0  0
   -3.1580   -5.8550   12.2430 O   0  0  0  0  0  0  0  0  0  0  0  0
   -2.9880   -6.7080   11.8080 H   0  0  0  0  0  0  0  0  0  0  0  0
   -8.8390  -17.2170    7.7660 C   0  0  0  0  0  3  0  0  0  0  0  0
   -8.2950  -17.0900    9.0080 F   0  0  0  0  0  0  0  0  0  0  0  0
   -9.9700  -16.4600    7.7620 F   0  0  0  0  0  0  0  0  0  0  0  0
  1 13  1  0  0  0  0
  1 23  1  0  0  0  0
  2  1  2  0  0  0  0
  3 11  2  0  0  0  0
  3  2  1  0  0  0  0
  4  3  1  0  0  0  0
  5  6  1  0  0  0  0
  5  4  2  0  0  0  0
  6 10  1  0  0  0  0
  7  6  2  0  0  0  0
  7  8  1  0  0  0  0
  8  9  2  0  0  0  0
  9 37  1  0  0  0  0
 10  9  1  0  0  0  0
 10 11  1  0  0  0  0
 11 12  1  0  0  0  0
 12 13  2  0  0  0  0
 13 14  1  0  0  0  0
 14 15  1  0  0  0  0
 15 16  2  0  0  0  0
 17 16  1  0  0  0  0
 18 17  2  0  0  0  0
 19 14  2  0  0  0  0
 19 18  1  0  0  0  0
 20 21  1  0  0  0  0
 20 29  1  0  0  0  0
 22 21  2  0  0  0  0
 23 22  1  0  0  0  0
 24 23  2  0  0  0  0
 24 25  1  0  0  0  0
 25 20  2  0  0  0  0
 27 30  1  0  0  0  0
 27 26  1  1  0  0  0
 28 29  1  0  0  0  0
 28 27  1  0  0  0  0
 29 31  1  1  0  0  0
 29 30  1  0  0  0  0
 31 34  1  0  0  0  0
 31 33  1  0  0  0  0
 32 31  1  0  0  0  0
 35 27  1  0  0  0  0
 36 35  1  0  0  0  0
 37 38  1  0  0  0  0
 39 37  1  0  0  0  0
M  END
>  <minimizedAffinity>
-5.3822794

$$$$
