
 OpenBabel11232420253D

 39 44  0  0  1  0  0  0  0  0999 V2000
   -5.8930   -9.1700   12.1700 C   0  0  0  0  0  0  0  0  0  0  0  0
   -5.6740  -10.2190   13.0080 N   0  0  0  0  0  0  0  0  0  0  0  0
   -4.5610  -10.1970   13.7720 C   0  0  0  0  0  0  0  0  0  0  0  0
   -4.3770  -11.3550   14.6450 C   0  0  0  0  0  3  0  0  0  0  0  0
   -3.2950  -11.4460   15.4300 C   0  0  0  0  0  3  0  0  0  0  0  0
   -2.3170  -10.4240   15.4100 C   0  0  0  0  0  0  0  0  0  0  0  0
   -1.1910  -10.3180   16.0740 N   0  0  0  0  0  0  0  0  0  0  0  0
   -0.5840   -9.1590   15.6900 N   0  0  0  0  0  0  0  0  0  0  0  0
   -1.3450   -8.5600   14.7890 C   0  0  0  0  0  0  0  0  0  0  0  0
   -2.4850   -9.3170   14.5820 N   0  0  0  0  0  0  0  0  0  0  0  0
   -3.6250   -9.1620   13.7490 C   0  0  0  0  0  0  0  0  0  0  0  0
   -3.8830   -8.0740   12.9210 C   0  0  0  0  0  3  0  0  0  0  0  0
   -5.0360   -8.0540   12.1090 C   0  0  0  0  0  0  0  0  0  0  0  0
   -5.2960   -6.8750   11.2630 C   0  0  0  0  0  0  0  0  0  0  0  0
   -5.1250   -6.9380    9.8700 C   0  0  0  0  0  3  0  0  0  0  0  0
   -5.3610   -5.8180    9.0680 C   0  0  0  0  0  3  0  0  0  0  0  0
   -5.7640   -4.6170    9.6470 C   0  0  0  0  0  3  0  0  0  0  0  0
   -5.9300   -4.5330   11.0270 C   0  0  0  0  0  3  0  0  0  0  0  0
   -5.6960   -5.6530   11.8290 C   0  0  0  0  0  3  0  0  0  0  0  0
   -9.4130   -9.7860    9.6570 C   0  0  0  0  0  0  0  0  0  0  0  0
   -9.4820   -9.1890   10.9370 C   0  0  0  0  0  3  0  0  0  0  0  0
   -8.3520   -8.9830   11.7430 C   0  0  0  0  0  3  0  0  0  0  0  0
   -7.0760   -9.3550   11.3090 C   0  0  0  0  0  0  0  0  0  0  0  0
   -6.9800   -9.9550   10.0490 C   0  0  0  0  0  3  0  0  0  0  0  0
   -8.1130  -10.1610    9.2470 C   0  0  0  0  0  3  0  0  0  0  0  0
  -13.4500   -9.4610    7.1250 C   0  0  0  0  0  1  0  0  0  0  0  0
  -12.3230   -8.7750    7.8900 C   0  0  2  0  0  0  0  0  0  0  0  0
  -10.9020   -9.2160    7.4590 C   0  0  0  0  0  2  0  0  0  0  0  0
  -10.7440  -10.0220    8.7810 C   0  0  2  0  0  0  0  0  0  0  0  0
  -12.0610   -9.3700    9.2940 C   0  0  0  0  0  2  0  0  0  0  0  0
  -10.9320  -11.4760    8.5330 N   0  0  0  0  0  4  0  0  0  0  0  0
  -10.1140  -11.8780    8.0550 H   0  0  0  0  0  0  0  0  0  0  0  0
  -11.0630  -11.9890    9.4150 H   0  0  0  0  0  0  0  0  0  0  0  0
  -11.7480  -11.6870    7.9470 H   0  0  0  0  0  0  0  0  0  0  0  0
  -12.5640   -7.3580    7.8520 O   0  0  0  0  0  0  0  0  0  0  0  0
  -11.8770   -6.9090    8.3750 H   0  0  0  0  0  0  0  0  0  0  0  0
   -0.9780   -7.3020   14.1140 C   0  0  0  0  0  3  0  0  0  0  0  0
   -0.9140   -7.4600   12.7630 F   0  0  0  0  0  0  0  0  0  0  0  0
   -1.8990   -6.3270   14.3440 F   0  0  0  0  0  0  0  0  0  0  0  0
  1  2  1  0  0  0  0
  2  3  2  0  0  0  0
  3  4  1  0  0  0  0
  4  5  2  0  0  0  0
  6  5  1  0  0  0  0
  6  7  2  0  0  0  0
  8  7  1  0  0  0  0
  9  8  2  0  0  0  0
 10  9  1  0  0  0  0
 10  6  1  0  0  0  0
 11  3  1  0  0  0  0
 11 10  1  0  0  0  0
 12 11  2  0  0  0  0
 13  1  2  0  0  0  0
 13 12  1  0  0  0  0
 14 19  1  0  0  0  0
 14 13  1  0  0  0  0
 15 14  2  0  0  0  0
 16 17  2  0  0  0  0
 16 15  1  0  0  0  0
 17 18  1  0  0  0  0
 18 19  2  0  0  0  0
 20 21  1  0  0  0  0
 21 22  2  0  0  0  0
 23 22  1  0  0  0  0
 23  1  1  0  0  0  0
 24 23  2  0  0  0  0
 25 20  2  0  0  0  0
 25 24  1  0  0  0  0
 27 26  1  6  0  0  0
 27 30  1  0  0  0  0
 28 27  1  0  0  0  0
 28 29  1  0  0  0  0
 29 31  1  6  0  0  0
 29 30  1  0  0  0  0
 29 20  1  0  0  0  0
 31 33  1  0  0  0  0
 32 31  1  0  0  0  0
 34 31  1  0  0  0  0
 35 27  1  0  0  0  0
 35 36  1  0  0  0  0
 37 39  1  0  0  0  0
 37  9  1  0  0  0  0
 38 37  1  0  0  0  0
M  END
>  <minimizedAffinity>
-5.87718058

$$$$

 OpenBabel11232420253D

 39 44  0  0  1  0  0  0  0  0999 V2000
   -7.9430   -8.6120   10.6270 C   0  0  0  0  0  0  0  0  0  0  0  0
   -8.2420   -7.3780   11.1130 N   0  0  0  0  0  0  0  0  0  0  0  0
   -7.2600   -6.6860   11.7290 C   0  0  0  0  0  0  0  0  0  0  0  0
   -7.6440   -5.3700   12.2370 C   0  0  0  0  0  3  0  0  0  0  0  0
   -6.7530   -4.6070   12.8850 C   0  0  0  0  0  3  0  0  0  0  0  0
   -5.4340   -5.0770   13.0900 C   0  0  0  0  0  0  0  0  0  0  0  0
   -4.4200   -4.5120   13.7010 N   0  0  0  0  0  0  0  0  0  0  0  0
   -3.3670   -5.3770   13.6550 N   0  0  0  0  0  0  0  0  0  0  0  0
   -3.7440   -6.4710   13.0140 C   0  0  0  0  0  0  0  0  0  0  0  0
   -5.0600   -6.3290   12.6080 N   0  0  0  0  0  0  0  0  0  0  0  0
   -5.9600   -7.1650   11.8950 C   0  0  0  0  0  0  0  0  0  0  0  0
   -5.6550   -8.4100   11.3540 C   0  0  0  0  0  3  0  0  0  0  0  0
   -6.6490   -9.1660   10.7000 C   0  0  0  0  0  0  0  0  0  0  0  0
   -6.2890  -10.4690   10.1120 C   0  0  0  0  0  0  0  0  0  0  0  0
   -5.6770  -10.5440    8.8500 C   0  0  0  0  0  3  0  0  0  0  0  0
   -5.3450  -11.7790    8.2870 C   0  0  0  0  0  3  0  0  0  0  0  0
   -5.6270  -12.9580    8.9740 C   0  0  0  0  0  3  0  0  0  0  0  0
   -6.2410  -12.9040   10.2230 C   0  0  0  0  0  3  0  0  0  0  0  0
   -6.5720  -11.6680   10.7870 C   0  0  0  0  0  3  0  0  0  0  0  0
  -11.4570  -10.6300    8.9950 C   0  0  0  0  0  0  0  0  0  0  0  0
  -10.5140   -9.9590    8.1830 C   0  0  0  0  0  3  0  0  0  0  0  0
   -9.3810   -9.3170    8.7030 C   0  0  0  0  0  3  0  0  0  0  0  0
   -9.1160   -9.3170   10.0760 C   0  0  0  0  0  0  0  0  0  0  0  0
  -10.0370   -9.9660   10.9040 C   0  0  0  0  0  3  0  0  0  0  0  0
  -11.1700  -10.6060   10.3790 C   0  0  0  0  0  3  0  0  0  0  0  0
  -14.7610  -12.6590    6.2060 C   0  0  0  0  0  1  0  0  0  0  0  0
  -13.3700  -12.0550    6.3640 C   0  0  2  0  0  0  0  0  0  0  0  0
  -12.5500  -12.6440    7.5390 C   0  0  0  0  0  2  0  0  0  0  0  0
  -12.7560  -11.3310    8.3480 C   0  0  2  0  0  0  0  0  0  0  0  0
  -13.3570  -10.6780    7.0700 C   0  0  0  0  0  2  0  0  0  0  0  0
  -13.7990  -11.5160    9.3910 N   0  0  0  0  0  4  0  0  0  0  0  0
  -13.4410  -12.0800   10.1750 H   0  0  0  0  0  0  0  0  0  0  0  0
  -14.1080  -10.6130    9.7720 H   0  0  0  0  0  0  0  0  0  0  0  0
  -14.6400  -11.9940    9.0460 H   0  0  0  0  0  0  0  0  0  0  0  0
  -12.7220  -12.1000    5.0800 O   0  0  0  0  0  0  0  0  0  0  0  0
  -11.8500  -11.6750    5.1550 H   0  0  0  0  0  0  0  0  0  0  0  0
   -2.8740   -7.6450   12.8180 C   0  0  0  0  0  3  0  0  0  0  0  0
   -1.5680   -7.3430   13.0530 F   0  0  0  0  0  0  0  0  0  0  0  0
   -3.1970   -8.6530   13.6730 F   0  0  0  0  0  0  0  0  0  0  0  0
  1 13  2  0  0  0  0
  1  2  1  0  0  0  0
  2  3  2  0  0  0  0
  3 11  1  0  0  0  0
  3  4  1  0  0  0  0
  4  5  2  0  0  0  0
  5  6  1  0  0  0  0
  6  7  2  0  0  0  0
  8  7  1  0  0  0  0
  9  8  2  0  0  0  0
 10  9  1  0  0  0  0
 10  6  1  0  0  0  0
 11 10  1  0  0  0  0
 12 11  2  0  0  0  0
 13 12  1  0  0  0  0
 14 13  1  0  0  0  0
 14 19  1  0  0  0  0
 15 14  2  0  0  0  0
 16 15  1  0  0  0  0
 16 17  2  0  0  0  0
 17 18  1  0  0  0  0
 18 19  2  0  0  0  0
 20 25  1  0  0  0  0
 21 22  1  0  0  0  0
 21 20  2  0  0  0  0
 22 23  2  0  0  0  0
 23  1  1  0  0  0  0
 23 24  1  0  0  0  0
 25 24  2  0  0  0  0
 27 26  1  6  0  0  0
 27 30  1  0  0  0  0
 27 28  1  0  0  0  0
 28 29  1  0  0  0  0
 29 20  1  0  0  0  0
 29 31  1  1  0  0  0
 30 29  1  0  0  0  0
 31 33  1  0  0  0  0
 31 32  1  0  0  0  0
 34 31  1  0  0  0  0
 35 36  1  0  0  0  0
 35 27  1  0  0  0  0
 37  9  1  0  0  0  0
 37 38  1  0  0  0  0
 37 39  1  0  0  0  0
M  END
>  <minimizedAffinity>
-5.73069048

$$$$

 OpenBabel11232420253D

 39 44  0  0  1  0  0  0  0  0999 V2000
   -7.0360  -10.6040    9.3110 C   0  0  0  0  0  0  0  0  0  0  0  0
   -6.2280  -11.0790    8.3250 N   0  0  0  0  0  0  0  0  0  0  0  0
   -6.5410  -12.2690    7.7700 C   0  0  0  0  0  0  0  0  0  0  0  0
   -5.6310  -12.7310    6.7230 C   0  0  0  0  0  3  0  0  0  0  0  0
   -5.8350  -13.9090    6.1190 C   0  0  0  0  0  3  0  0  0  0  0  0
   -6.9300  -14.7210    6.5010 C   0  0  0  0  0  0  0  0  0  0  0  0
   -7.3040  -15.8990    6.0610 N   0  0  0  0  0  0  0  0  0  0  0  0
   -8.4100  -16.2780    6.7620 N   0  0  0  0  0  0  0  0  0  0  0  0
   -8.7070  -15.3260    7.6310 C   0  0  0  0  0  0  0  0  0  0  0  0
   -7.8020  -14.2880    7.4970 N   0  0  0  0  0  0  0  0  0  0  0  0
   -7.6430  -13.0370    8.1500 C   0  0  0  0  0  0  0  0  0  0  0  0
   -8.4860  -12.5190    9.1270 C   0  0  0  0  0  3  0  0  0  0  0  0
   -8.1990  -11.2780    9.7320 C   0  0  0  0  0  0  0  0  0  0  0  0
   -9.1270  -10.7420   10.7450 C   0  0  0  0  0  0  0  0  0  0  0  0
  -10.1310   -9.8280   10.3880 C   0  0  0  0  0  3  0  0  0  0  0  0
  -11.0040   -9.3100   11.3480 C   0  0  0  0  0  3  0  0  0  0  0  0
  -10.8810   -9.6940   12.6820 C   0  0  0  0  0  3  0  0  0  0  0  0
   -9.8860  -10.5930   13.0560 C   0  0  0  0  0  3  0  0  0  0  0  0
   -9.0140  -11.1120   12.0960 C   0  0  0  0  0  3  0  0  0  0  0  0
   -5.6200   -6.9040   11.1520 C   0  0  0  0  0  0  0  0  0  0  0  0
   -5.3490   -8.1810   11.6950 C   0  0  0  0  0  3  0  0  0  0  0  0
   -5.7950   -9.3720   11.1010 C   0  0  0  0  0  3  0  0  0  0  0  0
   -6.5370   -9.3550    9.9170 C   0  0  0  0  0  0  0  0  0  0  0  0
   -6.8270   -8.1040    9.3620 C   0  0  0  0  0  3  0  0  0  0  0  0
   -6.3790   -6.9160    9.9600 C   0  0  0  0  0  3  0  0  0  0  0  0
   -3.8040   -3.5910   14.0740 C   0  0  0  0  0  1  0  0  0  0  0  0
   -4.0920   -5.0580   13.7730 C   0  0  2  0  0  0  0  0  0  0  0  0
   -3.6250   -5.5230   12.3710 C   0  0  0  0  0  2  0  0  0  0  0  0
   -5.1040   -5.5660   11.8870 C   0  0  2  0  0  0  0  0  0  0  0  0
   -5.5560   -5.3410   13.3590 C   0  0  0  0  0  2  0  0  0  0  0  0
   -5.4150   -4.3800   11.0480 N   0  0  0  0  0  4  0  0  0  0  0  0
   -4.9860   -4.4640   10.1150 H   0  0  0  0  0  0  0  0  0  0  0  0
   -6.4290   -4.2730   10.9170 H   0  0  0  0  0  0  0  0  0  0  0  0
   -5.0760   -3.4970   11.4480 H   0  0  0  0  0  0  0  0  0  0  0  0
   -3.5970   -5.8390   14.8760 O   0  0  0  0  0  0  0  0  0  0  0  0
   -3.8150   -6.7740   14.7190 H   0  0  0  0  0  0  0  0  0  0  0  0
   -9.8190  -15.4170    8.5950 C   0  0  0  0  0  3  0  0  0  0  0  0
  -10.6740  -16.4280    8.2770 F   0  0  0  0  0  0  0  0  0  0  0  0
   -9.3680  -15.6760    9.8530 F   0  0  0  0  0  0  0  0  0  0  0  0
  1 13  1  0  0  0  0
  1 23  1  0  0  0  0
  2  1  2  0  0  0  0
  3 11  2  0  0  0  0
  3  2  1  0  0  0  0
  4  3  1  0  0  0  0
  5  6  1  0  0  0  0
  5  4  2  0  0  0  0
  6 10  1  0  0  0  0
  7  6  2  0  0  0  0
  7  8  1  0  0  0  0
  8  9  2  0  0  0  0
  9 37  1  0  0  0  0
 10  9  1  0  0  0  0
 10 11  1  0  0  0  0
 11 12  1  0  0  0  0
 12 13  2  0  0  0  0
 13 14  1  0  0  0  0
 14 19  1  0  0  0  0
 15 14  2  0  0  0  0
 15 16  1  0  0  0  0
 16 17  2  0  0  0  0
 17 18  1  0  0  0  0
 19 18  2  0  0  0  0
 20 21  1  0  0  0  0
 20 29  1  0  0  0  0
 22 21  2  0  0  0  0
 23 22  1  0  0  0  0
 24 23  2  0  0  0  0
 24 25  1  0  0  0  0
 25 20  2  0  0  0  0
 27 26  1  1  0  0  0
 27 35  1  0  0  0  0
 28 27  1  0  0  0  0
 29 31  1  6  0  0  0
 29 28  1  0  0  0  0
 29 30  1  0  0  0  0
 30 27  1  0  0  0  0
 31 34  1  0  0  0  0
 32 31  1  0  0  0  0
 33 31  1  0  0  0  0
 36 35  1  0  0  0  0
 37 39  1  0  0  0  0
 38 37  1  0  0  0  0
M  END
>  <minimizedAffinity>
-5.46511412

$$$$

 OpenBabel11232420253D

 39 44  0  0  1  0  0  0  0  0999 V2000
   -6.6160  -10.0570    9.7810 C   0  0  0  0  0  0  0  0  0  0  0  0
   -6.3200   -9.0560    8.9100 N   0  0  0  0  0  0  0  0  0  0  0  0
   -6.1450   -7.8140    9.4100 C   0  0  0  0  0  0  0  0  0  0  0  0
   -5.8360   -6.7790    8.4240 C   0  0  0  0  0  3  0  0  0  0  0  0
   -5.6650   -5.5070    8.8080 C   0  0  0  0  0  3  0  0  0  0  0  0
   -5.7920   -5.1560   10.1740 C   0  0  0  0  0  0  0  0  0  0  0  0
   -5.6830   -3.9880   10.7600 N   0  0  0  0  0  0  0  0  0  0  0  0
   -5.9170   -4.1620   12.0910 N   0  0  0  0  0  0  0  0  0  0  0  0
   -6.1710   -5.4420   12.3130 C   0  0  0  0  0  0  0  0  0  0  0  0
   -6.0850   -6.1360   11.1190 N   0  0  0  0  0  0  0  0  0  0  0  0
   -6.2530   -7.5010   10.7660 C   0  0  0  0  0  0  0  0  0  0  0  0
   -6.5120   -8.5420   11.6520 C   0  0  0  0  0  3  0  0  0  0  0  0
   -6.6980   -9.8550   11.1730 C   0  0  0  0  0  0  0  0  0  0  0  0
   -6.9440  -10.9420   12.1390 C   0  0  0  0  0  0  0  0  0  0  0  0
   -8.2190  -11.1340   12.6950 C   0  0  0  0  0  3  0  0  0  0  0  0
   -8.4520  -12.1560   13.6190 C   0  0  0  0  0  3  0  0  0  0  0  0
   -7.4110  -12.9970   14.0060 C   0  0  0  0  0  3  0  0  0  0  0  0
   -6.1380  -12.8170   13.4710 C   0  0  0  0  0  3  0  0  0  0  0  0
   -5.9050  -11.7950   12.5470 C   0  0  0  0  0  3  0  0  0  0  0  0
   -7.4270  -13.9010    7.8700 C   0  0  0  0  0  0  0  0  0  0  0  0
   -8.4310  -13.1370    8.5070 C   0  0  0  0  0  3  0  0  0  0  0  0
   -8.1760  -11.8980    9.1150 C   0  0  0  0  0  3  0  0  0  0  0  0
   -6.8930  -11.3430    9.1130 C   0  0  0  0  0  0  0  0  0  0  0  0
   -5.8780  -12.0820    8.4970 C   0  0  0  0  0  3  0  0  0  0  0  0
   -6.1380  -13.3210    7.8920 C   0  0  0  0  0  3  0  0  0  0  0  0
   -9.1030  -17.5890    5.3390 C   0  0  0  0  0  1  0  0  0  0  0  0
   -9.0960  -16.0910    5.6270 C   0  0  2  0  0  0  0  0  0  0  0  0
   -7.6830  -15.4570    5.6600 C   0  0  0  0  0  2  0  0  0  0  0  0
   -7.7700  -15.3300    7.2080 C   0  0  2  0  0  0  0  0  0  0  0  0
   -9.2690  -15.7360    7.1230 C   0  0  0  0  0  2  0  0  0  0  0  0
   -6.9680  -16.3940    7.8670 N   0  0  0  0  0  4  0  0  0  0  0  0
   -5.9600  -16.1980    7.7910 H   0  0  0  0  0  0  0  0  0  0  0  0
   -7.1980  -16.4680    8.8670 H   0  0  0  0  0  0  0  0  0  0  0  0
   -7.1160  -17.3260    7.4620 H   0  0  0  0  0  0  0  0  0  0  0  0
  -10.0290  -15.4650    4.7290 O   0  0  0  0  0  0  0  0  0  0  0  0
  -10.0690  -14.5140    4.9310 H   0  0  0  0  0  0  0  0  0  0  0  0
   -6.5180   -5.9890   13.6370 C   0  0  0  0  0  3  0  0  0  0  0  0
   -5.4640   -6.6450   14.1980 F   0  0  0  0  0  0  0  0  0  0  0  0
   -6.8660   -5.0040   14.5080 F   0  0  0  0  0  0  0  0  0  0  0  0
  1 13  1  0  0  0  0
  2  3  1  0  0  0  0
  2  1  2  0  0  0  0
  3 11  2  0  0  0  0
  4  5  2  0  0  0  0
  4  3  1  0  0  0  0
  5  6  1  0  0  0  0
  6  7  2  0  0  0  0
  6 10  1  0  0  0  0
  7  8  1  0  0  0  0
  8  9  2  0  0  0  0
  9 37  1  0  0  0  0
 10  9  1  0  0  0  0
 11 10  1  0  0  0  0
 11 12  1  0  0  0  0
 13 12  2  0  0  0  0
 13 14  1  0  0  0  0
 14 19  2  0  0  0  0
 14 15  1  0  0  0  0
 15 16  2  0  0  0  0
 16 17  1  0  0  0  0
 18 17  2  0  0  0  0
 19 18  1  0  0  0  0
 20 25  2  0  0  0  0
 20 21  1  0  0  0  0
 21 22  2  0  0  0  0
 23 22  1  0  0  0  0
 23  1  1  0  0  0  0
 24 23  2  0  0  0  0
 25 24  1  0  0  0  0
 27 26  1  6  0  0  0
 27 28  1  0  0  0  0
 27 30  1  0  0  0  0
 28 29  1  0  0  0  0
 29 31  1  1  0  0  0
 29 20  1  0  0  0  0
 30 29  1  0  0  0  0
 31 33  1  0  0  0  0
 32 31  1  0  0  0  0
 34 31  1  0  0  0  0
 35 36  1  0  0  0  0
 35 27  1  0  0  0  0
 37 38  1  0  0  0  0
 37 39  1  0  0  0  0
M  END
>  <minimizedAffinity>
-5.39497471

$$$$

 OpenBabel11232420253D

 39 44  0  0  1  0  0  0  0  0999 V2000
   -7.2400  -11.9200    8.6660 C   0  0  0  0  0  0  0  0  0  0  0  0
   -6.4560  -12.1110    7.5700 N   0  0  0  0  0  0  0  0  0  0  0  0
   -6.5320  -13.3020    6.9390 C   0  0  0  0  0  0  0  0  0  0  0  0
   -5.6610  -13.4500    5.7740 C   0  0  0  0  0  3  0  0  0  0  0  0
   -5.6400  -14.5990    5.0850 C   0  0  0  0  0  3  0  0  0  0  0  0
   -6.4570  -15.6820    5.4890 C   0  0  0  0  0  0  0  0  0  0  0  0
   -6.5810  -16.8840    4.9780 N   0  0  0  0  0  0  0  0  0  0  0  0
   -7.4780  -17.5730    5.7400 N   0  0  0  0  0  0  0  0  0  0  0  0
   -7.8970  -16.7870    6.7170 C   0  0  0  0  0  0  0  0  0  0  0  0
   -7.2910  -15.5480    6.5960 N   0  0  0  0  0  0  0  0  0  0  0  0
   -7.3660  -14.3440    7.3450 C   0  0  0  0  0  0  0  0  0  0  0  0
   -8.1950  -14.1200    8.4400 C   0  0  0  0  0  3  0  0  0  0  0  0
   -8.1510  -12.8900    9.1270 C   0  0  0  0  0  0  0  0  0  0  0  0
   -9.0620  -12.6720   10.2660 C   0  0  0  0  0  0  0  0  0  0  0  0
   -8.7400  -13.1530   11.5460 C   0  0  0  0  0  3  0  0  0  0  0  0
   -9.6070  -12.9580   12.6240 C   0  0  0  0  0  3  0  0  0  0  0  0
  -10.8120  -12.2840   12.4370 C   0  0  0  0  0  3  0  0  0  0  0  0
  -11.1520  -11.8070   11.1740 C   0  0  0  0  0  3  0  0  0  0  0  0
  -10.2840  -12.0020   10.0960 C   0  0  0  0  0  3  0  0  0  0  0  0
   -6.5650   -8.1140   10.7010 C   0  0  0  0  0  0  0  0  0  0  0  0
   -5.9700   -9.3250   11.1250 C   0  0  0  0  0  3  0  0  0  0  0  0
   -6.1780  -10.5470   10.4690 C   0  0  0  0  0  3  0  0  0  0  0  0
   -6.9920  -10.6300    9.3350 C   0  0  0  0  0  0  0  0  0  0  0  0
   -7.6010   -9.4480    8.8990 C   0  0  0  0  0  3  0  0  0  0  0  0
   -7.3900   -8.2280    9.5600 C   0  0  0  0  0  3  0  0  0  0  0  0
   -4.8240   -4.3230   13.0280 C   0  0  0  0  0  1  0  0  0  0  0  0
   -4.5780   -5.6290   12.2790 C   0  0  2  0  0  0  0  0  0  0  0  0
   -5.2970   -5.7220   10.9100 C   0  0  0  0  0  2  0  0  0  0  0  0
   -6.3110   -6.7410   11.5060 C   0  0  2  0  0  0  0  0  0  0  0  0
   -5.4300   -6.8170   12.7860 C   0  0  0  0  0  2  0  0  0  0  0  0
   -7.6110   -6.0800   11.7930 N   0  0  0  0  0  4  0  0  0  0  0  0
   -8.1310   -5.8940   10.9240 H   0  0  0  0  0  0  0  0  0  0  0  0
   -8.2030   -6.6690   12.3930 H   0  0  0  0  0  0  0  0  0  0  0  0
   -7.5120   -5.1780   12.2740 H   0  0  0  0  0  0  0  0  0  0  0  0
   -3.1580   -5.8550   12.2430 O   0  0  0  0  0  0  0  0  0  0  0  0
   -2.9880   -6.7080   11.8080 H   0  0  0  0  0  0  0  0  0  0  0  0
   -8.8390  -17.2170    7.7660 C   0  0  0  0  0  3  0  0  0  0  0  0
   -8.2950  -17.0900    9.0080 F   0  0  0  0  0  0  0  0  0  0  0  0
   -9.9700  -16.4600    7.7620 F   0  0  0  0  0  0  0  0  0  0  0  0
  1 13  1  0  0  0  0
  1 23  1  0  0  0  0
  2  1  2  0  0  0  0
  3 11  2  0  0  0  0
  3  2  1  0  0  0  0
  4  3  1  0  0  0  0
  5  6  1  0  0  0  0
  5  4  2  0  0  0  0
  6 10  1  0  0  0  0
  7  6  2  0  0  0  0
  7  8  1  0  0  0  0
  8  9  2  0  0  0  0
  9 37  1  0  0  0  0
 10  9  1  0  0  0  0
 10 11  1  0  0  0  0
 11 12  1  0  0  0  0
 12 13  2  0  0  0  0
 13 14  1  0  0  0  0
 14 15  1  0  0  0  0
 15 16  2  0  0  0  0
 17 16  1  0  0  0  0
 18 17  2  0  0  0  0
 19 14  2  0  0  0  0
 19 18  1  0  0  0  0
 20 21  1  0  0  0  0
 20 29  1  0  0  0  0
 22 21  2  0  0  0  0
 23 22  1  0  0  0  0
 24 23  2  0  0  0  0
 24 25  1  0  0  0  0
 25 20  2  0  0  0  0
 27 30  1  0  0  0  0
 27 26  1  1  0  0  0
 28 29  1  0  0  0  0
 28 27  1  0  0  0  0
 29 31  1  1  0  0  0
 29 30  1  0  0  0  0
 31 34  1  0  0  0  0
 31 33  1  0  0  0  0
 32 31  1  0  0  0  0
 35 27  1  0  0  0  0
 36 35  1  0  0  0  0
 37 38  1  0  0  0  0
 39 37  1  0  0  0  0
M  END
>  <minimizedAffinity>
-5.3822794

$$$$

 OpenBabel11232420253D

 39 44  0  0  1  0  0  0  0  0999 V2000
   -6.3890   -9.5680   11.0750 C   0  0  0  0  0  0  0  0  0  0  0  0
   -5.6520  -10.0940   10.0590 N   0  0  0  0  0  0  0  0  0  0  0  0
   -6.1980  -11.0920    9.3330 C   0  0  0  0  0  0  0  0  0  0  0  0
   -5.3550  -11.6210    8.2610 C   0  0  0  0  0  3  0  0  0  0  0  0
   -5.7890  -12.6280    7.4930 C   0  0  0  0  0  3  0  0  0  0  0  0
   -7.0660  -13.1950    7.7210 C   0  0  0  0  0  0  0  0  0  0  0  0
   -7.6740  -14.1830    7.1090 N   0  0  0  0  0  0  0  0  0  0  0  0
   -8.8810  -14.3720    7.7150 N   0  0  0  0  0  0  0  0  0  0  0  0
   -9.0040  -13.4960    8.6980 C   0  0  0  0  0  0  0  0  0  0  0  0
   -7.8750  -12.6970    8.7390 N   0  0  0  0  0  0  0  0  0  0  0  0
   -7.4700  -11.6150    9.5660 C   0  0  0  0  0  0  0  0  0  0  0  0
   -8.2310  -11.0400   10.5790 C   0  0  0  0  0  3  0  0  0  0  0  0
   -7.7020   -9.9920   11.3600 C   0  0  0  0  0  0  0  0  0  0  0  0
   -8.5420   -9.3840   12.4070 C   0  0  0  0  0  0  0  0  0  0  0  0
   -8.6350   -9.9650   13.6820 C   0  0  0  0  0  3  0  0  0  0  0  0
   -9.4400   -9.3960   14.6730 C   0  0  0  0  0  3  0  0  0  0  0  0
  -10.1700   -8.2410   14.4010 C   0  0  0  0  0  3  0  0  0  0  0  0
  -10.0980   -7.6550   13.1390 C   0  0  0  0  0  3  0  0  0  0  0  0
   -9.2920   -8.2240   12.1490 C   0  0  0  0  0  3  0  0  0  0  0  0
   -4.2690   -6.5870   13.4620 C   0  0  0  0  0  0  0  0  0  0  0  0
   -4.2920   -7.9600   13.7980 C   0  0  0  0  0  3  0  0  0  0  0  0
   -4.9660   -8.9210   13.0290 C   0  0  0  0  0  3  0  0  0  0  0  0
   -5.6520   -8.5640   11.8650 C   0  0  0  0  0  0  0  0  0  0  0  0
   -5.6520   -7.2110   11.5130 C   0  0  0  0  0  3  0  0  0  0  0  0
   -4.9780   -6.2530   12.2870 C   0  0  0  0  0  3  0  0  0  0  0  0
   -1.7520   -4.2550   16.7850 C   0  0  0  0  0  1  0  0  0  0  0  0
   -2.2830   -5.5710   16.2260 C   0  0  2  0  0  0  0  0  0  0  0  0
   -2.0000   -5.7810   14.7180 C   0  0  0  0  0  2  0  0  0  0  0  0
   -3.5000   -5.5200   14.3940 C   0  0  2  0  0  0  0  0  0  0  0  0
   -3.8000   -5.5590   15.9200 C   0  0  0  0  0  2  0  0  0  0  0  0
   -3.6880   -4.1500   13.8490 N   0  0  0  0  0  4  0  0  0  0  0  0
   -3.3480   -4.0880   12.8790 H   0  0  0  0  0  0  0  0  0  0  0  0
   -4.6810   -3.8830   13.8500 H   0  0  0  0  0  0  0  0  0  0  0  0
   -3.1890   -3.4280   14.3820 H   0  0  0  0  0  0  0  0  0  0  0  0
   -1.8330   -6.6300   17.0890 O   0  0  0  0  0  0  0  0  0  0  0  0
   -2.2030   -7.4710   16.7700 H   0  0  0  0  0  0  0  0  0  0  0  0
  -10.1660  -13.4400    9.6040 C   0  0  0  0  0  3  0  0  0  0  0  0
  -11.0140  -12.4290    9.2660 F   0  0  0  0  0  0  0  0  0  0  0  0
  -10.8950  -14.5880    9.5500 F   0  0  0  0  0  0  0  0  0  0  0  0
  1 13  1  0  0  0  0
  1 23  1  0  0  0  0
  2  1  2  0  0  0  0
  3 11  2  0  0  0  0
  3  2  1  0  0  0  0
  4  3  1  0  0  0  0
  5  6  1  0  0  0  0
  5  4  2  0  0  0  0
  6 10  1  0  0  0  0
  7  8  1  0  0  0  0
  7  6  2  0  0  0  0
  8  9  2  0  0  0  0
  9 10  1  0  0  0  0
  9 37  1  0  0  0  0
 10 11  1  0  0  0  0
 11 12  1  0  0  0  0
 12 13  2  0  0  0  0
 13 14  1  0  0  0  0
 14 15  1  0  0  0  0
 15 16  2  0  0  0  0
 17 16  1  0  0  0  0
 18 17  2  0  0  0  0
 19 14  2  0  0  0  0
 19 18  1  0  0  0  0
 20 21  1  0  0  0  0
 20 29  1  0  0  0  0
 22 21  2  0  0  0  0
 23 22  1  0  0  0  0
 24 23  2  0  0  0  0
 24 25  1  0  0  0  0
 25 20  2  0  0  0  0
 27 26  1  1  0  0  0
 27 35  1  0  0  0  0
 28 27  1  0  0  0  0
 29 31  1  6  0  0  0
 29 28  1  0  0  0  0
 29 30  1  0  0  0  0
 30 27  1  0  0  0  0
 31 33  1  0  0  0  0
 31 34  1  0  0  0  0
 32 31  1  0  0  0  0
 36 35  1  0  0  0  0
 38 37  1  0  0  0  0
 39 37  1  0  0  0  0
M  END
>  <minimizedAffinity>
-5.25601149

$$$$

 OpenBabel11232420253D

 39 44  0  0  1  0  0  0  0  0999 V2000
   -7.9200  -10.6690   10.7040 C   0  0  0  0  0  0  0  0  0  0  0  0
   -8.2600  -11.9280   11.0920 N   0  0  0  0  0  0  0  0  0  0  0  0
   -7.9730  -12.9470   10.2550 C   0  0  0  0  0  0  0  0  0  0  0  0
   -8.3690  -14.2740   10.7240 C   0  0  0  0  0  3  0  0  0  0  0  0
   -8.1520  -15.3540    9.9620 C   0  0  0  0  0  3  0  0  0  0  0  0
   -7.5440  -15.2150    8.6910 C   0  0  0  0  0  0  0  0  0  0  0  0
   -7.2550  -16.1210    7.7880 N   0  0  0  0  0  0  0  0  0  0  0  0
   -6.6980  -15.4850    6.7180 N   0  0  0  0  0  0  0  0  0  0  0  0
   -6.6500  -14.1880    6.9740 C   0  0  0  0  0  0  0  0  0  0  0  0
   -7.1620  -13.9550    8.2380 N   0  0  0  0  0  0  0  0  0  0  0  0
   -7.3500  -12.7820    9.0170 C   0  0  0  0  0  0  0  0  0  0  0  0
   -6.9670  -11.4960    8.6510 C   0  0  0  0  0  3  0  0  0  0  0  0
   -7.2440  -10.4020    9.4970 C   0  0  0  0  0  0  0  0  0  0  0  0
   -6.8010   -9.0550    9.0960 C   0  0  0  0  0  0  0  0  0  0  0  0
   -5.4470   -8.6900    9.1730 C   0  0  0  0  0  3  0  0  0  0  0  0
   -5.0270   -7.4100    8.8030 C   0  0  0  0  0  3  0  0  0  0  0  0
   -5.9560   -6.4720    8.3580 C   0  0  0  0  0  3  0  0  0  0  0  0
   -7.3040   -6.8120    8.2830 C   0  0  0  0  0  3  0  0  0  0  0  0
   -7.7240   -8.0930    8.6510 C   0  0  0  0  0  3  0  0  0  0  0  0
   -9.2640   -7.5360   13.4350 C   0  0  0  0  0  0  0  0  0  0  0  0
  -10.0990   -8.0930   12.4390 C   0  0  0  0  0  3  0  0  0  0  0  0
   -9.6730   -9.1040   11.5660 C   0  0  0  0  0  3  0  0  0  0  0  0
   -8.3800   -9.6300   11.6440 C   0  0  0  0  0  0  0  0  0  0  0  0
   -7.5300   -9.0910   12.6150 C   0  0  0  0  0  3  0  0  0  0  0  0
   -7.9600   -8.0780   13.4860 C   0  0  0  0  0  3  0  0  0  0  0  0
   -9.9500   -3.5910   16.0390 C   0  0  0  0  0  1  0  0  0  0  0  0
   -9.0850   -4.3870   15.0670 C   0  0  2  0  0  0  0  0  0  0  0  0
   -9.8440   -4.9120   13.8240 C   0  0  0  0  0  2  0  0  0  0  0  0
   -9.7960   -6.3580   14.3970 C   0  0  2  0  0  0  0  0  0  0  0  0
   -8.8280   -5.8490   15.5050 C   0  0  0  0  0  2  0  0  0  0  0  0
  -11.1120   -6.7360   14.9750 N   0  0  0  0  0  4  0  0  0  0  0  0
  -11.8000   -6.9290   14.2330 H   0  0  0  0  0  0  0  0  0  0  0  0
  -11.0340   -7.5810   15.5560 H   0  0  0  0  0  0  0  0  0  0  0  0
  -11.5210   -6.0060   15.5700 H   0  0  0  0  0  0  0  0  0  0  0  0
   -7.9080   -3.6080   14.7860 O   0  0  0  0  0  0  0  0  0  0  0  0
   -7.3250   -4.1230   14.2020 H   0  0  0  0  0  0  0  0  0  0  0  0
   -6.1520  -13.1840    6.0170 C   0  0  0  0  0  3  0  0  0  0  0  0
   -4.8020  -13.2720    5.8580 F   0  0  0  0  0  0  0  0  0  0  0  0
   -6.6960  -13.3590    4.7820 F   0  0  0  0  0  0  0  0  0  0  0  0
  1  2  1  0  0  0  0
  1 23  1  0  0  0  0
  3  4  1  0  0  0  0
  3  2  2  0  0  0  0
  5  4  2  0  0  0  0
  6  5  1  0  0  0  0
  7  6  2  0  0  0  0
  8  9  2  0  0  0  0
  8  7  1  0  0  0  0
  9 10  1  0  0  0  0
 10  6  1  0  0  0  0
 10 11  1  0  0  0  0
 11  3  1  0  0  0  0
 12 11  2  0  0  0  0
 12 13  1  0  0  0  0
 13  1  2  0  0  0  0
 14 15  1  0  0  0  0
 14 13  1  0  0  0  0
 16 15  2  0  0  0  0
 17 16  1  0  0  0  0
 18 17  2  0  0  0  0
 18 19  1  0  0  0  0
 19 14  2  0  0  0  0
 20 25  1  0  0  0  0
 20 29  1  0  0  0  0
 21 20  2  0  0  0  0
 22 23  2  0  0  0  0
 22 21  1  0  0  0  0
 23 24  1  0  0  0  0
 24 25  2  0  0  0  0
 27 30  1  0  0  0  0
 27 26  1  1  0  0  0
 28 29  1  0  0  0  0
 28 27  1  0  0  0  0
 29 31  1  1  0  0  0
 29 30  1  0  0  0  0
 31 33  1  0  0  0  0
 31 34  1  0  0  0  0
 32 31  1  0  0  0  0
 35 27  1  0  0  0  0
 36 35  1  0  0  0  0
 37  9  1  0  0  0  0
 38 37  1  0  0  0  0
 39 37  1  0  0  0  0
M  END
>  <minimizedAffinity>
-5.06513786

$$$$

 OpenBabel11232420253D

 39 44  0  0  1  0  0  0  0  0999 V2000
   -7.7840  -11.4860   10.7350 C   0  0  0  0  0  0  0  0  0  0  0  0
   -7.8700  -11.0410   12.0170 N   0  0  0  0  0  0  0  0  0  0  0  0
   -7.1030  -11.6440   12.9490 C   0  0  0  0  0  0  0  0  0  0  0  0
   -7.2460  -11.1270   14.3100 C   0  0  0  0  0  3  0  0  0  0  0  0
   -6.5470  -11.6680   15.3170 C   0  0  0  0  0  3  0  0  0  0  0  0
   -5.6720  -12.7530   15.0700 C   0  0  0  0  0  0  0  0  0  0  0  0
   -4.9150  -13.4340   15.8970 N   0  0  0  0  0  0  0  0  0  0  0  0
   -4.2740  -14.4010   15.1800 N   0  0  0  0  0  0  0  0  0  0  0  0
   -4.6450  -14.3060   13.9140 C   0  0  0  0  0  0  0  0  0  0  0  0
   -5.5290  -13.2500   13.7770 N   0  0  0  0  0  0  0  0  0  0  0  0
   -6.2290  -12.6970   12.6720 C   0  0  0  0  0  0  0  0  0  0  0  0
   -6.1170  -13.1130   11.3500 C   0  0  0  0  0  3  0  0  0  0  0  0
   -6.8970  -12.5080   10.3430 C   0  0  0  0  0  0  0  0  0  0  0  0
   -6.7350  -12.9520    8.9460 C   0  0  0  0  0  0  0  0  0  0  0  0
   -7.4530  -14.0540    8.4550 C   0  0  0  0  0  3  0  0  0  0  0  0
   -7.2920  -14.4830    7.1350 C   0  0  0  0  0  3  0  0  0  0  0  0
   -6.4070  -13.8200    6.2880 C   0  0  0  0  0  3  0  0  0  0  0  0
   -5.6800  -12.7300    6.7600 C   0  0  0  0  0  3  0  0  0  0  0  0
   -5.8410  -12.3010    8.0800 C   0  0  0  0  0  3  0  0  0  0  0  0
  -10.6080   -9.5910    7.9930 C   0  0  0  0  0  0  0  0  0  0  0  0
  -10.9310  -10.7410    8.7500 C   0  0  0  0  0  3  0  0  0  0  0  0
  -10.0290  -11.3470    9.6370 C   0  0  0  0  0  3  0  0  0  0  0  0
   -8.7450  -10.8290    9.8290 C   0  0  0  0  0  0  0  0  0  0  0  0
   -8.3960   -9.6970    9.0860 C   0  0  0  0  0  3  0  0  0  0  0  0
   -9.3010   -9.0950    8.1980 C   0  0  0  0  0  3  0  0  0  0  0  0
  -13.3210   -6.7980    5.2270 C   0  0  0  0  0  1  0  0  0  0  0  0
  -12.1700   -6.9420    6.2180 C   0  0  2  0  0  0  0  0  0  0  0  0
  -11.1350   -8.0280    5.8360 C   0  0  0  0  0  2  0  0  0  0  0  0
  -11.6740   -8.9490    6.9690 C   0  0  2  0  0  0  0  0  0  0  0  0
  -12.5280   -7.7540    7.4850 C   0  0  0  0  0  2  0  0  0  0  0  0
  -12.5400  -10.0180    6.4080 N   0  0  0  0  0  4  0  0  0  0  0  0
  -11.9780  -10.7380    5.9330 H   0  0  0  0  0  0  0  0  0  0  0  0
  -13.0830  -10.4830    7.1480 H   0  0  0  0  0  0  0  0  0  0  0  0
  -13.2180   -9.6740    5.7190 H   0  0  0  0  0  0  0  0  0  0  0  0
  -11.6260   -5.6310    6.4550 O   0  0  0  0  0  0  0  0  0  0  0  0
  -10.9200   -5.7010    7.1200 H   0  0  0  0  0  0  0  0  0  0  0  0
   -4.1870  -15.2260   12.8570 C   0  0  0  0  0  3  0  0  0  0  0  0
   -5.2340  -15.8540   12.2540 F   0  0  0  0  0  0  0  0  0  0  0  0
   -3.5190  -14.5620   11.8740 F   0  0  0  0  0  0  0  0  0  0  0  0
  1  2  1  0  0  0  0
  2  3  2  0  0  0  0
  3  4  1  0  0  0  0
  4  5  2  0  0  0  0
  6  5  1  0  0  0  0
  6  7  2  0  0  0  0
  8  7  1  0  0  0  0
  9  8  2  0  0  0  0
 10  9  1  0  0  0  0
 10  6  1  0  0  0  0
 11  3  1  0  0  0  0
 11 10  1  0  0  0  0
 12 11  2  0  0  0  0
 13  1  2  0  0  0  0
 13 12  1  0  0  0  0
 14 13  1  0  0  0  0
 15 14  1  0  0  0  0
 16 15  2  0  0  0  0
 17 18  2  0  0  0  0
 17 16  1  0  0  0  0
 18 19  1  0  0  0  0
 19 14  2  0  0  0  0
 20 25  2  0  0  0  0
 20 21  1  0  0  0  0
 21 22  2  0  0  0  0
 22 23  1  0  0  0  0
 23  1  1  0  0  0  0
 24 23  2  0  0  0  0
 25 24  1  0  0  0  0
 27 26  1  6  0  0  0
 27 35  1  0  0  0  0
 27 30  1  0  0  0  0
 28 27  1  0  0  0  0
 28 29  1  0  0  0  0
 29 31  1  6  0  0  0
 29 30  1  0  0  0  0
 29 20  1  0  0  0  0
 31 33  1  0  0  0  0
 32 31  1  0  0  0  0
 34 31  1  0  0  0  0
 35 36  1  0  0  0  0
 37  9  1  0  0  0  0
 38 37  1  0  0  0  0
 39 37  1  0  0  0  0
M  END
>  <minimizedAffinity>
-5.06156301

$$$$

 OpenBabel11232420253D

 39 44  0  0  1  0  0  0  0  0999 V2000
   -7.6120   -8.6620   10.4850 C   0  0  0  0  0  0  0  0  0  0  0  0
   -7.3970   -7.3220   10.3860 N   0  0  0  0  0  0  0  0  0  0  0  0
   -6.3150   -6.8070   11.0060 C   0  0  0  0  0  0  0  0  0  0  0  0
   -6.1420   -5.3620   10.8700 C   0  0  0  0  0  3  0  0  0  0  0  0
   -5.1130   -4.7430   11.4640 C   0  0  0  0  0  3  0  0  0  0  0  0
   -4.1900   -5.4870   12.2370 C   0  0  0  0  0  0  0  0  0  0  0  0
   -3.1350   -5.0900   12.9080 N   0  0  0  0  0  0  0  0  0  0  0  0
   -2.5850   -6.1820   13.5120 N   0  0  0  0  0  0  0  0  0  0  0  0
   -3.3100   -7.2450   13.2060 C   0  0  0  0  0  0  0  0  0  0  0  0
   -4.3460   -6.8640   12.3710 N   0  0  0  0  0  0  0  0  0  0  0  0
   -5.4070   -7.5700   11.7420 C   0  0  0  0  0  0  0  0  0  0  0  0
   -5.6120   -8.9440   11.8000 C   0  0  0  0  0  3  0  0  0  0  0  0
   -6.7290   -9.5250   11.1630 C   0  0  0  0  0  0  0  0  0  0  0  0
   -6.9050  -10.9880   11.2180 C   0  0  0  0  0  0  0  0  0  0  0  0
   -7.4510  -11.6040   12.3550 C   0  0  0  0  0  3  0  0  0  0  0  0
   -7.6080  -12.9910   12.4130 C   0  0  0  0  0  3  0  0  0  0  0  0
   -7.2150  -13.7840   11.3370 C   0  0  0  0  0  3  0  0  0  0  0  0
   -6.6630  -13.1910   10.2040 C   0  0  0  0  0  3  0  0  0  0  0  0
   -6.5070  -11.8040   10.1460 C   0  0  0  0  0  3  0  0  0  0  0  0
  -11.3400  -10.0120    8.6520 C   0  0  0  0  0  0  0  0  0  0  0  0
  -11.1640   -9.9240   10.0520 C   0  0  0  0  0  3  0  0  0  0  0  0
   -9.9710   -9.4830   10.6430 C   0  0  0  0  0  3  0  0  0  0  0  0
   -8.8780   -9.0920    9.8640 C   0  0  0  0  0  0  0  0  0  0  0  0
   -9.0220   -9.1780    8.4750 C   0  0  0  0  0  3  0  0  0  0  0  0
  -10.2170   -9.6210    7.8880 C   0  0  0  0  0  3  0  0  0  0  0  0
  -15.4590  -10.6820    6.3270 C   0  0  0  0  0  1  0  0  0  0  0  0
  -14.2540   -9.7980    6.6320 C   0  0  2  0  0  0  0  0  0  0  0  0
  -12.8870  -10.5100    6.4760 C   0  0  0  0  0  2  0  0  0  0  0  0
  -12.7240  -10.5490    8.0240 C   0  0  2  0  0  0  0  0  0  0  0  0
  -13.9680   -9.6220    8.1430 C   0  0  0  0  0  2  0  0  0  0  0  0
  -13.0200  -11.9070    8.5480 N   0  0  0  0  0  4  0  0  0  0  0  0
  -12.2540  -12.5610    8.3350 H   0  0  0  0  0  0  0  0  0  0  0  0
  -13.1440  -11.8930    9.5690 H   0  0  0  0  0  0  0  0  0  0  0  0
  -13.8750  -12.3190    8.1550 H   0  0  0  0  0  0  0  0  0  0  0  0
  -14.4010   -8.5790    5.8830 O   0  0  0  0  0  0  0  0  0  0  0  0
  -13.6620   -7.9860    6.1030 H   0  0  0  0  0  0  0  0  0  0  0  0
   -3.0380   -8.5980   13.7250 C   0  0  0  0  0  3  0  0  0  0  0  0
   -1.7610   -8.7080   14.1850 F   0  0  0  0  0  0  0  0  0  0  0  0
   -3.8520   -8.9030   14.7720 F   0  0  0  0  0  0  0  0  0  0  0  0
  1 13  1  0  0  0  0
  2  1  2  0  0  0  0
  2  3  1  0  0  0  0
  3 11  2  0  0  0  0
  4  3  1  0  0  0  0
  4  5  2  0  0  0  0
  5  6  1  0  0  0  0
  6 10  1  0  0  0  0
  6  7  2  0  0  0  0
  7  8  1  0  0  0  0
  9  8  2  0  0  0  0
  9 37  1  0  0  0  0
 10  9  1  0  0  0  0
 11 12  1  0  0  0  0
 11 10  1  0  0  0  0
 13 14  1  0  0  0  0
 13 12  2  0  0  0  0
 14 15  1  0  0  0  0
 15 16  2  0  0  0  0
 17 16  1  0  0  0  0
 18 17  2  0  0  0  0
 19 18  1  0  0  0  0
 19 14  2  0  0  0  0
 20 21  1  0  0  0  0
 21 22  2  0  0  0  0
 23  1  1  0  0  0  0
 23 22  1  0  0  0  0
 24 23  2  0  0  0  0
 25 24  1  0  0  0  0
 25 20  2  0  0  0  0
 27 26  1  6  0  0  0
 27 30  1  0  0  0  0
 28 27  1  0  0  0  0
 28 29  1  0  0  0  0
 29 30  1  0  0  0  0
 29 31  1  1  0  0  0
 29 20  1  0  0  0  0
 31 33  1  0  0  0  0
 32 31  1  0  0  0  0
 34 31  1  0  0  0  0
 35 36  1  0  0  0  0
 35 27  1  0  0  0  0
 37 38  1  0  0  0  0
 37 39  1  0  0  0  0
M  END
>  <minimizedAffinity>
-4.90125608

$$$$
