
 OpenBabel11232420253D

 39 44  0  0  1  0  0  0  0  0999 V2000
   -7.0360  -10.6040    9.3110 C   0  0  0  0  0  0  0  0  0  0  0  0
   -6.2280  -11.0790    8.3250 N   0  0  0  0  0  0  0  0  0  0  0  0
   -6.5410  -12.2690    7.7700 C   0  0  0  0  0  0  0  0  0  0  0  0
   -5.6310  -12.7310    6.7230 C   0  0  0  0  0  3  0  0  0  0  0  0
   -5.8350  -13.9090    6.1190 C   0  0  0  0  0  3  0  0  0  0  0  0
   -6.9300  -14.7210    6.5010 C   0  0  0  0  0  0  0  0  0  0  0  0
   -7.3040  -15.8990    6.0610 N   0  0  0  0  0  0  0  0  0  0  0  0
   -8.4100  -16.2780    6.7620 N   0  0  0  0  0  0  0  0  0  0  0  0
   -8.7070  -15.3260    7.6310 C   0  0  0  0  0  0  0  0  0  0  0  0
   -7.8020  -14.2880    7.4970 N   0  0  0  0  0  0  0  0  0  0  0  0
   -7.6430  -13.0370    8.1500 C   0  0  0  0  0  0  0  0  0  0  0  0
   -8.4860  -12.5190    9.1270 C   0  0  0  0  0  3  0  0  0  0  0  0
   -8.1990  -11.2780    9.7320 C   0  0  0  0  0  0  0  0  0  0  0  0
   -9.1270  -10.7420   10.7450 C   0  0  0  0  0  0  0  0  0  0  0  0
  -10.1310   -9.8280   10.3880 C   0  0  0  0  0  3  0  0  0  0  0  0
  -11.0040   -9.3100   11.3480 C   0  0  0  0  0  3  0  0  0  0  0  0
  -10.8810   -9.6940   12.6820 C   0  0  0  0  0  3  0  0  0  0  0  0
   -9.8860  -10.5930   13.0560 C   0  0  0  0  0  3  0  0  0  0  0  0
   -9.0140  -11.1120   12.0960 C   0  0  0  0  0  3  0  0  0  0  0  0
   -5.6200   -6.9040   11.1520 C   0  0  0  0  0  0  0  0  0  0  0  0
   -5.3490   -8.1810   11.6950 C   0  0  0  0  0  3  0  0  0  0  0  0
   -5.7950   -9.3720   11.1010 C   0  0  0  0  0  3  0  0  0  0  0  0
   -6.5370   -9.3550    9.9170 C   0  0  0  0  0  0  0  0  0  0  0  0
   -6.8270   -8.1040    9.3620 C   0  0  0  0  0  3  0  0  0  0  0  0
   -6.3790   -6.9160    9.9600 C   0  0  0  0  0  3  0  0  0  0  0  0
   -3.8040   -3.5910   14.0740 C   0  0  0  0  0  1  0  0  0  0  0  0
   -4.0920   -5.0580   13.7730 C   0  0  2  0  0  0  0  0  0  0  0  0
   -3.6250   -5.5230   12.3710 C   0  0  0  0  0  2  0  0  0  0  0  0
   -5.1040   -5.5660   11.8870 C   0  0  2  0  0  0  0  0  0  0  0  0
   -5.5560   -5.3410   13.3590 C   0  0  0  0  0  2  0  0  0  0  0  0
   -5.4150   -4.3800   11.0480 N   0  0  0  0  0  4  0  0  0  0  0  0
   -4.9860   -4.4640   10.1150 H   0  0  0  0  0  0  0  0  0  0  0  0
   -6.4290   -4.2730   10.9170 H   0  0  0  0  0  0  0  0  0  0  0  0
   -5.0760   -3.4970   11.4480 H   0  0  0  0  0  0  0  0  0  0  0  0
   -3.5970   -5.8390   14.8760 O   0  0  0  0  0  0  0  0  0  0  0  0
   -3.8150   -6.7740   14.7190 H   0  0  0  0  0  0  0  0  0  0  0  0
   -9.8190  -15.4170    8.5950 C   0  0  0  0  0  3  0  0  0  0  0  0
  -10.6740  -16.4280    8.2770 F   0  0  0  0  0  0  0  0  0  0  0  0
   -9.3680  -15.6760    9.8530 F   0  0  0  0  0  0  0  0  0  0  0  0
  1 13  1  0  0  0  0
  1 23  1  0  0  0  0
  2  1  2  0  0  0  0
  3 11  2  0  0  0  0
  3  2  1  0  0  0  0
  4  3  1  0  0  0  0
  5  6  1  0  0  0  0
  5  4  2  0  0  0  0
  6 10  1  0  0  0  0
  7  6  2  0  0  0  0
  7  8  1  0  0  0  0
  8  9  2  0  0  0  0
  9 37  1  0  0  0  0
 10  9  1  0  0  0  0
 10 11  1  0  0  0  0
 11 12  1  0  0  0  0
 12 13  2  0  0  0  0
 13 14  1  0  0  0  0
 14 19  1  0  0  0  0
 15 14  2  0  0  0  0
 15 16  1  0  0  0  0
 16 17  2  0  0  0  0
 17 18  1  0  0  0  0
 19 18  2  0  0  0  0
 20 21  1  0  0  0  0
 20 29  1  0  0  0  0
 22 21  2  0  0  0  0
 23 22  1  0  0  0  0
 24 23  2  0  0  0  0
 24 25  1  0  0  0  0
 25 20  2  0  0  0  0
 27 26  1  1  0  0  0
 27 35  1  0  0  0  0
 28 27  1  0  0  0  0
 29 31  1  6  0  0  0
 29 28  1  0  0  0  0
 29 30  1  0  0  0  0
 30 27  1  0  0  0  0
 31 34  1  0  0  0  0
 32 31  1  0  0  0  0
 33 31  1  0  0  0  0
 36 35  1  0  0  0  0
 37 39  1  0  0  0  0
 38 37  1  0  0  0  0
M  END
>  <minimizedAffinity>
-5.46511412

$$$$
