
 OpenBabel11232420253D

 39 44  0  0  1  0  0  0  0  0999 V2000
   -7.9430   -8.6120   10.6270 C   0  0  0  0  0  0  0  0  0  0  0  0
   -8.2420   -7.3780   11.1130 N   0  0  0  0  0  0  0  0  0  0  0  0
   -7.2600   -6.6860   11.7290 C   0  0  0  0  0  0  0  0  0  0  0  0
   -7.6440   -5.3700   12.2370 C   0  0  0  0  0  3  0  0  0  0  0  0
   -6.7530   -4.6070   12.8850 C   0  0  0  0  0  3  0  0  0  0  0  0
   -5.4340   -5.0770   13.0900 C   0  0  0  0  0  0  0  0  0  0  0  0
   -4.4200   -4.5120   13.7010 N   0  0  0  0  0  0  0  0  0  0  0  0
   -3.3670   -5.3770   13.6550 N   0  0  0  0  0  0  0  0  0  0  0  0
   -3.7440   -6.4710   13.0140 C   0  0  0  0  0  0  0  0  0  0  0  0
   -5.0600   -6.3290   12.6080 N   0  0  0  0  0  0  0  0  0  0  0  0
   -5.9600   -7.1650   11.8950 C   0  0  0  0  0  0  0  0  0  0  0  0
   -5.6550   -8.4100   11.3540 C   0  0  0  0  0  3  0  0  0  0  0  0
   -6.6490   -9.1660   10.7000 C   0  0  0  0  0  0  0  0  0  0  0  0
   -6.2890  -10.4690   10.1120 C   0  0  0  0  0  0  0  0  0  0  0  0
   -5.6770  -10.5440    8.8500 C   0  0  0  0  0  3  0  0  0  0  0  0
   -5.3450  -11.7790    8.2870 C   0  0  0  0  0  3  0  0  0  0  0  0
   -5.6270  -12.9580    8.9740 C   0  0  0  0  0  3  0  0  0  0  0  0
   -6.2410  -12.9040   10.2230 C   0  0  0  0  0  3  0  0  0  0  0  0
   -6.5720  -11.6680   10.7870 C   0  0  0  0  0  3  0  0  0  0  0  0
  -11.4570  -10.6300    8.9950 C   0  0  0  0  0  0  0  0  0  0  0  0
  -10.5140   -9.9590    8.1830 C   0  0  0  0  0  3  0  0  0  0  0  0
   -9.3810   -9.3170    8.7030 C   0  0  0  0  0  3  0  0  0  0  0  0
   -9.1160   -9.3170   10.0760 C   0  0  0  0  0  0  0  0  0  0  0  0
  -10.0370   -9.9660   10.9040 C   0  0  0  0  0  3  0  0  0  0  0  0
  -11.1700  -10.6060   10.3790 C   0  0  0  0  0  3  0  0  0  0  0  0
  -14.7610  -12.6590    6.2060 C   0  0  0  0  0  1  0  0  0  0  0  0
  -13.3700  -12.0550    6.3640 C   0  0  2  0  0  0  0  0  0  0  0  0
  -12.5500  -12.6440    7.5390 C   0  0  0  0  0  2  0  0  0  0  0  0
  -12.7560  -11.3310    8.3480 C   0  0  2  0  0  0  0  0  0  0  0  0
  -13.3570  -10.6780    7.0700 C   0  0  0  0  0  2  0  0  0  0  0  0
  -13.7990  -11.5160    9.3910 N   0  0  0  0  0  4  0  0  0  0  0  0
  -13.4410  -12.0800   10.1750 H   0  0  0  0  0  0  0  0  0  0  0  0
  -14.1080  -10.6130    9.7720 H   0  0  0  0  0  0  0  0  0  0  0  0
  -14.6400  -11.9940    9.0460 H   0  0  0  0  0  0  0  0  0  0  0  0
  -12.7220  -12.1000    5.0800 O   0  0  0  0  0  0  0  0  0  0  0  0
  -11.8500  -11.6750    5.1550 H   0  0  0  0  0  0  0  0  0  0  0  0
   -2.8740   -7.6450   12.8180 C   0  0  0  0  0  3  0  0  0  0  0  0
   -1.5680   -7.3430   13.0530 F   0  0  0  0  0  0  0  0  0  0  0  0
   -3.1970   -8.6530   13.6730 F   0  0  0  0  0  0  0  0  0  0  0  0
  1 13  2  0  0  0  0
  1  2  1  0  0  0  0
  2  3  2  0  0  0  0
  3 11  1  0  0  0  0
  3  4  1  0  0  0  0
  4  5  2  0  0  0  0
  5  6  1  0  0  0  0
  6  7  2  0  0  0  0
  8  7  1  0  0  0  0
  9  8  2  0  0  0  0
 10  9  1  0  0  0  0
 10  6  1  0  0  0  0
 11 10  1  0  0  0  0
 12 11  2  0  0  0  0
 13 12  1  0  0  0  0
 14 13  1  0  0  0  0
 14 19  1  0  0  0  0
 15 14  2  0  0  0  0
 16 15  1  0  0  0  0
 16 17  2  0  0  0  0
 17 18  1  0  0  0  0
 18 19  2  0  0  0  0
 20 25  1  0  0  0  0
 21 22  1  0  0  0  0
 21 20  2  0  0  0  0
 22 23  2  0  0  0  0
 23  1  1  0  0  0  0
 23 24  1  0  0  0  0
 25 24  2  0  0  0  0
 27 26  1  6  0  0  0
 27 30  1  0  0  0  0
 27 28  1  0  0  0  0
 28 29  1  0  0  0  0
 29 20  1  0  0  0  0
 29 31  1  1  0  0  0
 30 29  1  0  0  0  0
 31 33  1  0  0  0  0
 31 32  1  0  0  0  0
 34 31  1  0  0  0  0
 35 36  1  0  0  0  0
 35 27  1  0  0  0  0
 37  9  1  0  0  0  0
 37 38  1  0  0  0  0
 37 39  1  0  0  0  0
M  END
>  <minimizedAffinity>
-5.73069048

$$$$
