
 OpenBabel11232420253D

 39 44  0  0  1  0  0  0  0  0999 V2000
   -7.9200  -10.6690   10.7040 C   0  0  0  0  0  0  0  0  0  0  0  0
   -8.2600  -11.9280   11.0920 N   0  0  0  0  0  0  0  0  0  0  0  0
   -7.9730  -12.9470   10.2550 C   0  0  0  0  0  0  0  0  0  0  0  0
   -8.3690  -14.2740   10.7240 C   0  0  0  0  0  3  0  0  0  0  0  0
   -8.1520  -15.3540    9.9620 C   0  0  0  0  0  3  0  0  0  0  0  0
   -7.5440  -15.2150    8.6910 C   0  0  0  0  0  0  0  0  0  0  0  0
   -7.2550  -16.1210    7.7880 N   0  0  0  0  0  0  0  0  0  0  0  0
   -6.6980  -15.4850    6.7180 N   0  0  0  0  0  0  0  0  0  0  0  0
   -6.6500  -14.1880    6.9740 C   0  0  0  0  0  0  0  0  0  0  0  0
   -7.1620  -13.9550    8.2380 N   0  0  0  0  0  0  0  0  0  0  0  0
   -7.3500  -12.7820    9.0170 C   0  0  0  0  0  0  0  0  0  0  0  0
   -6.9670  -11.4960    8.6510 C   0  0  0  0  0  3  0  0  0  0  0  0
   -7.2440  -10.4020    9.4970 C   0  0  0  0  0  0  0  0  0  0  0  0
   -6.8010   -9.0550    9.0960 C   0  0  0  0  0  0  0  0  0  0  0  0
   -5.4470   -8.6900    9.1730 C   0  0  0  0  0  3  0  0  0  0  0  0
   -5.0270   -7.4100    8.8030 C   0  0  0  0  0  3  0  0  0  0  0  0
   -5.9560   -6.4720    8.3580 C   0  0  0  0  0  3  0  0  0  0  0  0
   -7.3040   -6.8120    8.2830 C   0  0  0  0  0  3  0  0  0  0  0  0
   -7.7240   -8.0930    8.6510 C   0  0  0  0  0  3  0  0  0  0  0  0
   -9.2640   -7.5360   13.4350 C   0  0  0  0  0  0  0  0  0  0  0  0
  -10.0990   -8.0930   12.4390 C   0  0  0  0  0  3  0  0  0  0  0  0
   -9.6730   -9.1040   11.5660 C   0  0  0  0  0  3  0  0  0  0  0  0
   -8.3800   -9.6300   11.6440 C   0  0  0  0  0  0  0  0  0  0  0  0
   -7.5300   -9.0910   12.6150 C   0  0  0  0  0  3  0  0  0  0  0  0
   -7.9600   -8.0780   13.4860 C   0  0  0  0  0  3  0  0  0  0  0  0
   -9.9500   -3.5910   16.0390 C   0  0  0  0  0  1  0  0  0  0  0  0
   -9.0850   -4.3870   15.0670 C   0  0  2  0  0  0  0  0  0  0  0  0
   -9.8440   -4.9120   13.8240 C   0  0  0  0  0  2  0  0  0  0  0  0
   -9.7960   -6.3580   14.3970 C   0  0  2  0  0  0  0  0  0  0  0  0
   -8.8280   -5.8490   15.5050 C   0  0  0  0  0  2  0  0  0  0  0  0
  -11.1120   -6.7360   14.9750 N   0  0  0  0  0  4  0  0  0  0  0  0
  -11.8000   -6.9290   14.2330 H   0  0  0  0  0  0  0  0  0  0  0  0
  -11.0340   -7.5810   15.5560 H   0  0  0  0  0  0  0  0  0  0  0  0
  -11.5210   -6.0060   15.5700 H   0  0  0  0  0  0  0  0  0  0  0  0
   -7.9080   -3.6080   14.7860 O   0  0  0  0  0  0  0  0  0  0  0  0
   -7.3250   -4.1230   14.2020 H   0  0  0  0  0  0  0  0  0  0  0  0
   -6.1520  -13.1840    6.0170 C   0  0  0  0  0  3  0  0  0  0  0  0
   -4.8020  -13.2720    5.8580 F   0  0  0  0  0  0  0  0  0  0  0  0
   -6.6960  -13.3590    4.7820 F   0  0  0  0  0  0  0  0  0  0  0  0
  1  2  1  0  0  0  0
  1 23  1  0  0  0  0
  3  4  1  0  0  0  0
  3  2  2  0  0  0  0
  5  4  2  0  0  0  0
  6  5  1  0  0  0  0
  7  6  2  0  0  0  0
  8  9  2  0  0  0  0
  8  7  1  0  0  0  0
  9 10  1  0  0  0  0
 10  6  1  0  0  0  0
 10 11  1  0  0  0  0
 11  3  1  0  0  0  0
 12 11  2  0  0  0  0
 12 13  1  0  0  0  0
 13  1  2  0  0  0  0
 14 15  1  0  0  0  0
 14 13  1  0  0  0  0
 16 15  2  0  0  0  0
 17 16  1  0  0  0  0
 18 17  2  0  0  0  0
 18 19  1  0  0  0  0
 19 14  2  0  0  0  0
 20 25  1  0  0  0  0
 20 29  1  0  0  0  0
 21 20  2  0  0  0  0
 22 23  2  0  0  0  0
 22 21  1  0  0  0  0
 23 24  1  0  0  0  0
 24 25  2  0  0  0  0
 27 30  1  0  0  0  0
 27 26  1  1  0  0  0
 28 29  1  0  0  0  0
 28 27  1  0  0  0  0
 29 31  1  1  0  0  0
 29 30  1  0  0  0  0
 31 33  1  0  0  0  0
 31 34  1  0  0  0  0
 32 31  1  0  0  0  0
 35 27  1  0  0  0  0
 36 35  1  0  0  0  0
 37  9  1  0  0  0  0
 38 37  1  0  0  0  0
 39 37  1  0  0  0  0
M  END
>  <minimizedAffinity>
-5.06513786

$$$$
