
 OpenBabel11232419143D

 42 47  0  0  1  0  0  0  0  0999 V2000
   40.7770   47.8700   16.8160 C   0  0  0  0  0  0  0  0  0  0  0  0
   41.9400   47.8060   17.5950 C   0  0  0  0  0  3  0  0  0  0  0  0
   41.9780   46.9820   18.7220 C   0  0  0  0  0  3  0  0  0  0  0  0
   40.8460   46.2530   19.0840 C   0  0  0  0  0  0  0  0  0  0  0  0
   39.6810   46.3290   18.3120 C   0  0  0  0  0  0  0  0  0  0  0  0
   39.6400   47.1450   17.1820 C   0  0  0  0  0  3  0  0  0  0  0  0
   38.5590   45.5200   18.7240 C   0  0  0  0  0  0  0  0  0  0  0  0
   37.4320   45.2620   18.1020 N   0  0  0  0  0  0  0  0  0  0  0  0
   36.7260   44.4250   18.9430 C   0  0  0  0  0  0  0  0  0  0  0  0
   37.4430   44.1700   20.1080 C   0  0  0  0  0  0  0  0  0  0  0  0
   38.6100   44.8780   19.9260 N   0  0  0  0  0  0  0  0  0  0  0  0
   39.7290   45.0450   20.8340 C   0  0  0  0  0  2  0  0  0  0  0  0
   40.9560   45.4290   20.1760 O   0  0  0  0  0  0  0  0  0  0  0  0
   37.1780   43.3410   21.2760 C   0  0  0  0  0  0  0  0  0  0  0  0
   36.7090   42.0300   21.1240 C   0  0  0  0  0  3  0  0  0  0  0  0
   36.4480   41.2430   22.2470 C   0  0  0  0  0  3  0  0  0  0  0  0
   36.6550   41.7600   23.5240 C   0  0  0  0  0  3  0  0  0  0  0  0
   37.1250   43.0630   23.6830 C   0  0  0  0  0  3  0  0  0  0  0  0
   37.3870   43.8520   22.5620 C   0  0  0  0  0  3  0  0  0  0  0  0
   35.4130   43.9250   18.5600 C   0  0  0  0  0  0  0  0  0  0  0  0
   34.2960   44.0030   19.3920 C   0  0  0  0  0  3  0  0  0  0  0  0
   33.0450   43.5440   18.9540 C   0  0  0  0  0  3  0  0  0  0  0  0
   32.8510   42.9980   17.6690 C   0  0  0  0  0  0  0  0  0  0  0  0
   33.9950   42.9300   16.8480 C   0  0  0  0  0  3  0  0  0  0  0  0
   35.2450   43.3850   17.2820 C   0  0  0  0  0  3  0  0  0  0  0  0
   31.4340   42.5400   17.1570 C   0  0  1  0  0  0  0  0  0  0  0  0
   30.1460   43.1470   17.7920 C   0  0  0  0  0  2  0  0  0  0  0  0
   29.4620   42.9410   16.4050 C   0  0  1  0  0  0  0  0  0  0  0  0
   28.4500   44.0030   16.0220 C   0  0  0  0  0  1  0  0  0  0  0  0
   30.8900   43.0840   15.7970 C   0  0  0  0  0  2  0  0  0  0  0  0
   31.3980   41.0550   17.2020 N   0  0  0  0  0  4  0  0  0  0  0  0
   32.1080   40.6310   16.5960 H   0  0  0  0  0  0  0  0  0  0  0  0
   31.5510   40.6990   18.1530 H   0  0  0  0  0  0  0  0  0  0  0  0
   30.4680   40.7150   16.8900 H   0  0  0  0  0  0  0  0  0  0  0  0
   28.9130   41.6060   16.2410 O   0  0  0  0  0  0  0  0  0  0  0  0
   28.1840   41.6920   15.5910 H   0  0  0  0  0  0  0  0  0  0  0  0
   39.7640   48.5010   14.6560 N   0  0  0  0  0  0  0  0  0  0  0  0
   40.6950   48.7490   15.6310 C   0  0  0  0  0  0  0  0  0  0  0  0
   41.4520   49.7100   15.5410 O   0  0  0  0  0  0  0  0  0  0  0  0
   39.8490   49.1260   13.8620 H   0  0  0  0  0  0  0  0  0  0  0  0
   37.3550   48.1710   14.3520 C   0  0  0  0  0  1  0  0  0  0  0  0
   38.6930   47.5220   14.6520 C   0  0  0  0  0  2  0  0  0  0  0  0
  1  6  2  0  0  0  0
  1  2  1  0  0  0  0
  2  3  2  0  0  0  0
  3  4  1  0  0  0  0
  4 13  1  0  0  0  0
  5  7  1  0  0  0  0
  5  4  2  0  0  0  0
  6  5  1  0  0  0  0
  7 11  1  0  0  0  0
  8  7  2  0  0  0  0
  8  9  1  0  0  0  0
  9 10  2  0  0  0  0
 10 14  1  0  0  0  0
 11 10  1  0  0  0  0
 11 12  1  0  0  0  0
 13 12  1  0  0  0  0
 14 19  1  0  0  0  0
 15 14  2  0  0  0  0
 15 16  1  0  0  0  0
 16 17  2  0  0  0  0
 17 18  1  0  0  0  0
 19 18  2  0  0  0  0
 20  9  1  0  0  0  0
 20 21  1  0  0  0  0
 22 21  2  0  0  0  0
 23 22  1  0  0  0  0
 24 25  1  0  0  0  0
 24 23  2  0  0  0  0
 25 20  2  0  0  0  0
 26 31  1  1  0  0  0
 26 23  1  0  0  0  0
 26 27  1  0  0  0  0
 28 29  1  6  0  0  0
 28 27  1  0  0  0  0
 30 28  1  0  0  0  0
 30 26  1  0  0  0  0
 31 33  1  0  0  0  0
 32 31  1  0  0  0  0
 34 31  1  0  0  0  0
 35 28  1  0  0  0  0
 36 35  1  0  0  0  0
 37 38  1  0  0  0  0
 38  1  1  0  0  0  0
 39 38  2  0  0  0  0
 40 37  1  0  0  0  0
 41 42  1  0  0  0  0
 42 37  1  0  0  0  0
M  END
>  <minimizedAffinity>
-11.2103796

$$$$
