
 OpenBabel11232419143D

 42 47  0  0  1  0  0  0  0  0999 V2000
   41.2340   45.2260   20.8980 C   0  0  0  0  0  0  0  0  0  0  0  0
   42.2210   46.1240   20.4750 C   0  0  0  0  0  3  0  0  0  0  0  0
   42.0730   46.8020   19.2630 C   0  0  0  0  0  3  0  0  0  0  0  0
   40.9560   46.5550   18.4650 C   0  0  0  0  0  0  0  0  0  0  0  0
   39.9770   45.6470   18.8840 C   0  0  0  0  0  0  0  0  0  0  0  0
   40.1170   44.9720   20.0970 C   0  0  0  0  0  3  0  0  0  0  0  0
   38.8300   45.4660   18.0270 C   0  0  0  0  0  0  0  0  0  0  0  0
   37.7030   44.8310   18.2490 N   0  0  0  0  0  0  0  0  0  0  0  0
   36.9570   44.9840   17.0960 C   0  0  0  0  0  0  0  0  0  0  0  0
   37.6510   45.7300   16.1490 C   0  0  0  0  0  0  0  0  0  0  0  0
   38.8380   46.0270   16.7830 N   0  0  0  0  0  0  0  0  0  0  0  0
   39.9950   46.7370   16.2720 C   0  0  0  0  0  2  0  0  0  0  0  0
   40.8440   47.2810   17.3070 O   0  0  0  0  0  0  0  0  0  0  0  0
   37.3120   46.2030   14.8140 C   0  0  0  0  0  0  0  0  0  0  0  0
   37.2240   47.5750   14.5480 C   0  0  0  0  0  3  0  0  0  0  0  0
   36.8900   48.0220   13.2690 C   0  0  0  0  0  3  0  0  0  0  0  0
   36.6430   47.1030   12.2510 C   0  0  0  0  0  3  0  0  0  0  0  0
   36.7320   45.7360   12.5080 C   0  0  0  0  0  3  0  0  0  0  0  0
   37.0670   45.2860   13.7860 C   0  0  0  0  0  3  0  0  0  0  0  0
   35.6240   44.4060   16.9950 C   0  0  0  0  0  0  0  0  0  0  0  0
   35.3940   43.0330   16.9140 C   0  0  0  0  0  3  0  0  0  0  0  0
   34.0860   42.5290   16.8610 C   0  0  0  0  0  3  0  0  0  0  0  0
   32.9540   43.3680   16.8960 C   0  0  0  0  0  0  0  0  0  0  0  0
   33.2130   44.7510   16.9770 C   0  0  0  0  0  3  0  0  0  0  0  0
   34.5160   45.2580   17.0280 C   0  0  0  0  0  3  0  0  0  0  0  0
   31.4860   42.7980   16.8990 C   0  0  1  0  0  0  0  0  0  0  0  0
   30.3710   43.5300   17.7060 C   0  0  0  0  0  2  0  0  0  0  0  0
   29.3650   43.0060   16.6360 C   0  0  1  0  0  0  0  0  0  0  0  0
   28.2190   43.9460   16.3140 C   0  0  0  0  0  1  0  0  0  0  0  0
   30.5710   43.0100   15.6500 C   0  0  0  0  0  2  0  0  0  0  0  0
   31.5620   41.3640   17.2800 N   0  0  0  0  0  4  0  0  0  0  0  0
   32.1160   40.8140   16.6140 H   0  0  0  0  0  0  0  0  0  0  0  0
   31.9810   41.2380   18.2090 H   0  0  0  0  0  0  0  0  0  0  0  0
   30.6070   40.9560   17.3130 H   0  0  0  0  0  0  0  0  0  0  0  0
   28.8810   41.6660   16.9260 O   0  0  0  0  0  0  0  0  0  0  0  0
   28.0040   41.5960   16.4940 H   0  0  0  0  0  0  0  0  0  0  0  0
   41.1210   45.0950   23.3610 N   0  0  0  0  0  0  0  0  0  0  0  0
   41.3710   44.4750   22.1640 C   0  0  0  0  0  0  0  0  0  0  0  0
   41.6900   43.2910   22.1290 O   0  0  0  0  0  0  0  0  0  0  0  0
   41.3160   44.5030   24.1600 H   0  0  0  0  0  0  0  0  0  0  0  0
   39.0750   46.4210   23.6040 C   0  0  0  0  0  1  0  0  0  0  0  0
   40.5920   46.4250   23.6000 C   0  0  0  0  0  2  0  0  0  0  0  0
  1 38  1  0  0  0  0
  2  1  1  0  0  0  0
  3  2  2  0  0  0  0
  4  5  2  0  0  0  0
  4  3  1  0  0  0  0
  5  6  1  0  0  0  0
  6  1  2  0  0  0  0
  7  8  2  0  0  0  0
  7  5  1  0  0  0  0
  9  8  1  0  0  0  0
 10 11  1  0  0  0  0
 10  9  2  0  0  0  0
 11  7  1  0  0  0  0
 12 11  1  0  0  0  0
 12 13  1  0  0  0  0
 13  4  1  0  0  0  0
 14 10  1  0  0  0  0
 15 14  1  0  0  0  0
 16 15  2  0  0  0  0
 17 18  2  0  0  0  0
 17 16  1  0  0  0  0
 18 19  1  0  0  0  0
 19 14  2  0  0  0  0
 20 25  1  0  0  0  0
 20  9  1  0  0  0  0
 21 20  2  0  0  0  0
 22 23  2  0  0  0  0
 22 21  1  0  0  0  0
 23 26  1  0  0  0  0
 23 24  1  0  0  0  0
 24 25  2  0  0  0  0
 26 31  1  1  0  0  0
 26 27  1  0  0  0  0
 28 29  1  6  0  0  0
 28 35  1  0  0  0  0
 28 27  1  0  0  0  0
 30 28  1  0  0  0  0
 30 26  1  0  0  0  0
 31 34  1  0  0  0  0
 31 33  1  0  0  0  0
 32 31  1  0  0  0  0
 36 35  1  0  0  0  0
 37 42  1  0  0  0  0
 37 40  1  0  0  0  0
 38 37  1  0  0  0  0
 39 38  2  0  0  0  0
 42 41  1  0  0  0  0
M  END
>  <minimizedAffinity>
-13.0533743

$$$$

 OpenBabel11232419143D

 42 47  0  0  1  0  0  0  0  0999 V2000
   39.7590   44.3800   21.5420 C   0  0  0  0  0  0  0  0  0  0  0  0
   40.9540   45.0470   21.2440 C   0  0  0  0  0  3  0  0  0  0  0  0
   41.0940   45.7130   20.0240 C   0  0  0  0  0  3  0  0  0  0  0  0
   40.0550   45.6820   19.0960 C   0  0  0  0  0  0  0  0  0  0  0  0
   38.8660   45.0040   19.3900 C   0  0  0  0  0  0  0  0  0  0  0  0
   38.7180   44.3430   20.6100 C   0  0  0  0  0  3  0  0  0  0  0  0
   37.8180   45.0430   18.3990 C   0  0  0  0  0  0  0  0  0  0  0  0
   36.5650   44.6580   18.4810 N   0  0  0  0  0  0  0  0  0  0  0  0
   36.0100   44.9350   17.2470 C   0  0  0  0  0  0  0  0  0  0  0  0
   36.9510   45.5010   16.3930 C   0  0  0  0  0  0  0  0  0  0  0  0
   38.0890   45.5620   17.1670 N   0  0  0  0  0  0  0  0  0  0  0  0
   39.4210   46.0070   16.8020 C   0  0  0  0  0  2  0  0  0  0  0  0
   40.2330   46.3890   17.9340 O   0  0  0  0  0  0  0  0  0  0  0  0
   36.8790   46.0020   15.0280 C   0  0  0  0  0  0  0  0  0  0  0  0
   36.8280   47.3790   14.7790 C   0  0  0  0  0  3  0  0  0  0  0  0
   36.7500   47.8540   13.4690 C   0  0  0  0  0  3  0  0  0  0  0  0
   36.7240   46.9580   12.4020 C   0  0  0  0  0  3  0  0  0  0  0  0
   36.7780   45.5850   12.6420 C   0  0  0  0  0  3  0  0  0  0  0  0
   36.8570   45.1080   13.9510 C   0  0  0  0  0  3  0  0  0  0  0  0
   34.6090   44.6400   16.9820 C   0  0  0  0  0  0  0  0  0  0  0  0
   33.9080   45.1780   15.9030 C   0  0  0  0  0  3  0  0  0  0  0  0
   32.5700   44.8260   15.6710 C   0  0  0  0  0  3  0  0  0  0  0  0
   31.8770   43.9180   16.4980 C   0  0  0  0  0  0  0  0  0  0  0  0
   32.6060   43.3890   17.5820 C   0  0  0  0  0  3  0  0  0  0  0  0
   33.9400   43.7400   17.8170 C   0  0  0  0  0  3  0  0  0  0  0  0
   30.3950   43.4760   16.2010 C   0  0  1  0  0  0  0  0  0  0  0  0
   30.0940   42.0050   15.7810 C   0  0  0  0  0  2  0  0  0  0  0  0
   28.7070   42.1760   16.4750 C   0  0  1  0  0  0  0  0  0  0  0  0
   28.1690   40.9330   17.1560 C   0  0  0  0  0  1  0  0  0  0  0  0
   29.4110   43.2250   17.3870 C   0  0  0  0  0  2  0  0  0  0  0  0
   29.8280   44.4350   15.2170 N   0  0  0  0  0  4  0  0  0  0  0  0
   29.8080   45.3950   15.5790 H   0  0  0  0  0  0  0  0  0  0  0  0
   30.3660   44.4450   14.3420 H   0  0  0  0  0  0  0  0  0  0  0  0
   28.8540   44.1640   14.9800 H   0  0  0  0  0  0  0  0  0  0  0  0
   27.7090   42.7710   15.6010 O   0  0  0  0  0  0  0  0  0  0  0  0
   26.8410   42.4610   15.9330 H   0  0  0  0  0  0  0  0  0  0  0  0
   38.3690   43.0970   23.1280 N   0  0  0  0  0  0  0  0  0  0  0  0
   39.5860   43.6460   22.8130 C   0  0  0  0  0  0  0  0  0  0  0  0
   40.5430   43.5170   23.5680 O   0  0  0  0  0  0  0  0  0  0  0  0
   38.3520   42.6810   24.0530 H   0  0  0  0  0  0  0  0  0  0  0  0
   36.7950   41.5640   22.0440 C   0  0  0  0  0  1  0  0  0  0  0  0
   37.1740   43.0090   22.3100 C   0  0  0  0  0  2  0  0  0  0  0  0
  1 38  1  0  0  0  0
  2  1  1  0  0  0  0
  3  2  2  0  0  0  0
  4  5  2  0  0  0  0
  4  3  1  0  0  0  0
  5  6  1  0  0  0  0
  6  1  2  0  0  0  0
  7  8  2  0  0  0  0
  7  5  1  0  0  0  0
  9  8  1  0  0  0  0
 10 11  1  0  0  0  0
 10  9  2  0  0  0  0
 11  7  1  0  0  0  0
 12 11  1  0  0  0  0
 12 13  1  0  0  0  0
 13  4  1  0  0  0  0
 14 10  1  0  0  0  0
 15 14  1  0  0  0  0
 16 15  2  0  0  0  0
 17 18  2  0  0  0  0
 17 16  1  0  0  0  0
 18 19  1  0  0  0  0
 19 14  2  0  0  0  0
 20  9  1  0  0  0  0
 20 25  1  0  0  0  0
 21 20  2  0  0  0  0
 22 21  1  0  0  0  0
 22 23  2  0  0  0  0
 23 24  1  0  0  0  0
 24 25  2  0  0  0  0
 26 31  1  6  0  0  0
 26 23  1  0  0  0  0
 26 30  1  0  0  0  0
 27 26  1  0  0  0  0
 27 28  1  0  0  0  0
 28 29  1  1  0  0  0
 28 30  1  0  0  0  0
 31 32  1  0  0  0  0
 33 31  1  0  0  0  0
 34 31  1  0  0  0  0
 35 36  1  0  0  0  0
 35 28  1  0  0  0  0
 37 40  1  0  0  0  0
 38 37  1  0  0  0  0
 38 39  2  0  0  0  0
 41 42  1  0  0  0  0
 42 37  1  0  0  0  0
M  END
>  <minimizedAffinity>
-11.8701277

$$$$

 OpenBabel11232419143D

 42 47  0  0  1  0  0  0  0  0999 V2000
   38.0420   43.6700   23.2650 C   0  0  0  0  0  0  0  0  0  0  0  0
   39.3320   44.2060   23.1690 C   0  0  0  0  0  3  0  0  0  0  0  0
   39.7510   44.8050   21.9780 C   0  0  0  0  0  3  0  0  0  0  0  0
   38.8920   44.8370   20.8820 C   0  0  0  0  0  0  0  0  0  0  0  0
   37.6070   44.2900   20.9760 C   0  0  0  0  0  0  0  0  0  0  0  0
   37.1810   43.6960   22.1640 C   0  0  0  0  0  3  0  0  0  0  0  0
   36.7570   44.3900   19.8130 C   0  0  0  0  0  0  0  0  0  0  0  0
   35.4760   44.1320   19.6800 N   0  0  0  0  0  0  0  0  0  0  0  0
   35.1760   44.4110   18.3610 C   0  0  0  0  0  0  0  0  0  0  0  0
   36.3050   44.8470   17.6750 C   0  0  0  0  0  0  0  0  0  0  0  0
   37.2910   44.8300   18.6380 N   0  0  0  0  0  0  0  0  0  0  0  0
   38.7040   45.1280   18.5050 C   0  0  0  0  0  2  0  0  0  0  0  0
   39.3420   45.4750   19.7540 O   0  0  0  0  0  0  0  0  0  0  0  0
   36.5250   45.2970   16.3080 C   0  0  0  0  0  0  0  0  0  0  0  0
   36.5480   46.6640   16.0050 C   0  0  0  0  0  3  0  0  0  0  0  0
   36.7500   47.0900   14.6920 C   0  0  0  0  0  3  0  0  0  0  0  0
   36.9290   46.1540   13.6750 C   0  0  0  0  0  3  0  0  0  0  0  0
   36.9090   44.7920   13.9690 C   0  0  0  0  0  3  0  0  0  0  0  0
   36.7090   44.3640   15.2820 C   0  0  0  0  0  3  0  0  0  0  0  0
   33.8200   44.2430   17.8590 C   0  0  0  0  0  0  0  0  0  0  0  0
   33.4050   44.7180   16.6150 C   0  0  0  0  0  3  0  0  0  0  0  0
   32.0970   44.4900   16.1620 C   0  0  0  0  0  3  0  0  0  0  0  0
   31.1500   43.7740   16.9250 C   0  0  0  0  0  0  0  0  0  0  0  0
   31.5940   43.3060   18.1780 C   0  0  0  0  0  3  0  0  0  0  0  0
   32.8980   43.5320   18.6330 C   0  0  0  0  0  3  0  0  0  0  0  0
   29.7020   43.4660   16.3900 C   0  0  1  0  0  0  0  0  0  0  0  0
   29.3680   42.0510   15.8260 C   0  0  0  0  0  2  0  0  0  0  0  0
   27.9090   42.2840   16.3270 C   0  0  1  0  0  0  0  0  0  0  0  0
   27.1960   41.0450   16.8330 C   0  0  0  0  0  1  0  0  0  0  0  0
   28.5400   43.2170   17.4040 C   0  0  0  0  0  2  0  0  0  0  0  0
   29.3510   44.5250   15.4080 N   0  0  0  0  0  4  0  0  0  0  0  0
   29.3420   45.4590   15.8320 H   0  0  0  0  0  0  0  0  0  0  0  0
   30.0100   44.5480   14.6210 H   0  0  0  0  0  0  0  0  0  0  0  0
   28.4060   44.3440   15.0170 H   0  0  0  0  0  0  0  0  0  0  0  0
   27.0920   43.0070   15.3660 O   0  0  0  0  0  0  0  0  0  0  0  0
   26.1660   42.7450   15.5490 H   0  0  0  0  0  0  0  0  0  0  0  0
   37.6610   43.6620   25.7040 N   0  0  0  0  0  0  0  0  0  0  0  0
   37.5750   43.0090   24.5020 C   0  0  0  0  0  0  0  0  0  0  0  0
   37.0940   41.8830   24.4370 O   0  0  0  0  0  0  0  0  0  0  0  0
   37.3770   43.0850   26.4880 H   0  0  0  0  0  0  0  0  0  0  0  0
   37.4340   45.5480   27.2520 C   0  0  0  0  0  1  0  0  0  0  0  0
   38.0510   45.0360   25.9650 C   0  0  0  0  0  2  0  0  0  0  0  0
  1 38  1  0  0  0  0
  2  1  1  0  0  0  0
  3  2  2  0  0  0  0
  4  5  2  0  0  0  0
  4  3  1  0  0  0  0
  5  6  1  0  0  0  0
  6  1  2  0  0  0  0
  7  5  1  0  0  0  0
  8  7  2  0  0  0  0
  9  8  1  0  0  0  0
 10  9  2  0  0  0  0
 10 11  1  0  0  0  0
 11  7  1  0  0  0  0
 12 11  1  0  0  0  0
 12 13  1  0  0  0  0
 13  4  1  0  0  0  0
 14 10  1  0  0  0  0
 15 14  1  0  0  0  0
 16 15  2  0  0  0  0
 17 18  2  0  0  0  0
 17 16  1  0  0  0  0
 18 19  1  0  0  0  0
 19 14  2  0  0  0  0
 20  9  1  0  0  0  0
 20 25  1  0  0  0  0
 21 20  2  0  0  0  0
 22 21  1  0  0  0  0
 22 23  2  0  0  0  0
 23 24  1  0  0  0  0
 24 25  2  0  0  0  0
 26 31  1  6  0  0  0
 26 23  1  0  0  0  0
 26 30  1  0  0  0  0
 27 28  1  0  0  0  0
 27 26  1  0  0  0  0
 28 29  1  1  0  0  0
 28 30  1  0  0  0  0
 31 32  1  0  0  0  0
 33 31  1  0  0  0  0
 34 31  1  0  0  0  0
 35 36  1  0  0  0  0
 35 28  1  0  0  0  0
 37 42  1  0  0  0  0
 37 40  1  0  0  0  0
 38 37  1  0  0  0  0
 39 38  2  0  0  0  0
 42 41  1  0  0  0  0
M  END
>  <minimizedAffinity>
-11.7172947

$$$$

 OpenBabel11232419143D

 42 47  0  0  1  0  0  0  0  0999 V2000
   40.7770   47.8700   16.8160 C   0  0  0  0  0  0  0  0  0  0  0  0
   41.9400   47.8060   17.5950 C   0  0  0  0  0  3  0  0  0  0  0  0
   41.9780   46.9820   18.7220 C   0  0  0  0  0  3  0  0  0  0  0  0
   40.8460   46.2530   19.0840 C   0  0  0  0  0  0  0  0  0  0  0  0
   39.6810   46.3290   18.3120 C   0  0  0  0  0  0  0  0  0  0  0  0
   39.6400   47.1450   17.1820 C   0  0  0  0  0  3  0  0  0  0  0  0
   38.5590   45.5200   18.7240 C   0  0  0  0  0  0  0  0  0  0  0  0
   37.4320   45.2620   18.1020 N   0  0  0  0  0  0  0  0  0  0  0  0
   36.7260   44.4250   18.9430 C   0  0  0  0  0  0  0  0  0  0  0  0
   37.4430   44.1700   20.1080 C   0  0  0  0  0  0  0  0  0  0  0  0
   38.6100   44.8780   19.9260 N   0  0  0  0  0  0  0  0  0  0  0  0
   39.7290   45.0450   20.8340 C   0  0  0  0  0  2  0  0  0  0  0  0
   40.9560   45.4290   20.1760 O   0  0  0  0  0  0  0  0  0  0  0  0
   37.1780   43.3410   21.2760 C   0  0  0  0  0  0  0  0  0  0  0  0
   36.7090   42.0300   21.1240 C   0  0  0  0  0  3  0  0  0  0  0  0
   36.4480   41.2430   22.2470 C   0  0  0  0  0  3  0  0  0  0  0  0
   36.6550   41.7600   23.5240 C   0  0  0  0  0  3  0  0  0  0  0  0
   37.1250   43.0630   23.6830 C   0  0  0  0  0  3  0  0  0  0  0  0
   37.3870   43.8520   22.5620 C   0  0  0  0  0  3  0  0  0  0  0  0
   35.4130   43.9250   18.5600 C   0  0  0  0  0  0  0  0  0  0  0  0
   34.2960   44.0030   19.3920 C   0  0  0  0  0  3  0  0  0  0  0  0
   33.0450   43.5440   18.9540 C   0  0  0  0  0  3  0  0  0  0  0  0
   32.8510   42.9980   17.6690 C   0  0  0  0  0  0  0  0  0  0  0  0
   33.9950   42.9300   16.8480 C   0  0  0  0  0  3  0  0  0  0  0  0
   35.2450   43.3850   17.2820 C   0  0  0  0  0  3  0  0  0  0  0  0
   31.4340   42.5400   17.1570 C   0  0  1  0  0  0  0  0  0  0  0  0
   30.1460   43.1470   17.7920 C   0  0  0  0  0  2  0  0  0  0  0  0
   29.4620   42.9410   16.4050 C   0  0  1  0  0  0  0  0  0  0  0  0
   28.4500   44.0030   16.0220 C   0  0  0  0  0  1  0  0  0  0  0  0
   30.8900   43.0840   15.7970 C   0  0  0  0  0  2  0  0  0  0  0  0
   31.3980   41.0550   17.2020 N   0  0  0  0  0  4  0  0  0  0  0  0
   32.1080   40.6310   16.5960 H   0  0  0  0  0  0  0  0  0  0  0  0
   31.5510   40.6990   18.1530 H   0  0  0  0  0  0  0  0  0  0  0  0
   30.4680   40.7150   16.8900 H   0  0  0  0  0  0  0  0  0  0  0  0
   28.9130   41.6060   16.2410 O   0  0  0  0  0  0  0  0  0  0  0  0
   28.1840   41.6920   15.5910 H   0  0  0  0  0  0  0  0  0  0  0  0
   39.7640   48.5010   14.6560 N   0  0  0  0  0  0  0  0  0  0  0  0
   40.6950   48.7490   15.6310 C   0  0  0  0  0  0  0  0  0  0  0  0
   41.4520   49.7100   15.5410 O   0  0  0  0  0  0  0  0  0  0  0  0
   39.8490   49.1260   13.8620 H   0  0  0  0  0  0  0  0  0  0  0  0
   37.3550   48.1710   14.3520 C   0  0  0  0  0  1  0  0  0  0  0  0
   38.6930   47.5220   14.6520 C   0  0  0  0  0  2  0  0  0  0  0  0
  1  6  2  0  0  0  0
  1  2  1  0  0  0  0
  2  3  2  0  0  0  0
  3  4  1  0  0  0  0
  4 13  1  0  0  0  0
  5  7  1  0  0  0  0
  5  4  2  0  0  0  0
  6  5  1  0  0  0  0
  7 11  1  0  0  0  0
  8  7  2  0  0  0  0
  8  9  1  0  0  0  0
  9 10  2  0  0  0  0
 10 14  1  0  0  0  0
 11 10  1  0  0  0  0
 11 12  1  0  0  0  0
 13 12  1  0  0  0  0
 14 19  1  0  0  0  0
 15 14  2  0  0  0  0
 15 16  1  0  0  0  0
 16 17  2  0  0  0  0
 17 18  1  0  0  0  0
 19 18  2  0  0  0  0
 20  9  1  0  0  0  0
 20 21  1  0  0  0  0
 22 21  2  0  0  0  0
 23 22  1  0  0  0  0
 24 25  1  0  0  0  0
 24 23  2  0  0  0  0
 25 20  2  0  0  0  0
 26 31  1  1  0  0  0
 26 23  1  0  0  0  0
 26 27  1  0  0  0  0
 28 29  1  6  0  0  0
 28 27  1  0  0  0  0
 30 28  1  0  0  0  0
 30 26  1  0  0  0  0
 31 33  1  0  0  0  0
 32 31  1  0  0  0  0
 34 31  1  0  0  0  0
 35 28  1  0  0  0  0
 36 35  1  0  0  0  0
 37 38  1  0  0  0  0
 38  1  1  0  0  0  0
 39 38  2  0  0  0  0
 40 37  1  0  0  0  0
 41 42  1  0  0  0  0
 42 37  1  0  0  0  0
M  END
>  <minimizedAffinity>
-11.2103796

$$$$

 OpenBabel11232419143D

 42 47  0  0  1  0  0  0  0  0999 V2000
   38.5350   42.8320   25.4270 C   0  0  0  0  0  0  0  0  0  0  0  0
   39.8050   43.3600   25.6910 C   0  0  0  0  0  3  0  0  0  0  0  0
   40.4740   44.0890   24.7040 C   0  0  0  0  0  3  0  0  0  0  0  0
   39.8870   44.2580   23.4510 C   0  0  0  0  0  0  0  0  0  0  0  0
   38.6230   43.7180   23.1860 C   0  0  0  0  0  0  0  0  0  0  0  0
   37.9470   42.9950   24.1700 C   0  0  0  0  0  3  0  0  0  0  0  0
   38.0590   43.9610   21.8800 C   0  0  0  0  0  0  0  0  0  0  0  0
   36.8470   43.7350   21.4300 N   0  0  0  0  0  0  0  0  0  0  0  0
   36.8500   44.1680   20.1180 C   0  0  0  0  0  0  0  0  0  0  0  0
   38.0990   44.6680   19.7630 C   0  0  0  0  0  0  0  0  0  0  0  0
   38.8400   44.5280   20.9160 N   0  0  0  0  0  0  0  0  0  0  0  0
   40.2410   44.8240   21.1440 C   0  0  0  0  0  2  0  0  0  0  0  0
   40.5720   45.0170   22.5370 O   0  0  0  0  0  0  0  0  0  0  0  0
   38.6170   45.2710   18.5420 C   0  0  0  0  0  0  0  0  0  0  0  0
   39.7810   46.0480   18.5730 C   0  0  0  0  0  3  0  0  0  0  0  0
   40.2690   46.6310   17.4030 C   0  0  0  0  0  3  0  0  0  0  0  0
   39.5960   46.4410   16.1970 C   0  0  0  0  0  3  0  0  0  0  0  0
   38.4370   45.6670   16.1580 C   0  0  0  0  0  3  0  0  0  0  0  0
   37.9490   45.0820   17.3280 C   0  0  0  0  0  3  0  0  0  0  0  0
   35.6470   44.0750   19.3040 C   0  0  0  0  0  0  0  0  0  0  0  0
   35.0030   42.8680   19.0320 C   0  0  0  0  0  3  0  0  0  0  0  0
   33.8210   42.8410   18.2770 C   0  0  0  0  0  3  0  0  0  0  0  0
   33.2260   44.0140   17.7690 C   0  0  0  0  0  0  0  0  0  0  0  0
   33.8960   45.2210   18.0570 C   0  0  0  0  0  3  0  0  0  0  0  0
   35.0760   45.2510   18.8080 C   0  0  0  0  0  3  0  0  0  0  0  0
   31.8680   43.9900   16.9740 C   0  0  1  0  0  0  0  0  0  0  0  0
   31.6670   42.9700   15.8120 C   0  0  0  0  0  2  0  0  0  0  0  0
   30.1500   42.9770   16.1740 C   0  0  1  0  0  0  0  0  0  0  0  0
   29.4380   41.6510   15.9930 C   0  0  0  0  0  1  0  0  0  0  0  0
   30.6050   43.3360   17.6200 C   0  0  0  0  0  2  0  0  0  0  0  0
   31.5890   45.3760   16.5160 N   0  0  0  0  0  4  0  0  0  0  0  0
   31.4870   46.0290   17.3000 H   0  0  0  0  0  0  0  0  0  0  0  0
   32.3360   45.7340   15.9090 H   0  0  0  0  0  0  0  0  0  0  0  0
   30.7070   45.3960   15.9680 H   0  0  0  0  0  0  0  0  0  0  0  0
   29.4220   44.0580   15.5290 O   0  0  0  0  0  0  0  0  0  0  0  0
   28.4930   43.7530   15.4590 H   0  0  0  0  0  0  0  0  0  0  0  0
   36.7870   42.6050   27.1550 N   0  0  0  0  0  0  0  0  0  0  0  0
   37.8100   42.0370   26.4400 C   0  0  0  0  0  0  0  0  0  0  0  0
   38.1180   40.8630   26.6170 O   0  0  0  0  0  0  0  0  0  0  0  0
   36.4130   41.9880   27.8670 H   0  0  0  0  0  0  0  0  0  0  0  0
   36.9430   44.9770   27.7510 C   0  0  0  0  0  1  0  0  0  0  0  0
   36.1790   43.9120   26.9870 C   0  0  0  0  0  2  0  0  0  0  0  0
  1  2  1  0  0  0  0
  1 38  1  0  0  0  0
  3  2  2  0  0  0  0
  4  3  1  0  0  0  0
  5  4  2  0  0  0  0
  5  6  1  0  0  0  0
  6  1  2  0  0  0  0
  7  5  1  0  0  0  0
  8  7  2  0  0  0  0
  9  8  1  0  0  0  0
 10  9  2  0  0  0  0
 10 11  1  0  0  0  0
 11 12  1  0  0  0  0
 11  7  1  0  0  0  0
 12 13  1  0  0  0  0
 13  4  1  0  0  0  0
 14 15  1  0  0  0  0
 14 10  1  0  0  0  0
 16 15  2  0  0  0  0
 17 16  1  0  0  0  0
 18 17  2  0  0  0  0
 18 19  1  0  0  0  0
 19 14  2  0  0  0  0
 20  9  1  0  0  0  0
 21 20  1  0  0  0  0
 22 21  2  0  0  0  0
 23 24  2  0  0  0  0
 23 22  1  0  0  0  0
 24 25  1  0  0  0  0
 25 20  2  0  0  0  0
 26 31  1  6  0  0  0
 26 30  1  0  0  0  0
 26 23  1  0  0  0  0
 27 28  1  0  0  0  0
 27 26  1  0  0  0  0
 28 29  1  6  0  0  0
 28 30  1  0  0  0  0
 31 32  1  0  0  0  0
 33 31  1  0  0  0  0
 34 31  1  0  0  0  0
 35 28  1  0  0  0  0
 36 35  1  0  0  0  0
 37 40  1  0  0  0  0
 38 39  2  0  0  0  0
 38 37  1  0  0  0  0
 42 37  1  0  0  0  0
 42 41  1  0  0  0  0
M  END
>  <minimizedAffinity>
-10.8026533

$$$$

 OpenBabel11232419143D

 42 47  0  0  1  0  0  0  0  0999 V2000
   39.2630   47.7530   15.3440 C   0  0  0  0  0  0  0  0  0  0  0  0
   38.4440   47.9670   14.2290 C   0  0  0  0  0  3  0  0  0  0  0  0
   37.1760   47.3830   14.1740 C   0  0  0  0  0  3  0  0  0  0  0  0
   36.7470   46.5640   15.2180 C   0  0  0  0  0  0  0  0  0  0  0  0
   37.5720   46.3420   16.3260 C   0  0  0  0  0  0  0  0  0  0  0  0
   38.8370   46.9280   16.3880 C   0  0  0  0  0  3  0  0  0  0  0  0
   37.0500   45.5130   17.3860 C   0  0  0  0  0  0  0  0  0  0  0  0
   37.5210   45.2890   18.5910 N   0  0  0  0  0  0  0  0  0  0  0  0
   36.6200   44.4290   19.1880 C   0  0  0  0  0  0  0  0  0  0  0  0
   35.5760   44.1220   18.3220 C   0  0  0  0  0  0  0  0  0  0  0  0
   35.8810   44.8400   17.1860 N   0  0  0  0  0  0  0  0  0  0  0  0
   35.1870   44.8750   15.9120 C   0  0  0  0  0  2  0  0  0  0  0  0
   35.4770   46.0530   15.1280 O   0  0  0  0  0  0  0  0  0  0  0  0
   34.3740   43.3130   18.4630 C   0  0  0  0  0  0  0  0  0  0  0  0
   34.2970   42.0450   17.8730 C   0  0  0  0  0  3  0  0  0  0  0  0
   33.1390   41.2780   18.0040 C   0  0  0  0  0  3  0  0  0  0  0  0
   32.0530   41.7720   18.7250 C   0  0  0  0  0  3  0  0  0  0  0  0
   32.1230   43.0320   19.3180 C   0  0  0  0  0  3  0  0  0  0  0  0
   33.2810   43.8000   19.1880 C   0  0  0  0  0  3  0  0  0  0  0  0
   36.8280   43.9720   20.5550 C   0  0  0  0  0  0  0  0  0  0  0  0
   37.5750   44.6850   21.4910 C   0  0  0  0  0  3  0  0  0  0  0  0
   37.7070   44.2190   22.8080 C   0  0  0  0  0  3  0  0  0  0  0  0
   37.0920   43.0290   23.2490 C   0  0  0  0  0  0  0  0  0  0  0  0
   36.3430   42.3260   22.2840 C   0  0  0  0  0  3  0  0  0  0  0  0
   36.2110   42.7870   20.9700 C   0  0  0  0  0  3  0  0  0  0  0  0
   37.1890   42.5380   24.7420 C   0  0  1  0  0  0  0  0  0  0  0  0
   38.5760   42.1590   25.3450 C   0  0  0  0  0  2  0  0  0  0  0  0
   38.0150   42.6260   26.7230 C   0  0  1  0  0  0  0  0  0  0  0  0
   39.0260   43.2860   27.6410 C   0  0  0  0  0  1  0  0  0  0  0  0
   37.0880   43.5750   25.9050 C   0  0  0  0  0  2  0  0  0  0  0  0
   36.2150   41.4290   24.9150 N   0  0  0  0  0  4  0  0  0  0  0  0
   35.2500   41.7310   24.7410 H   0  0  0  0  0  0  0  0  0  0  0  0
   36.4130   40.6450   24.2820 H   0  0  0  0  0  0  0  0  0  0  0  0
   36.2640   41.0640   25.8860 H   0  0  0  0  0  0  0  0  0  0  0  0
   37.2780   41.5820   27.4150 O   0  0  0  0  0  0  0  0  0  0  0  0
   37.3390   41.7960   28.3700 H   0  0  0  0  0  0  0  0  0  0  0  0
   41.3590   48.2010   16.5700 N   0  0  0  0  0  0  0  0  0  0  0  0
   40.6190   48.3360   15.4240 C   0  0  0  0  0  0  0  0  0  0  0  0
   41.0800   48.9220   14.4490 O   0  0  0  0  0  0  0  0  0  0  0  0
   42.2400   48.7010   16.5320 H   0  0  0  0  0  0  0  0  0  0  0  0
   42.2220   47.4290   18.7290 C   0  0  0  0  0  1  0  0  0  0  0  0
   41.0570   47.4240   17.7580 C   0  0  0  0  0  2  0  0  0  0  0  0
  1 38  1  0  0  0  0
  1  6  1  0  0  0  0
  2  1  2  0  0  0  0
  3  2  1  0  0  0  0
  3  4  2  0  0  0  0
  4  5  1  0  0  0  0
  5  6  2  0  0  0  0
  5  7  1  0  0  0  0
  7  8  2  0  0  0  0
  8  9  1  0  0  0  0
  9 20  1  0  0  0  0
 10 14  1  0  0  0  0
 10  9  2  0  0  0  0
 11  7  1  0  0  0  0
 11 10  1  0  0  0  0
 12 11  1  0  0  0  0
 13  4  1  0  0  0  0
 13 12  1  0  0  0  0
 14 19  1  0  0  0  0
 15 16  1  0  0  0  0
 15 14  2  0  0  0  0
 16 17  2  0  0  0  0
 17 18  1  0  0  0  0
 19 18  2  0  0  0  0
 20 25  2  0  0  0  0
 20 21  1  0  0  0  0
 21 22  2  0  0  0  0
 22 23  1  0  0  0  0
 23 26  1  0  0  0  0
 24 23  2  0  0  0  0
 25 24  1  0  0  0  0
 26 31  1  1  0  0  0
 26 27  1  0  0  0  0
 26 30  1  0  0  0  0
 27 28  1  0  0  0  0
 28 35  1  0  0  0  0
 28 29  1  1  0  0  0
 30 28  1  0  0  0  0
 31 34  1  0  0  0  0
 32 31  1  0  0  0  0
 33 31  1  0  0  0  0
 35 36  1  0  0  0  0
 37 42  1  0  0  0  0
 38 37  1  0  0  0  0
 39 38  2  0  0  0  0
 40 37  1  0  0  0  0
 42 41  1  0  0  0  0
M  END
>  <minimizedAffinity>
-10.0779762

$$$$
