
 OpenBabel11232419143D

 42 47  0  0  1  0  0  0  0  0999 V2000
   39.7590   44.3800   21.5420 C   0  0  0  0  0  0  0  0  0  0  0  0
   40.9540   45.0470   21.2440 C   0  0  0  0  0  3  0  0  0  0  0  0
   41.0940   45.7130   20.0240 C   0  0  0  0  0  3  0  0  0  0  0  0
   40.0550   45.6820   19.0960 C   0  0  0  0  0  0  0  0  0  0  0  0
   38.8660   45.0040   19.3900 C   0  0  0  0  0  0  0  0  0  0  0  0
   38.7180   44.3430   20.6100 C   0  0  0  0  0  3  0  0  0  0  0  0
   37.8180   45.0430   18.3990 C   0  0  0  0  0  0  0  0  0  0  0  0
   36.5650   44.6580   18.4810 N   0  0  0  0  0  0  0  0  0  0  0  0
   36.0100   44.9350   17.2470 C   0  0  0  0  0  0  0  0  0  0  0  0
   36.9510   45.5010   16.3930 C   0  0  0  0  0  0  0  0  0  0  0  0
   38.0890   45.5620   17.1670 N   0  0  0  0  0  0  0  0  0  0  0  0
   39.4210   46.0070   16.8020 C   0  0  0  0  0  2  0  0  0  0  0  0
   40.2330   46.3890   17.9340 O   0  0  0  0  0  0  0  0  0  0  0  0
   36.8790   46.0020   15.0280 C   0  0  0  0  0  0  0  0  0  0  0  0
   36.8280   47.3790   14.7790 C   0  0  0  0  0  3  0  0  0  0  0  0
   36.7500   47.8540   13.4690 C   0  0  0  0  0  3  0  0  0  0  0  0
   36.7240   46.9580   12.4020 C   0  0  0  0  0  3  0  0  0  0  0  0
   36.7780   45.5850   12.6420 C   0  0  0  0  0  3  0  0  0  0  0  0
   36.8570   45.1080   13.9510 C   0  0  0  0  0  3  0  0  0  0  0  0
   34.6090   44.6400   16.9820 C   0  0  0  0  0  0  0  0  0  0  0  0
   33.9080   45.1780   15.9030 C   0  0  0  0  0  3  0  0  0  0  0  0
   32.5700   44.8260   15.6710 C   0  0  0  0  0  3  0  0  0  0  0  0
   31.8770   43.9180   16.4980 C   0  0  0  0  0  0  0  0  0  0  0  0
   32.6060   43.3890   17.5820 C   0  0  0  0  0  3  0  0  0  0  0  0
   33.9400   43.7400   17.8170 C   0  0  0  0  0  3  0  0  0  0  0  0
   30.3950   43.4760   16.2010 C   0  0  1  0  0  0  0  0  0  0  0  0
   30.0940   42.0050   15.7810 C   0  0  0  0  0  2  0  0  0  0  0  0
   28.7070   42.1760   16.4750 C   0  0  1  0  0  0  0  0  0  0  0  0
   28.1690   40.9330   17.1560 C   0  0  0  0  0  1  0  0  0  0  0  0
   29.4110   43.2250   17.3870 C   0  0  0  0  0  2  0  0  0  0  0  0
   29.8280   44.4350   15.2170 N   0  0  0  0  0  4  0  0  0  0  0  0
   29.8080   45.3950   15.5790 H   0  0  0  0  0  0  0  0  0  0  0  0
   30.3660   44.4450   14.3420 H   0  0  0  0  0  0  0  0  0  0  0  0
   28.8540   44.1640   14.9800 H   0  0  0  0  0  0  0  0  0  0  0  0
   27.7090   42.7710   15.6010 O   0  0  0  0  0  0  0  0  0  0  0  0
   26.8410   42.4610   15.9330 H   0  0  0  0  0  0  0  0  0  0  0  0
   38.3690   43.0970   23.1280 N   0  0  0  0  0  0  0  0  0  0  0  0
   39.5860   43.6460   22.8130 C   0  0  0  0  0  0  0  0  0  0  0  0
   40.5430   43.5170   23.5680 O   0  0  0  0  0  0  0  0  0  0  0  0
   38.3520   42.6810   24.0530 H   0  0  0  0  0  0  0  0  0  0  0  0
   36.7950   41.5640   22.0440 C   0  0  0  0  0  1  0  0  0  0  0  0
   37.1740   43.0090   22.3100 C   0  0  0  0  0  2  0  0  0  0  0  0
  1 38  1  0  0  0  0
  2  1  1  0  0  0  0
  3  2  2  0  0  0  0
  4  5  2  0  0  0  0
  4  3  1  0  0  0  0
  5  6  1  0  0  0  0
  6  1  2  0  0  0  0
  7  8  2  0  0  0  0
  7  5  1  0  0  0  0
  9  8  1  0  0  0  0
 10 11  1  0  0  0  0
 10  9  2  0  0  0  0
 11  7  1  0  0  0  0
 12 11  1  0  0  0  0
 12 13  1  0  0  0  0
 13  4  1  0  0  0  0
 14 10  1  0  0  0  0
 15 14  1  0  0  0  0
 16 15  2  0  0  0  0
 17 18  2  0  0  0  0
 17 16  1  0  0  0  0
 18 19  1  0  0  0  0
 19 14  2  0  0  0  0
 20  9  1  0  0  0  0
 20 25  1  0  0  0  0
 21 20  2  0  0  0  0
 22 21  1  0  0  0  0
 22 23  2  0  0  0  0
 23 24  1  0  0  0  0
 24 25  2  0  0  0  0
 26 31  1  6  0  0  0
 26 23  1  0  0  0  0
 26 30  1  0  0  0  0
 27 26  1  0  0  0  0
 27 28  1  0  0  0  0
 28 29  1  1  0  0  0
 28 30  1  0  0  0  0
 31 32  1  0  0  0  0
 33 31  1  0  0  0  0
 34 31  1  0  0  0  0
 35 36  1  0  0  0  0
 35 28  1  0  0  0  0
 37 40  1  0  0  0  0
 38 37  1  0  0  0  0
 38 39  2  0  0  0  0
 41 42  1  0  0  0  0
 42 37  1  0  0  0  0
M  END
>  <minimizedAffinity>
-11.8701277

$$$$
