
 OpenBabel11232419143D

 42 47  0  0  1  0  0  0  0  0999 V2000
   38.5350   42.8320   25.4270 C   0  0  0  0  0  0  0  0  0  0  0  0
   39.8050   43.3600   25.6910 C   0  0  0  0  0  3  0  0  0  0  0  0
   40.4740   44.0890   24.7040 C   0  0  0  0  0  3  0  0  0  0  0  0
   39.8870   44.2580   23.4510 C   0  0  0  0  0  0  0  0  0  0  0  0
   38.6230   43.7180   23.1860 C   0  0  0  0  0  0  0  0  0  0  0  0
   37.9470   42.9950   24.1700 C   0  0  0  0  0  3  0  0  0  0  0  0
   38.0590   43.9610   21.8800 C   0  0  0  0  0  0  0  0  0  0  0  0
   36.8470   43.7350   21.4300 N   0  0  0  0  0  0  0  0  0  0  0  0
   36.8500   44.1680   20.1180 C   0  0  0  0  0  0  0  0  0  0  0  0
   38.0990   44.6680   19.7630 C   0  0  0  0  0  0  0  0  0  0  0  0
   38.8400   44.5280   20.9160 N   0  0  0  0  0  0  0  0  0  0  0  0
   40.2410   44.8240   21.1440 C   0  0  0  0  0  2  0  0  0  0  0  0
   40.5720   45.0170   22.5370 O   0  0  0  0  0  0  0  0  0  0  0  0
   38.6170   45.2710   18.5420 C   0  0  0  0  0  0  0  0  0  0  0  0
   39.7810   46.0480   18.5730 C   0  0  0  0  0  3  0  0  0  0  0  0
   40.2690   46.6310   17.4030 C   0  0  0  0  0  3  0  0  0  0  0  0
   39.5960   46.4410   16.1970 C   0  0  0  0  0  3  0  0  0  0  0  0
   38.4370   45.6670   16.1580 C   0  0  0  0  0  3  0  0  0  0  0  0
   37.9490   45.0820   17.3280 C   0  0  0  0  0  3  0  0  0  0  0  0
   35.6470   44.0750   19.3040 C   0  0  0  0  0  0  0  0  0  0  0  0
   35.0030   42.8680   19.0320 C   0  0  0  0  0  3  0  0  0  0  0  0
   33.8210   42.8410   18.2770 C   0  0  0  0  0  3  0  0  0  0  0  0
   33.2260   44.0140   17.7690 C   0  0  0  0  0  0  0  0  0  0  0  0
   33.8960   45.2210   18.0570 C   0  0  0  0  0  3  0  0  0  0  0  0
   35.0760   45.2510   18.8080 C   0  0  0  0  0  3  0  0  0  0  0  0
   31.8680   43.9900   16.9740 C   0  0  1  0  0  0  0  0  0  0  0  0
   31.6670   42.9700   15.8120 C   0  0  0  0  0  2  0  0  0  0  0  0
   30.1500   42.9770   16.1740 C   0  0  1  0  0  0  0  0  0  0  0  0
   29.4380   41.6510   15.9930 C   0  0  0  0  0  1  0  0  0  0  0  0
   30.6050   43.3360   17.6200 C   0  0  0  0  0  2  0  0  0  0  0  0
   31.5890   45.3760   16.5160 N   0  0  0  0  0  4  0  0  0  0  0  0
   31.4870   46.0290   17.3000 H   0  0  0  0  0  0  0  0  0  0  0  0
   32.3360   45.7340   15.9090 H   0  0  0  0  0  0  0  0  0  0  0  0
   30.7070   45.3960   15.9680 H   0  0  0  0  0  0  0  0  0  0  0  0
   29.4220   44.0580   15.5290 O   0  0  0  0  0  0  0  0  0  0  0  0
   28.4930   43.7530   15.4590 H   0  0  0  0  0  0  0  0  0  0  0  0
   36.7870   42.6050   27.1550 N   0  0  0  0  0  0  0  0  0  0  0  0
   37.8100   42.0370   26.4400 C   0  0  0  0  0  0  0  0  0  0  0  0
   38.1180   40.8630   26.6170 O   0  0  0  0  0  0  0  0  0  0  0  0
   36.4130   41.9880   27.8670 H   0  0  0  0  0  0  0  0  0  0  0  0
   36.9430   44.9770   27.7510 C   0  0  0  0  0  1  0  0  0  0  0  0
   36.1790   43.9120   26.9870 C   0  0  0  0  0  2  0  0  0  0  0  0
  1  2  1  0  0  0  0
  1 38  1  0  0  0  0
  3  2  2  0  0  0  0
  4  3  1  0  0  0  0
  5  4  2  0  0  0  0
  5  6  1  0  0  0  0
  6  1  2  0  0  0  0
  7  5  1  0  0  0  0
  8  7  2  0  0  0  0
  9  8  1  0  0  0  0
 10  9  2  0  0  0  0
 10 11  1  0  0  0  0
 11 12  1  0  0  0  0
 11  7  1  0  0  0  0
 12 13  1  0  0  0  0
 13  4  1  0  0  0  0
 14 15  1  0  0  0  0
 14 10  1  0  0  0  0
 16 15  2  0  0  0  0
 17 16  1  0  0  0  0
 18 17  2  0  0  0  0
 18 19  1  0  0  0  0
 19 14  2  0  0  0  0
 20  9  1  0  0  0  0
 21 20  1  0  0  0  0
 22 21  2  0  0  0  0
 23 24  2  0  0  0  0
 23 22  1  0  0  0  0
 24 25  1  0  0  0  0
 25 20  2  0  0  0  0
 26 31  1  6  0  0  0
 26 30  1  0  0  0  0
 26 23  1  0  0  0  0
 27 28  1  0  0  0  0
 27 26  1  0  0  0  0
 28 29  1  6  0  0  0
 28 30  1  0  0  0  0
 31 32  1  0  0  0  0
 33 31  1  0  0  0  0
 34 31  1  0  0  0  0
 35 28  1  0  0  0  0
 36 35  1  0  0  0  0
 37 40  1  0  0  0  0
 38 39  2  0  0  0  0
 38 37  1  0  0  0  0
 42 37  1  0  0  0  0
 42 41  1  0  0  0  0
M  END
>  <minimizedAffinity>
-10.8026533

$$$$
