
 OpenBabel11232419143D

 42 47  0  0  1  0  0  0  0  0999 V2000
   41.2340   45.2260   20.8980 C   0  0  0  0  0  0  0  0  0  0  0  0
   42.2210   46.1240   20.4750 C   0  0  0  0  0  3  0  0  0  0  0  0
   42.0730   46.8020   19.2630 C   0  0  0  0  0  3  0  0  0  0  0  0
   40.9560   46.5550   18.4650 C   0  0  0  0  0  0  0  0  0  0  0  0
   39.9770   45.6470   18.8840 C   0  0  0  0  0  0  0  0  0  0  0  0
   40.1170   44.9720   20.0970 C   0  0  0  0  0  3  0  0  0  0  0  0
   38.8300   45.4660   18.0270 C   0  0  0  0  0  0  0  0  0  0  0  0
   37.7030   44.8310   18.2490 N   0  0  0  0  0  0  0  0  0  0  0  0
   36.9570   44.9840   17.0960 C   0  0  0  0  0  0  0  0  0  0  0  0
   37.6510   45.7300   16.1490 C   0  0  0  0  0  0  0  0  0  0  0  0
   38.8380   46.0270   16.7830 N   0  0  0  0  0  0  0  0  0  0  0  0
   39.9950   46.7370   16.2720 C   0  0  0  0  0  2  0  0  0  0  0  0
   40.8440   47.2810   17.3070 O   0  0  0  0  0  0  0  0  0  0  0  0
   37.3120   46.2030   14.8140 C   0  0  0  0  0  0  0  0  0  0  0  0
   37.2240   47.5750   14.5480 C   0  0  0  0  0  3  0  0  0  0  0  0
   36.8900   48.0220   13.2690 C   0  0  0  0  0  3  0  0  0  0  0  0
   36.6430   47.1030   12.2510 C   0  0  0  0  0  3  0  0  0  0  0  0
   36.7320   45.7360   12.5080 C   0  0  0  0  0  3  0  0  0  0  0  0
   37.0670   45.2860   13.7860 C   0  0  0  0  0  3  0  0  0  0  0  0
   35.6240   44.4060   16.9950 C   0  0  0  0  0  0  0  0  0  0  0  0
   35.3940   43.0330   16.9140 C   0  0  0  0  0  3  0  0  0  0  0  0
   34.0860   42.5290   16.8610 C   0  0  0  0  0  3  0  0  0  0  0  0
   32.9540   43.3680   16.8960 C   0  0  0  0  0  0  0  0  0  0  0  0
   33.2130   44.7510   16.9770 C   0  0  0  0  0  3  0  0  0  0  0  0
   34.5160   45.2580   17.0280 C   0  0  0  0  0  3  0  0  0  0  0  0
   31.4860   42.7980   16.8990 C   0  0  1  0  0  0  0  0  0  0  0  0
   30.3710   43.5300   17.7060 C   0  0  0  0  0  2  0  0  0  0  0  0
   29.3650   43.0060   16.6360 C   0  0  1  0  0  0  0  0  0  0  0  0
   28.2190   43.9460   16.3140 C   0  0  0  0  0  1  0  0  0  0  0  0
   30.5710   43.0100   15.6500 C   0  0  0  0  0  2  0  0  0  0  0  0
   31.5620   41.3640   17.2800 N   0  0  0  0  0  4  0  0  0  0  0  0
   32.1160   40.8140   16.6140 H   0  0  0  0  0  0  0  0  0  0  0  0
   31.9810   41.2380   18.2090 H   0  0  0  0  0  0  0  0  0  0  0  0
   30.6070   40.9560   17.3130 H   0  0  0  0  0  0  0  0  0  0  0  0
   28.8810   41.6660   16.9260 O   0  0  0  0  0  0  0  0  0  0  0  0
   28.0040   41.5960   16.4940 H   0  0  0  0  0  0  0  0  0  0  0  0
   41.1210   45.0950   23.3610 N   0  0  0  0  0  0  0  0  0  0  0  0
   41.3710   44.4750   22.1640 C   0  0  0  0  0  0  0  0  0  0  0  0
   41.6900   43.2910   22.1290 O   0  0  0  0  0  0  0  0  0  0  0  0
   41.3160   44.5030   24.1600 H   0  0  0  0  0  0  0  0  0  0  0  0
   39.0750   46.4210   23.6040 C   0  0  0  0  0  1  0  0  0  0  0  0
   40.5920   46.4250   23.6000 C   0  0  0  0  0  2  0  0  0  0  0  0
  1 38  1  0  0  0  0
  2  1  1  0  0  0  0
  3  2  2  0  0  0  0
  4  5  2  0  0  0  0
  4  3  1  0  0  0  0
  5  6  1  0  0  0  0
  6  1  2  0  0  0  0
  7  8  2  0  0  0  0
  7  5  1  0  0  0  0
  9  8  1  0  0  0  0
 10 11  1  0  0  0  0
 10  9  2  0  0  0  0
 11  7  1  0  0  0  0
 12 11  1  0  0  0  0
 12 13  1  0  0  0  0
 13  4  1  0  0  0  0
 14 10  1  0  0  0  0
 15 14  1  0  0  0  0
 16 15  2  0  0  0  0
 17 18  2  0  0  0  0
 17 16  1  0  0  0  0
 18 19  1  0  0  0  0
 19 14  2  0  0  0  0
 20 25  1  0  0  0  0
 20  9  1  0  0  0  0
 21 20  2  0  0  0  0
 22 23  2  0  0  0  0
 22 21  1  0  0  0  0
 23 26  1  0  0  0  0
 23 24  1  0  0  0  0
 24 25  2  0  0  0  0
 26 31  1  1  0  0  0
 26 27  1  0  0  0  0
 28 29  1  6  0  0  0
 28 35  1  0  0  0  0
 28 27  1  0  0  0  0
 30 28  1  0  0  0  0
 30 26  1  0  0  0  0
 31 34  1  0  0  0  0
 31 33  1  0  0  0  0
 32 31  1  0  0  0  0
 36 35  1  0  0  0  0
 37 42  1  0  0  0  0
 37 40  1  0  0  0  0
 38 37  1  0  0  0  0
 39 38  2  0  0  0  0
 42 41  1  0  0  0  0
M  END
>  <minimizedAffinity>
-13.0533743

$$$$
