
 OpenBabel11232420163D

 42 48  0  0  1  0  0  0  0  0999 V2000
   -8.7110   -9.8880   10.3200 C   0  0  0  0  0  0  0  0  0  0  0  0
   -8.8530  -10.9870   11.1530 N   0  0  0  0  0  0  0  0  0  0  0  0
   -7.7940  -10.9880   11.9280 C   0  0  0  0  0  0  0  0  0  0  0  0
   -6.9250  -10.0010   11.5650 N   0  0  0  0  0  0  0  0  0  0  0  0
   -7.5320   -9.2060   10.6170 C   0  0  0  0  0  0  0  0  0  0  0  0
   -5.7050   -9.7530   12.3140 C   0  0  0  0  0  2  0  0  0  0  0  0
   -5.2290  -10.9190   13.0230 O   0  0  0  0  0  0  0  0  0  0  0  0
   -6.1980  -11.6880   13.6160 C   0  0  0  0  0  0  0  0  0  0  0  0
   -5.8450  -12.4150   14.7480 C   0  0  0  0  0  3  0  0  0  0  0  0
   -6.8130  -13.1790   15.4070 C   0  0  0  0  0  3  0  0  0  0  0  0
   -8.1300  -13.2450   14.9220 C   0  0  0  0  0  0  0  0  0  0  0  0
   -8.4520  -12.5660   13.7400 C   0  0  0  0  0  3  0  0  0  0  0  0
   -7.4900  -11.7840   13.0950 C   0  0  0  0  0  0  0  0  0  0  0  0
   -9.1650  -13.9730   15.6480 C   0  0  0  0  0  0  0  0  0  0  0  0
   -9.5180  -13.9850   16.9830 C   0  0  0  0  0  3  0  0  0  0  0  0
  -10.5490  -14.9350   17.0880 C   0  0  0  0  0  3  0  0  0  0  0  0
  -10.8330  -15.5040   15.9160 N   0  0  0  0  0  0  0  0  0  0  0  0
   -9.9860  -14.9060   15.0620 N   0  0  0  0  0  0  0  0  0  0  0  0
   -9.9990  -15.2000   14.0920 H   0  0  0  0  0  0  0  0  0  0  0  0
  -11.9660   -8.7460    7.6610 C   0  0  0  0  0  0  0  0  0  0  0  0
  -12.1630   -9.1780    8.9900 C   0  0  0  0  0  3  0  0  0  0  0  0
  -11.0990   -9.5510    9.8270 C   0  0  0  0  0  3  0  0  0  0  0  0
   -9.7730   -9.5320    9.3810 C   0  0  0  0  0  0  0  0  0  0  0  0
   -9.5560   -9.1720    8.0540 C   0  0  0  0  0  3  0  0  0  0  0  0
  -10.6220   -8.7830    7.2270 C   0  0  0  0  0  3  0  0  0  0  0  0
  -14.0190   -5.5650    4.7250 C   0  0  0  0  0  1  0  0  0  0  0  0
  -13.0790   -6.3130    5.6600 C   0  0  1  0  0  0  0  0  0  0  0  0
  -13.7740   -6.8390    6.9410 C   0  0  0  0  0  2  0  0  0  0  0  0
  -13.1500   -8.2430    6.6910 C   0  0  1  0  0  0  0  0  0  0  0  0
  -12.7800   -7.7780    5.2550 C   0  0  0  0  0  2  0  0  0  0  0  0
  -14.2270   -9.2660    6.6530 N   0  0  0  0  0  4  0  0  0  0  0  0
  -13.9020  -10.1340    6.2080 H   0  0  0  0  0  0  0  0  0  0  0  0
  -14.5360   -9.5020    7.6070 H   0  0  0  0  0  0  0  0  0  0  0  0
  -15.0570   -8.9560    6.1350 H   0  0  0  0  0  0  0  0  0  0  0  0
  -11.9120   -5.5100    5.9160 O   0  0  0  0  0  0  0  0  0  0  0  0
  -11.5710   -5.2180    5.0490 H   0  0  0  0  0  0  0  0  0  0  0  0
   -7.0110   -7.8980   10.2460 C   0  0  0  0  0  0  0  0  0  0  0  0
   -7.2050   -6.7830   11.0660 C   0  0  0  0  0  3  0  0  0  0  0  0
   -6.7210   -5.5340   10.6710 C   0  0  0  0  0  3  0  0  0  0  0  0
   -6.0440   -5.3950    9.4590 C   0  0  0  0  0  3  0  0  0  0  0  0
   -5.8470   -6.5040    8.6390 C   0  0  0  0  0  3  0  0  0  0  0  0
   -6.3300   -7.7520    9.0310 C   0  0  0  0  0  3  0  0  0  0  0  0
  1  5  2  0  0  0  0
  1  2  1  0  0  0  0
  2  3  2  0  0  0  0
  3 13  1  0  0  0  0
  4  3  1  0  0  0  0
  4  6  1  0  0  0  0
  5  4  1  0  0  0  0
  6  7  1  0  0  0  0
  7  8  1  0  0  0  0
  8  9  1  0  0  0  0
  9 10  2  0  0  0  0
 11 10  1  0  0  0  0
 11 14  1  0  0  0  0
 12 11  2  0  0  0  0
 13  8  2  0  0  0  0
 13 12  1  0  0  0  0
 14 15  2  0  0  0  0
 15 16  1  0  0  0  0
 17 16  2  0  0  0  0
 18 14  1  0  0  0  0
 18 17  1  0  0  0  0
 19 18  1  0  0  0  0
 20 21  1  0  0  0  0
 21 22  2  0  0  0  0
 23 22  1  0  0  0  0
 23  1  1  0  0  0  0
 24 23  2  0  0  0  0
 25 20  2  0  0  0  0
 25 24  1  0  0  0  0
 27 26  1  6  0  0  0
 27 35  1  0  0  0  0
 27 28  1  0  0  0  0
 29 31  1  6  0  0  0
 29 28  1  0  0  0  0
 29 20  1  0  0  0  0
 30 27  1  0  0  0  0
 30 29  1  0  0  0  0
 31 33  1  0  0  0  0
 32 31  1  0  0  0  0
 34 31  1  0  0  0  0
 36 35  1  0  0  0  0
 37  5  1  0  0  0  0
 37 38  1  0  0  0  0
 39 38  2  0  0  0  0
 40 39  1  0  0  0  0
 41 42  1  0  0  0  0
 41 40  2  0  0  0  0
 42 37  2  0  0  0  0
M  END
>  <minimizedAffinity>
-5.49672794

$$$$
