
 OpenBabel11232420163D

 42 48  0  0  1  0  0  0  0  0999 V2000
   -5.6910   -6.9450   12.8940 C   0  0  0  0  0  0  0  0  0  0  0  0
   -4.3510   -6.8110   13.2210 N   0  0  0  0  0  0  0  0  0  0  0  0
   -4.3000   -5.8860   14.1510 C   0  0  0  0  0  0  0  0  0  0  0  0
   -5.5340   -5.3440   14.3650 N   0  0  0  0  0  0  0  0  0  0  0  0
   -6.4650   -6.0770   13.6630 C   0  0  0  0  0  0  0  0  0  0  0  0
   -5.7530   -4.3440   15.3950 C   0  0  0  0  0  2  0  0  0  0  0  0
   -4.5610   -3.5930   15.7190 O   0  0  0  0  0  0  0  0  0  0  0  0
   -3.3990   -4.3200   15.7700 C   0  0  0  0  0  0  0  0  0  0  0  0
   -2.3870   -3.8660   16.6100 C   0  0  0  0  0  3  0  0  0  0  0  0
   -1.2030   -4.6000   16.7240 C   0  0  0  0  0  3  0  0  0  0  0  0
   -1.0110   -5.7750   15.9780 C   0  0  0  0  0  0  0  0  0  0  0  0
   -2.0090   -6.1800   15.0820 C   0  0  0  0  0  3  0  0  0  0  0  0
   -3.2010   -5.4590   14.9860 C   0  0  0  0  0  0  0  0  0  0  0  0
    0.1860   -6.5910   16.1510 C   0  0  0  0  0  0  0  0  0  0  0  0
    1.2150   -6.5320   17.0710 C   0  0  0  0  0  3  0  0  0  0  0  0
    2.1170   -7.5410   16.6870 C   0  0  0  0  0  3  0  0  0  0  0  0
    1.7110   -8.1940   15.5970 N   0  0  0  0  0  0  0  0  0  0  0  0
    0.5430   -7.6030   15.2930 N   0  0  0  0  0  0  0  0  0  0  0  0
    0.0480   -7.9200   14.4670 H   0  0  0  0  0  0  0  0  0  0  0  0
   -7.0180  -10.1040   10.2040 C   0  0  0  0  0  0  0  0  0  0  0  0
   -6.3690  -10.3500   11.4340 C   0  0  0  0  0  3  0  0  0  0  0  0
   -5.9410   -9.3160   12.2800 C   0  0  0  0  0  3  0  0  0  0  0  0
   -6.1190   -7.9700   11.9440 C   0  0  0  0  0  0  0  0  0  0  0  0
   -6.6980   -7.6980   10.7070 C   0  0  0  0  0  3  0  0  0  0  0  0
   -7.1410   -8.7360    9.8720 C   0  0  0  0  0  3  0  0  0  0  0  0
   -6.8680  -14.4530    8.2020 C   0  0  0  0  0  1  0  0  0  0  0  0
   -6.6000  -13.2020    9.0260 C   0  0  1  0  0  0  0  0  0  0  0  0
   -6.6290  -11.8970    8.1910 C   0  0  0  0  0  2  0  0  0  0  0  0
   -7.5880  -11.2590    9.2380 C   0  0  1  0  0  0  0  0  0  0  0  0
   -7.8120  -12.6760    9.8350 C   0  0  0  0  0  2  0  0  0  0  0  0
   -8.8160  -10.7730    8.5570 N   0  0  0  0  0  4  0  0  0  0  0  0
   -9.5800  -10.6210    9.2270 H   0  0  0  0  0  0  0  0  0  0  0  0
   -8.6370   -9.8780    8.0810 H   0  0  0  0  0  0  0  0  0  0  0  0
   -9.1670  -11.4270    7.8460 H   0  0  0  0  0  0  0  0  0  0  0  0
   -5.3960  -13.3770    9.7930 O   0  0  0  0  0  0  0  0  0  0  0  0
   -5.4760  -14.2320   10.2590 H   0  0  0  0  0  0  0  0  0  0  0  0
   -7.8950   -5.9650   13.9110 C   0  0  0  0  0  0  0  0  0  0  0  0
   -8.5310   -6.7740   14.8570 C   0  0  0  0  0  3  0  0  0  0  0  0
   -9.9100   -6.6670   15.0540 C   0  0  0  0  0  3  0  0  0  0  0  0
  -10.6550   -5.7530   14.3080 C   0  0  0  0  0  3  0  0  0  0  0  0
  -10.0260   -4.9430   13.3650 C   0  0  0  0  0  3  0  0  0  0  0  0
   -8.6500   -5.0490   13.1670 C   0  0  0  0  0  3  0  0  0  0  0  0
  1  2  1  0  0  0  0
  1  5  2  0  0  0  0
  2  3  2  0  0  0  0
  3  4  1  0  0  0  0
  3 13  1  0  0  0  0
  4  6  1  0  0  0  0
  5 37  1  0  0  0  0
  5  4  1  0  0  0  0
  6  7  1  0  0  0  0
  7  8  1  0  0  0  0
  8  9  1  0  0  0  0
  9 10  2  0  0  0  0
 11 14  1  0  0  0  0
 11 10  1  0  0  0  0
 12 11  2  0  0  0  0
 13 12  1  0  0  0  0
 13  8  2  0  0  0  0
 14 15  2  0  0  0  0
 16 15  1  0  0  0  0
 17 16  2  0  0  0  0
 18 17  1  0  0  0  0
 18 14  1  0  0  0  0
 19 18  1  0  0  0  0
 20 21  1  0  0  0  0
 21 22  2  0  0  0  0
 23 22  1  0  0  0  0
 23  1  1  0  0  0  0
 24 23  2  0  0  0  0
 25 20  2  0  0  0  0
 25 24  1  0  0  0  0
 27 26  1  6  0  0  0
 27 35  1  0  0  0  0
 27 30  1  0  0  0  0
 28 27  1  0  0  0  0
 28 29  1  0  0  0  0
 29 31  1  6  0  0  0
 29 30  1  0  0  0  0
 29 20  1  0  0  0  0
 31 32  1  0  0  0  0
 33 31  1  0  0  0  0
 34 31  1  0  0  0  0
 35 36  1  0  0  0  0
 37 38  1  0  0  0  0
 38 39  2  0  0  0  0
 40 39  1  0  0  0  0
 41 40  2  0  0  0  0
 42 41  1  0  0  0  0
 42 37  2  0  0  0  0
M  END
>  <minimizedAffinity>
-5.4307642

$$$$
