
 OpenBabel11232420163D

 42 48  0  0  1  0  0  0  0  0999 V2000
   -6.6650  -10.1190    9.4760 C   0  0  0  0  0  0  0  0  0  0  0  0
   -5.5280   -9.6000   10.0750 N   0  0  0  0  0  0  0  0  0  0  0  0
   -5.8060   -8.3470   10.3460 C   0  0  0  0  0  0  0  0  0  0  0  0
   -7.0330   -8.0050    9.8550 N   0  0  0  0  0  0  0  0  0  0  0  0
   -7.6580   -9.1440    9.3970 C   0  0  0  0  0  0  0  0  0  0  0  0
   -7.6000   -6.6870   10.0840 C   0  0  0  0  0  2  0  0  0  0  0  0
   -6.5960   -5.6710   10.3120 O   0  0  0  0  0  0  0  0  0  0  0  0
   -5.5320   -6.0530   11.0880 C   0  0  0  0  0  0  0  0  0  0  0  0
   -4.8820   -5.0700   11.8270 C   0  0  0  0  0  3  0  0  0  0  0  0
   -3.8190   -5.4240   12.6630 C   0  0  0  0  0  3  0  0  0  0  0  0
   -3.3810   -6.7550   12.7440 C   0  0  0  0  0  0  0  0  0  0  0  0
   -3.9970   -7.7230   11.9390 C   0  0  0  0  0  3  0  0  0  0  0  0
   -5.0740   -7.3730   11.1210 C   0  0  0  0  0  0  0  0  0  0  0  0
   -2.3270   -7.1480   13.6740 C   0  0  0  0  0  0  0  0  0  0  0  0
   -2.2400   -7.0750   15.0500 C   0  0  0  0  0  3  0  0  0  0  0  0
   -0.9540   -7.5440   15.3690 C   0  0  0  0  0  3  0  0  0  0  0  0
   -0.2560   -7.8820   14.2840 N   0  0  0  0  0  0  0  0  0  0  0  0
   -1.1060   -7.6340   13.2730 N   0  0  0  0  0  0  0  0  0  0  0  0
   -0.7820   -7.7940   12.3260 H   0  0  0  0  0  0  0  0  0  0  0  0
   -7.0420  -14.3450    8.4900 C   0  0  0  0  0  0  0  0  0  0  0  0
   -7.6400  -13.7550    9.6240 C   0  0  0  0  0  3  0  0  0  0  0  0
   -7.4980  -12.3920    9.9270 C   0  0  0  0  0  3  0  0  0  0  0  0
   -6.7330  -11.5370    9.1260 C   0  0  0  0  0  0  0  0  0  0  0  0
   -6.0790  -12.1070    8.0380 C   0  0  0  0  0  3  0  0  0  0  0  0
   -6.2390  -13.4670    7.7280 C   0  0  0  0  0  3  0  0  0  0  0  0
   -8.3560  -17.8020    5.4450 C   0  0  0  0  0  1  0  0  0  0  0  0
   -8.0390  -16.4730    6.1150 C   0  0  1  0  0  0  0  0  0  0  0  0
   -8.6290  -16.3470    7.5420 C   0  0  0  0  0  2  0  0  0  0  0  0
   -7.2380  -15.8870    8.0660 C   0  0  1  0  0  0  0  0  0  0  0  0
   -6.6190  -16.3680    6.7240 C   0  0  0  0  0  2  0  0  0  0  0  0
   -6.8130  -16.7660    9.1870 N   0  0  0  0  0  4  0  0  0  0  0  0
   -5.8030  -16.6890    9.3610 H   0  0  0  0  0  0  0  0  0  0  0  0
   -7.2990  -16.5040   10.0570 H   0  0  0  0  0  0  0  0  0  0  0  0
   -7.0140  -17.7580    9.0170 H   0  0  0  0  0  0  0  0  0  0  0  0
   -8.3980  -15.3910    5.2370 O   0  0  0  0  0  0  0  0  0  0  0  0
   -7.9940  -15.5830    4.3680 H   0  0  0  0  0  0  0  0  0  0  0  0
   -9.0830   -9.1870    9.1000 C   0  0  0  0  0  0  0  0  0  0  0  0
  -10.0140   -9.5590   10.0730 C   0  0  0  0  0  3  0  0  0  0  0  0
  -11.3720   -9.6210    9.7520 C   0  0  0  0  0  3  0  0  0  0  0  0
  -11.8020   -9.3130    8.4620 C   0  0  0  0  0  3  0  0  0  0  0  0
  -10.8780   -8.9390    7.4880 C   0  0  0  0  0  3  0  0  0  0  0  0
   -9.5220   -8.8770    7.8060 C   0  0  0  0  0  3  0  0  0  0  0  0
  1  2  1  0  0  0  0
  2  3  2  0  0  0  0
  3 13  1  0  0  0  0
  4  6  1  0  0  0  0
  4  3  1  0  0  0  0
  5  1  2  0  0  0  0
  5  4  1  0  0  0  0
  6  7  1  0  0  0  0
  7  8  1  0  0  0  0
  8 13  2  0  0  0  0
  8  9  1  0  0  0  0
  9 10  2  0  0  0  0
 10 11  1  0  0  0  0
 11 14  1  0  0  0  0
 12 11  2  0  0  0  0
 13 12  1  0  0  0  0
 14 15  2  0  0  0  0
 15 16  1  0  0  0  0
 17 16  2  0  0  0  0
 18 14  1  0  0  0  0
 18 17  1  0  0  0  0
 19 18  1  0  0  0  0
 20 21  1  0  0  0  0
 21 22  2  0  0  0  0
 23  1  1  0  0  0  0
 23 22  1  0  0  0  0
 24 23  2  0  0  0  0
 25 24  1  0  0  0  0
 25 20  2  0  0  0  0
 27 26  1  6  0  0  0
 27 30  1  0  0  0  0
 27 28  1  0  0  0  0
 28 29  1  0  0  0  0
 29 20  1  0  0  0  0
 29 31  1  1  0  0  0
 30 29  1  0  0  0  0
 31 32  1  0  0  0  0
 31 33  1  0  0  0  0
 34 31  1  0  0  0  0
 35 27  1  0  0  0  0
 36 35  1  0  0  0  0
 37  5  1  0  0  0  0
 37 38  1  0  0  0  0
 39 38  2  0  0  0  0
 40 39  1  0  0  0  0
 41 42  1  0  0  0  0
 41 40  2  0  0  0  0
 42 37  2  0  0  0  0
M  END
>  <minimizedAffinity>
-5.73861837

$$$$

 OpenBabel11232420163D

 42 48  0  0  1  0  0  0  0  0999 V2000
   -8.7110   -9.8880   10.3200 C   0  0  0  0  0  0  0  0  0  0  0  0
   -8.8530  -10.9870   11.1530 N   0  0  0  0  0  0  0  0  0  0  0  0
   -7.7940  -10.9880   11.9280 C   0  0  0  0  0  0  0  0  0  0  0  0
   -6.9250  -10.0010   11.5650 N   0  0  0  0  0  0  0  0  0  0  0  0
   -7.5320   -9.2060   10.6170 C   0  0  0  0  0  0  0  0  0  0  0  0
   -5.7050   -9.7530   12.3140 C   0  0  0  0  0  2  0  0  0  0  0  0
   -5.2290  -10.9190   13.0230 O   0  0  0  0  0  0  0  0  0  0  0  0
   -6.1980  -11.6880   13.6160 C   0  0  0  0  0  0  0  0  0  0  0  0
   -5.8450  -12.4150   14.7480 C   0  0  0  0  0  3  0  0  0  0  0  0
   -6.8130  -13.1790   15.4070 C   0  0  0  0  0  3  0  0  0  0  0  0
   -8.1300  -13.2450   14.9220 C   0  0  0  0  0  0  0  0  0  0  0  0
   -8.4520  -12.5660   13.7400 C   0  0  0  0  0  3  0  0  0  0  0  0
   -7.4900  -11.7840   13.0950 C   0  0  0  0  0  0  0  0  0  0  0  0
   -9.1650  -13.9730   15.6480 C   0  0  0  0  0  0  0  0  0  0  0  0
   -9.5180  -13.9850   16.9830 C   0  0  0  0  0  3  0  0  0  0  0  0
  -10.5490  -14.9350   17.0880 C   0  0  0  0  0  3  0  0  0  0  0  0
  -10.8330  -15.5040   15.9160 N   0  0  0  0  0  0  0  0  0  0  0  0
   -9.9860  -14.9060   15.0620 N   0  0  0  0  0  0  0  0  0  0  0  0
   -9.9990  -15.2000   14.0920 H   0  0  0  0  0  0  0  0  0  0  0  0
  -11.9660   -8.7460    7.6610 C   0  0  0  0  0  0  0  0  0  0  0  0
  -12.1630   -9.1780    8.9900 C   0  0  0  0  0  3  0  0  0  0  0  0
  -11.0990   -9.5510    9.8270 C   0  0  0  0  0  3  0  0  0  0  0  0
   -9.7730   -9.5320    9.3810 C   0  0  0  0  0  0  0  0  0  0  0  0
   -9.5560   -9.1720    8.0540 C   0  0  0  0  0  3  0  0  0  0  0  0
  -10.6220   -8.7830    7.2270 C   0  0  0  0  0  3  0  0  0  0  0  0
  -14.0190   -5.5650    4.7250 C   0  0  0  0  0  1  0  0  0  0  0  0
  -13.0790   -6.3130    5.6600 C   0  0  1  0  0  0  0  0  0  0  0  0
  -13.7740   -6.8390    6.9410 C   0  0  0  0  0  2  0  0  0  0  0  0
  -13.1500   -8.2430    6.6910 C   0  0  1  0  0  0  0  0  0  0  0  0
  -12.7800   -7.7780    5.2550 C   0  0  0  0  0  2  0  0  0  0  0  0
  -14.2270   -9.2660    6.6530 N   0  0  0  0  0  4  0  0  0  0  0  0
  -13.9020  -10.1340    6.2080 H   0  0  0  0  0  0  0  0  0  0  0  0
  -14.5360   -9.5020    7.6070 H   0  0  0  0  0  0  0  0  0  0  0  0
  -15.0570   -8.9560    6.1350 H   0  0  0  0  0  0  0  0  0  0  0  0
  -11.9120   -5.5100    5.9160 O   0  0  0  0  0  0  0  0  0  0  0  0
  -11.5710   -5.2180    5.0490 H   0  0  0  0  0  0  0  0  0  0  0  0
   -7.0110   -7.8980   10.2460 C   0  0  0  0  0  0  0  0  0  0  0  0
   -7.2050   -6.7830   11.0660 C   0  0  0  0  0  3  0  0  0  0  0  0
   -6.7210   -5.5340   10.6710 C   0  0  0  0  0  3  0  0  0  0  0  0
   -6.0440   -5.3950    9.4590 C   0  0  0  0  0  3  0  0  0  0  0  0
   -5.8470   -6.5040    8.6390 C   0  0  0  0  0  3  0  0  0  0  0  0
   -6.3300   -7.7520    9.0310 C   0  0  0  0  0  3  0  0  0  0  0  0
  1  5  2  0  0  0  0
  1  2  1  0  0  0  0
  2  3  2  0  0  0  0
  3 13  1  0  0  0  0
  4  3  1  0  0  0  0
  4  6  1  0  0  0  0
  5  4  1  0  0  0  0
  6  7  1  0  0  0  0
  7  8  1  0  0  0  0
  8  9  1  0  0  0  0
  9 10  2  0  0  0  0
 11 10  1  0  0  0  0
 11 14  1  0  0  0  0
 12 11  2  0  0  0  0
 13  8  2  0  0  0  0
 13 12  1  0  0  0  0
 14 15  2  0  0  0  0
 15 16  1  0  0  0  0
 17 16  2  0  0  0  0
 18 14  1  0  0  0  0
 18 17  1  0  0  0  0
 19 18  1  0  0  0  0
 20 21  1  0  0  0  0
 21 22  2  0  0  0  0
 23 22  1  0  0  0  0
 23  1  1  0  0  0  0
 24 23  2  0  0  0  0
 25 20  2  0  0  0  0
 25 24  1  0  0  0  0
 27 26  1  6  0  0  0
 27 35  1  0  0  0  0
 27 28  1  0  0  0  0
 29 31  1  6  0  0  0
 29 28  1  0  0  0  0
 29 20  1  0  0  0  0
 30 27  1  0  0  0  0
 30 29  1  0  0  0  0
 31 33  1  0  0  0  0
 32 31  1  0  0  0  0
 34 31  1  0  0  0  0
 36 35  1  0  0  0  0
 37  5  1  0  0  0  0
 37 38  1  0  0  0  0
 39 38  2  0  0  0  0
 40 39  1  0  0  0  0
 41 42  1  0  0  0  0
 41 40  2  0  0  0  0
 42 37  2  0  0  0  0
M  END
>  <minimizedAffinity>
-5.49672794

$$$$

 OpenBabel11232420163D

 42 48  0  0  1  0  0  0  0  0999 V2000
   -8.3920   -9.3500    9.9690 C   0  0  0  0  0  0  0  0  0  0  0  0
   -9.1200   -8.9020    8.8790 N   0  0  0  0  0  0  0  0  0  0  0  0
  -10.0070   -9.8380    8.6310 C   0  0  0  0  0  0  0  0  0  0  0  0
   -9.8170  -10.9150    9.4470 N   0  0  0  0  0  0  0  0  0  0  0  0
   -8.8680  -10.5900   10.3920 C   0  0  0  0  0  0  0  0  0  0  0  0
  -10.7140  -12.0570    9.4140 C   0  0  0  0  0  2  0  0  0  0  0  0
  -11.3840  -12.2150    8.1430 O   0  0  0  0  0  0  0  0  0  0  0  0
  -11.8060  -11.0520    7.5480 C   0  0  0  0  0  0  0  0  0  0  0  0
  -12.9140  -11.1190    6.7100 C   0  0  0  0  0  3  0  0  0  0  0  0
  -13.4020   -9.9500    6.1170 C   0  0  0  0  0  3  0  0  0  0  0  0
  -12.7700   -8.7160    6.3340 C   0  0  0  0  0  0  0  0  0  0  0  0
  -11.6120   -8.6760    7.1220 C   0  0  0  0  0  3  0  0  0  0  0  0
  -11.1380   -9.8400    7.7330 C   0  0  0  0  0  0  0  0  0  0  0  0
  -13.3190   -7.4800    5.7860 C   0  0  0  0  0  0  0  0  0  0  0  0
  -14.5490   -7.1870    5.2300 C   0  0  0  0  0  3  0  0  0  0  0  0
  -14.4630   -5.8430    4.8230 C   0  0  0  0  0  3  0  0  0  0  0  0
  -13.2690   -5.3120    5.0830 N   0  0  0  0  0  0  0  0  0  0  0  0
  -12.5960   -6.3190    5.6650 N   0  0  0  0  0  0  0  0  0  0  0  0
  -11.6320   -6.1560    5.9350 H   0  0  0  0  0  0  0  0  0  0  0  0
   -5.4030   -6.8650   11.9350 C   0  0  0  0  0  0  0  0  0  0  0  0
   -6.7200   -7.0270   12.4170 C   0  0  0  0  0  3  0  0  0  0  0  0
   -7.6700   -7.8250   11.7620 C   0  0  0  0  0  3  0  0  0  0  0  0
   -7.3690   -8.4990   10.5730 C   0  0  0  0  0  0  0  0  0  0  0  0
   -6.0970   -8.3050   10.0410 C   0  0  0  0  0  3  0  0  0  0  0  0
   -5.1450   -7.5190   10.7100 C   0  0  0  0  0  3  0  0  0  0  0  0
   -3.9110   -3.5920   15.0990 C   0  0  0  0  0  1  0  0  0  0  0  0
   -4.7350   -4.5420   14.2410 C   0  0  1  0  0  0  0  0  0  0  0  0
   -4.3890   -4.4650   12.7330 C   0  0  0  0  0  2  0  0  0  0  0  0
   -4.2630   -6.0160   12.6920 C   0  0  1  0  0  0  0  0  0  0  0  0
   -4.2540   -6.0150   14.2460 C   0  0  0  0  0  2  0  0  0  0  0  0
   -2.9280   -6.3930   12.1580 N   0  0  0  0  0  4  0  0  0  0  0  0
   -2.6970   -7.3690   12.3860 H   0  0  0  0  0  0  0  0  0  0  0  0
   -2.9100   -6.3010   11.1330 H   0  0  0  0  0  0  0  0  0  0  0  0
   -2.1690   -5.8100   12.5270 H   0  0  0  0  0  0  0  0  0  0  0  0
   -6.1330   -4.3640   14.5290 O   0  0  0  0  0  0  0  0  0  0  0  0
   -6.2320   -4.4100   15.5000 H   0  0  0  0  0  0  0  0  0  0  0  0
   -8.6550  -11.3900   11.5900 C   0  0  0  0  0  0  0  0  0  0  0  0
   -9.3500  -11.1200   12.7730 C   0  0  0  0  0  3  0  0  0  0  0  0
   -9.1040  -11.8830   13.9160 C   0  0  0  0  0  3  0  0  0  0  0  0
   -8.1660  -12.9150   13.8830 C   0  0  0  0  0  3  0  0  0  0  0  0
   -7.4720  -13.1890   12.7060 C   0  0  0  0  0  3  0  0  0  0  0  0
   -7.7150  -12.4280   11.5630 C   0  0  0  0  0  3  0  0  0  0  0  0
  1  5  2  0  0  0  0
  1 23  1  0  0  0  0
  2  1  1  0  0  0  0
  3  2  2  0  0  0  0
  3  4  1  0  0  0  0
  4  5  1  0  0  0  0
  5 37  1  0  0  0  0
  6  4  1  0  0  0  0
  7  6  1  0  0  0  0
  8 13  1  0  0  0  0
  8  7  1  0  0  0  0
  9  8  2  0  0  0  0
 10 11  2  0  0  0  0
 10  9  1  0  0  0  0
 11 12  1  0  0  0  0
 12 13  2  0  0  0  0
 13  3  1  0  0  0  0
 14 11  1  0  0  0  0
 15 14  2  0  0  0  0
 16 17  2  0  0  0  0
 16 15  1  0  0  0  0
 17 18  1  0  0  0  0
 18 14  1  0  0  0  0
 18 19  1  0  0  0  0
 20 21  1  0  0  0  0
 20 29  1  0  0  0  0
 22 21  2  0  0  0  0
 23 22  1  0  0  0  0
 24 23  2  0  0  0  0
 24 25  1  0  0  0  0
 25 20  2  0  0  0  0
 27 30  1  0  0  0  0
 27 35  1  0  0  0  0
 27 26  1  1  0  0  0
 28 27  1  0  0  0  0
 29 31  1  6  0  0  0
 29 28  1  0  0  0  0
 29 30  1  0  0  0  0
 31 32  1  0  0  0  0
 31 34  1  0  0  0  0
 33 31  1  0  0  0  0
 35 36  1  0  0  0  0
 37 38  1  0  0  0  0
 38 39  2  0  0  0  0
 40 39  1  0  0  0  0
 41 40  2  0  0  0  0
 42 37  2  0  0  0  0
 42 41  1  0  0  0  0
M  END
>  <minimizedAffinity>
-5.45829535

$$$$

 OpenBabel11232420163D

 42 48  0  0  1  0  0  0  0  0999 V2000
   -5.6910   -6.9450   12.8940 C   0  0  0  0  0  0  0  0  0  0  0  0
   -4.3510   -6.8110   13.2210 N   0  0  0  0  0  0  0  0  0  0  0  0
   -4.3000   -5.8860   14.1510 C   0  0  0  0  0  0  0  0  0  0  0  0
   -5.5340   -5.3440   14.3650 N   0  0  0  0  0  0  0  0  0  0  0  0
   -6.4650   -6.0770   13.6630 C   0  0  0  0  0  0  0  0  0  0  0  0
   -5.7530   -4.3440   15.3950 C   0  0  0  0  0  2  0  0  0  0  0  0
   -4.5610   -3.5930   15.7190 O   0  0  0  0  0  0  0  0  0  0  0  0
   -3.3990   -4.3200   15.7700 C   0  0  0  0  0  0  0  0  0  0  0  0
   -2.3870   -3.8660   16.6100 C   0  0  0  0  0  3  0  0  0  0  0  0
   -1.2030   -4.6000   16.7240 C   0  0  0  0  0  3  0  0  0  0  0  0
   -1.0110   -5.7750   15.9780 C   0  0  0  0  0  0  0  0  0  0  0  0
   -2.0090   -6.1800   15.0820 C   0  0  0  0  0  3  0  0  0  0  0  0
   -3.2010   -5.4590   14.9860 C   0  0  0  0  0  0  0  0  0  0  0  0
    0.1860   -6.5910   16.1510 C   0  0  0  0  0  0  0  0  0  0  0  0
    1.2150   -6.5320   17.0710 C   0  0  0  0  0  3  0  0  0  0  0  0
    2.1170   -7.5410   16.6870 C   0  0  0  0  0  3  0  0  0  0  0  0
    1.7110   -8.1940   15.5970 N   0  0  0  0  0  0  0  0  0  0  0  0
    0.5430   -7.6030   15.2930 N   0  0  0  0  0  0  0  0  0  0  0  0
    0.0480   -7.9200   14.4670 H   0  0  0  0  0  0  0  0  0  0  0  0
   -7.0180  -10.1040   10.2040 C   0  0  0  0  0  0  0  0  0  0  0  0
   -6.3690  -10.3500   11.4340 C   0  0  0  0  0  3  0  0  0  0  0  0
   -5.9410   -9.3160   12.2800 C   0  0  0  0  0  3  0  0  0  0  0  0
   -6.1190   -7.9700   11.9440 C   0  0  0  0  0  0  0  0  0  0  0  0
   -6.6980   -7.6980   10.7070 C   0  0  0  0  0  3  0  0  0  0  0  0
   -7.1410   -8.7360    9.8720 C   0  0  0  0  0  3  0  0  0  0  0  0
   -6.8680  -14.4530    8.2020 C   0  0  0  0  0  1  0  0  0  0  0  0
   -6.6000  -13.2020    9.0260 C   0  0  1  0  0  0  0  0  0  0  0  0
   -6.6290  -11.8970    8.1910 C   0  0  0  0  0  2  0  0  0  0  0  0
   -7.5880  -11.2590    9.2380 C   0  0  1  0  0  0  0  0  0  0  0  0
   -7.8120  -12.6760    9.8350 C   0  0  0  0  0  2  0  0  0  0  0  0
   -8.8160  -10.7730    8.5570 N   0  0  0  0  0  4  0  0  0  0  0  0
   -9.5800  -10.6210    9.2270 H   0  0  0  0  0  0  0  0  0  0  0  0
   -8.6370   -9.8780    8.0810 H   0  0  0  0  0  0  0  0  0  0  0  0
   -9.1670  -11.4270    7.8460 H   0  0  0  0  0  0  0  0  0  0  0  0
   -5.3960  -13.3770    9.7930 O   0  0  0  0  0  0  0  0  0  0  0  0
   -5.4760  -14.2320   10.2590 H   0  0  0  0  0  0  0  0  0  0  0  0
   -7.8950   -5.9650   13.9110 C   0  0  0  0  0  0  0  0  0  0  0  0
   -8.5310   -6.7740   14.8570 C   0  0  0  0  0  3  0  0  0  0  0  0
   -9.9100   -6.6670   15.0540 C   0  0  0  0  0  3  0  0  0  0  0  0
  -10.6550   -5.7530   14.3080 C   0  0  0  0  0  3  0  0  0  0  0  0
  -10.0260   -4.9430   13.3650 C   0  0  0  0  0  3  0  0  0  0  0  0
   -8.6500   -5.0490   13.1670 C   0  0  0  0  0  3  0  0  0  0  0  0
  1  2  1  0  0  0  0
  1  5  2  0  0  0  0
  2  3  2  0  0  0  0
  3  4  1  0  0  0  0
  3 13  1  0  0  0  0
  4  6  1  0  0  0  0
  5 37  1  0  0  0  0
  5  4  1  0  0  0  0
  6  7  1  0  0  0  0
  7  8  1  0  0  0  0
  8  9  1  0  0  0  0
  9 10  2  0  0  0  0
 11 14  1  0  0  0  0
 11 10  1  0  0  0  0
 12 11  2  0  0  0  0
 13 12  1  0  0  0  0
 13  8  2  0  0  0  0
 14 15  2  0  0  0  0
 16 15  1  0  0  0  0
 17 16  2  0  0  0  0
 18 17  1  0  0  0  0
 18 14  1  0  0  0  0
 19 18  1  0  0  0  0
 20 21  1  0  0  0  0
 21 22  2  0  0  0  0
 23 22  1  0  0  0  0
 23  1  1  0  0  0  0
 24 23  2  0  0  0  0
 25 20  2  0  0  0  0
 25 24  1  0  0  0  0
 27 26  1  6  0  0  0
 27 35  1  0  0  0  0
 27 30  1  0  0  0  0
 28 27  1  0  0  0  0
 28 29  1  0  0  0  0
 29 31  1  6  0  0  0
 29 30  1  0  0  0  0
 29 20  1  0  0  0  0
 31 32  1  0  0  0  0
 33 31  1  0  0  0  0
 34 31  1  0  0  0  0
 35 36  1  0  0  0  0
 37 38  1  0  0  0  0
 38 39  2  0  0  0  0
 40 39  1  0  0  0  0
 41 40  2  0  0  0  0
 42 41  1  0  0  0  0
 42 37  2  0  0  0  0
M  END
>  <minimizedAffinity>
-5.4307642

$$$$

 OpenBabel11232420163D

 42 48  0  0  1  0  0  0  0  0999 V2000
   -8.0630  -12.4150    9.2240 C   0  0  0  0  0  0  0  0  0  0  0  0
   -9.1900  -12.6780    8.4600 N   0  0  0  0  0  0  0  0  0  0  0  0
   -9.5840  -13.8810    8.8050 C   0  0  0  0  0  0  0  0  0  0  0  0
   -8.7040  -14.4480    9.6800 N   0  0  0  0  0  0  0  0  0  0  0  0
   -7.7840  -13.4950   10.0590 C   0  0  0  0  0  0  0  0  0  0  0  0
   -8.9520  -15.7550   10.2630 C   0  0  0  0  0  2  0  0  0  0  0  0
   -9.8050  -16.5880    9.4450 O   0  0  0  0  0  0  0  0  0  0  0  0
  -10.8570  -15.9460    8.8430 C   0  0  0  0  0  0  0  0  0  0  0  0
  -11.9990  -16.6910    8.5690 C   0  0  0  0  0  3  0  0  0  0  0  0
  -13.1100  -16.0660    7.9940 C   0  0  0  0  0  3  0  0  0  0  0  0
  -13.0750  -14.7010    7.6630 C   0  0  0  0  0  0  0  0  0  0  0  0
  -11.8930  -13.9810    7.8780 C   0  0  0  0  0  3  0  0  0  0  0  0
  -10.7910  -14.6000    8.4730 C   0  0  0  0  0  0  0  0  0  0  0  0
  -14.2550  -14.0220    7.1390 C   0  0  0  0  0  0  0  0  0  0  0  0
  -15.5480  -14.4580    6.9210 C   0  0  0  0  0  3  0  0  0  0  0  0
  -16.2160  -13.3680    6.3360 C   0  0  0  0  0  3  0  0  0  0  0  0
  -15.4180  -12.3130    6.1760 N   0  0  0  0  0  0  0  0  0  0  0  0
  -14.2390  -12.7310    6.6690 N   0  0  0  0  0  0  0  0  0  0  0  0
  -13.4520  -12.0940    6.6300 H   0  0  0  0  0  0  0  0  0  0  0  0
   -6.2630   -8.4490    9.1380 C   0  0  0  0  0  0  0  0  0  0  0  0
   -7.6570   -8.6710    9.1420 C   0  0  0  0  0  3  0  0  0  0  0  0
   -8.2160   -9.9580    9.1600 C   0  0  0  0  0  3  0  0  0  0  0  0
   -7.4160  -11.1060    9.1570 C   0  0  0  0  0  0  0  0  0  0  0  0
   -6.0380  -10.9170    9.0880 C   0  0  0  0  0  3  0  0  0  0  0  0
   -5.4840   -9.6270    9.0880 C   0  0  0  0  0  3  0  0  0  0  0  0
   -5.8290   -3.9980   10.8530 C   0  0  0  0  0  1  0  0  0  0  0  0
   -6.2410   -5.4380   10.5840 C   0  0  1  0  0  0  0  0  0  0  0  0
   -6.4950   -5.7350    9.0850 C   0  0  0  0  0  2  0  0  0  0  0  0
   -5.5820   -6.9910    9.1880 C   0  0  1  0  0  0  0  0  0  0  0  0
   -5.0770   -6.4600   10.5590 C   0  0  0  0  0  2  0  0  0  0  0  0
   -4.5070   -6.9110    8.1650 N   0  0  0  0  0  4  0  0  0  0  0  0
   -3.7320   -7.5490    8.3860 H   0  0  0  0  0  0  0  0  0  0  0  0
   -4.8710   -7.1730    7.2370 H   0  0  0  0  0  0  0  0  0  0  0  0
   -4.1060   -5.9700    8.0760 H   0  0  0  0  0  0  0  0  0  0  0  0
   -7.3370   -5.7950   11.4440 O   0  0  0  0  0  0  0  0  0  0  0  0
   -7.0790   -5.5480   12.3530 H   0  0  0  0  0  0  0  0  0  0  0  0
   -6.9030  -13.6730   11.2050 C   0  0  0  0  0  0  0  0  0  0  0  0
   -7.2980  -13.2860   12.4890 C   0  0  0  0  0  3  0  0  0  0  0  0
   -6.4220  -13.4400   13.5650 C   0  0  0  0  0  3  0  0  0  0  0  0
   -5.1510  -13.9800   13.3630 C   0  0  0  0  0  3  0  0  0  0  0  0
   -4.7530  -14.3690   12.0860 C   0  0  0  0  0  3  0  0  0  0  0  0
   -5.6260  -14.2150   11.0090 C   0  0  0  0  0  3  0  0  0  0  0  0
  1  5  2  0  0  0  0
  2  3  2  0  0  0  0
  2  1  1  0  0  0  0
  3  4  1  0  0  0  0
  4  5  1  0  0  0  0
  4  6  1  0  0  0  0
  5 37  1  0  0  0  0
  7  6  1  0  0  0  0
  8  7  1  0  0  0  0
  9  8  1  0  0  0  0
 10  9  2  0  0  0  0
 11 12  2  0  0  0  0
 11 10  1  0  0  0  0
 12 13  1  0  0  0  0
 13  3  1  0  0  0  0
 13  8  2  0  0  0  0
 14 11  1  0  0  0  0
 15 14  2  0  0  0  0
 16 15  1  0  0  0  0
 17 16  2  0  0  0  0
 17 18  1  0  0  0  0
 18 14  1  0  0  0  0
 19 18  1  0  0  0  0
 20 21  1  0  0  0  0
 20 29  1  0  0  0  0
 21 22  2  0  0  0  0
 23 22  1  0  0  0  0
 23  1  1  0  0  0  0
 24 23  2  0  0  0  0
 25 24  1  0  0  0  0
 25 20  2  0  0  0  0
 27 26  1  1  0  0  0
 27 35  1  0  0  0  0
 28 29  1  0  0  0  0
 28 27  1  0  0  0  0
 29 31  1  6  0  0  0
 29 30  1  0  0  0  0
 30 27  1  0  0  0  0
 31 32  1  0  0  0  0
 33 31  1  0  0  0  0
 34 31  1  0  0  0  0
 35 36  1  0  0  0  0
 37 38  1  0  0  0  0
 38 39  2  0  0  0  0
 40 39  1  0  0  0  0
 41 40  2  0  0  0  0
 42 37  2  0  0  0  0
 42 41  1  0  0  0  0
M  END
>  <minimizedAffinity>
-5.29151726

$$$$

 OpenBabel11232420163D

 42 48  0  0  1  0  0  0  0  0999 V2000
   -8.7900  -10.0550   10.1910 C   0  0  0  0  0  0  0  0  0  0  0  0
   -8.3100   -9.1730   11.1460 N   0  0  0  0  0  0  0  0  0  0  0  0
   -7.3190   -9.7930   11.7410 C   0  0  0  0  0  0  0  0  0  0  0  0
   -7.2030  -11.0740   11.2850 N   0  0  0  0  0  0  0  0  0  0  0  0
   -8.0520  -11.2370   10.2110 C   0  0  0  0  0  0  0  0  0  0  0  0
   -6.1360  -11.9480   11.7410 C   0  0  0  0  0  2  0  0  0  0  0  0
   -5.6340  -11.5920   13.0500 O   0  0  0  0  0  0  0  0  0  0  0  0
   -5.5070  -10.2470   13.2890 C   0  0  0  0  0  0  0  0  0  0  0  0
   -4.5320   -9.8400   14.1950 C   0  0  0  0  0  3  0  0  0  0  0  0
   -4.3420   -8.4760   14.4370 C   0  0  0  0  0  3  0  0  0  0  0  0
   -5.1410   -7.5150   13.7980 C   0  0  0  0  0  0  0  0  0  0  0  0
   -6.1660   -7.9430   12.9450 C   0  0  0  0  0  3  0  0  0  0  0  0
   -6.3420   -9.3040   12.6860 C   0  0  0  0  0  0  0  0  0  0  0  0
   -4.8960   -6.0880   13.9820 C   0  0  0  0  0  0  0  0  0  0  0  0
   -4.0850   -5.1990   13.3030 C   0  0  0  0  0  3  0  0  0  0  0  0
   -4.2190   -3.9760   13.9860 C   0  0  0  0  0  3  0  0  0  0  0  0
   -5.0410   -4.0690   15.0320 N   0  0  0  0  0  0  0  0  0  0  0  0
   -5.4370   -5.3530   15.0080 N   0  0  0  0  0  0  0  0  0  0  0  0
   -6.0610   -5.6730   15.7400 H   0  0  0  0  0  0  0  0  0  0  0  0
  -12.0380   -8.7570    7.5950 C   0  0  0  0  0  0  0  0  0  0  0  0
  -12.2390   -9.2790    8.8910 C   0  0  0  0  0  3  0  0  0  0  0  0
  -11.1780   -9.7010    9.7060 C   0  0  0  0  0  3  0  0  0  0  0  0
   -9.8490   -9.6430    9.2720 C   0  0  0  0  0  0  0  0  0  0  0  0
   -9.6270   -9.1920    7.9740 C   0  0  0  0  0  3  0  0  0  0  0  0
  -10.6910   -8.7540    7.1680 C   0  0  0  0  0  3  0  0  0  0  0  0
  -14.0160   -5.4700    4.7250 C   0  0  0  0  0  1  0  0  0  0  0  0
  -13.0890   -6.2640    5.6340 C   0  0  1  0  0  0  0  0  0  0  0  0
  -13.7780   -6.7700    6.9260 C   0  0  0  0  0  2  0  0  0  0  0  0
  -13.2200   -8.1970    6.6550 C   0  0  1  0  0  0  0  0  0  0  0  0
  -12.8610   -7.7380    5.2140 C   0  0  0  0  0  2  0  0  0  0  0  0
  -14.3390   -9.1740    6.6330 N   0  0  0  0  0  4  0  0  0  0  0  0
  -14.0610  -10.0510    6.1760 H   0  0  0  0  0  0  0  0  0  0  0  0
  -14.6380   -9.4030    7.5920 H   0  0  0  0  0  0  0  0  0  0  0  0
  -15.1670   -8.8250    6.1350 H   0  0  0  0  0  0  0  0  0  0  0  0
  -11.8840   -5.5130    5.8700 O   0  0  0  0  0  0  0  0  0  0  0  0
  -11.5490   -5.2300    4.9980 H   0  0  0  0  0  0  0  0  0  0  0  0
   -7.9530  -12.3720    9.3040 C   0  0  0  0  0  0  0  0  0  0  0  0
   -8.7910  -13.4830    9.4420 C   0  0  0  0  0  3  0  0  0  0  0  0
   -8.6540  -14.5710    8.5770 C   0  0  0  0  0  3  0  0  0  0  0  0
   -7.6840  -14.5530    7.5750 C   0  0  0  0  0  3  0  0  0  0  0  0
   -6.8470  -13.4480    7.4330 C   0  0  0  0  0  3  0  0  0  0  0  0
   -6.9810  -12.3600    8.2960 C   0  0  0  0  0  3  0  0  0  0  0  0
  1  5  2  0  0  0  0
  1  2  1  0  0  0  0
  2  3  2  0  0  0  0
  3 13  1  0  0  0  0
  4  3  1  0  0  0  0
  4  6  1  0  0  0  0
  5  4  1  0  0  0  0
  6  7  1  0  0  0  0
  7  8  1  0  0  0  0
  8  9  1  0  0  0  0
  9 10  2  0  0  0  0
 11 14  1  0  0  0  0
 11 10  1  0  0  0  0
 12 11  2  0  0  0  0
 13 12  1  0  0  0  0
 13  8  2  0  0  0  0
 14 18  1  0  0  0  0
 15 14  2  0  0  0  0
 15 16  1  0  0  0  0
 16 17  2  0  0  0  0
 18 17  1  0  0  0  0
 18 19  1  0  0  0  0
 20 21  1  0  0  0  0
 21 22  2  0  0  0  0
 23 22  1  0  0  0  0
 23  1  1  0  0  0  0
 24 23  2  0  0  0  0
 25 20  2  0  0  0  0
 25 24  1  0  0  0  0
 27 26  1  6  0  0  0
 27 35  1  0  0  0  0
 27 28  1  0  0  0  0
 29 31  1  6  0  0  0
 29 28  1  0  0  0  0
 29 20  1  0  0  0  0
 30 27  1  0  0  0  0
 30 29  1  0  0  0  0
 31 33  1  0  0  0  0
 32 31  1  0  0  0  0
 34 31  1  0  0  0  0
 36 35  1  0  0  0  0
 37 38  1  0  0  0  0
 37  5  1  0  0  0  0
 39 38  2  0  0  0  0
 40 39  1  0  0  0  0
 41 40  2  0  0  0  0
 41 42  1  0  0  0  0
 42 37  2  0  0  0  0
M  END
>  <minimizedAffinity>
-5.24436951

$$$$

 OpenBabel11232420163D

 42 48  0  0  1  0  0  0  0  0999 V2000
   -9.1870   -9.5890    9.3760 C   0  0  0  0  0  0  0  0  0  0  0  0
  -10.1480   -9.2340    8.4420 N   0  0  0  0  0  0  0  0  0  0  0  0
  -10.8610  -10.3160    8.2330 C   0  0  0  0  0  0  0  0  0  0  0  0
  -10.3410  -11.3800    8.9100 N   0  0  0  0  0  0  0  0  0  0  0  0
   -9.3400  -10.9260    9.7420 C   0  0  0  0  0  0  0  0  0  0  0  0
  -10.9900  -12.6790    8.8950 C   0  0  0  0  0  2  0  0  0  0  0  0
  -11.8040  -12.8910    7.7190 O   0  0  0  0  0  0  0  0  0  0  0  0
  -12.5320  -11.8070    7.2990 C   0  0  0  0  0  0  0  0  0  0  0  0
  -13.7210  -12.0490    6.6190 C   0  0  0  0  0  3  0  0  0  0  0  0
  -14.5140  -10.9720    6.2100 C   0  0  0  0  0  3  0  0  0  0  0  0
  -14.1100   -9.6490    6.4530 C   0  0  0  0  0  0  0  0  0  0  0  0
  -12.8750   -9.4200    7.0750 C   0  0  0  0  0  3  0  0  0  0  0  0
  -12.0940  -10.4960    7.5020 C   0  0  0  0  0  0  0  0  0  0  0  0
  -14.9690   -8.5220    6.1040 C   0  0  0  0  0  0  0  0  0  0  0  0
  -14.9020   -7.5970    5.0810 C   0  0  0  0  0  3  0  0  0  0  0  0
  -15.9730   -6.7140    5.3060 C   0  0  0  0  0  3  0  0  0  0  0  0
  -16.6710   -7.0330    6.3960 N   0  0  0  0  0  0  0  0  0  0  0  0
  -16.0460   -8.1290    6.8600 N   0  0  0  0  0  0  0  0  0  0  0  0
  -16.3910   -8.5480    7.7170 H   0  0  0  0  0  0  0  0  0  0  0  0
   -6.4790   -6.4960   10.8150 C   0  0  0  0  0  0  0  0  0  0  0  0
   -6.5270   -6.9240    9.4710 C   0  0  0  0  0  3  0  0  0  0  0  0
   -7.4010   -7.9300    9.0310 C   0  0  0  0  0  3  0  0  0  0  0  0
   -8.2700   -8.5840    9.9100 C   0  0  0  0  0  0  0  0  0  0  0  0
   -8.1980   -8.2270   11.2540 C   0  0  0  0  0  3  0  0  0  0  0  0
   -7.3340   -7.2070   11.6860 C   0  0  0  0  0  3  0  0  0  0  0  0
   -3.5700   -4.4580   14.0300 C   0  0  0  0  0  1  0  0  0  0  0  0
   -4.4830   -5.4030   13.2610 C   0  0  1  0  0  0  0  0  0  0  0  0
   -5.7930   -4.7330   12.7750 C   0  0  0  0  0  2  0  0  0  0  0  0
   -5.5430   -5.2990   11.3470 C   0  0  1  0  0  0  0  0  0  0  0  0
   -4.0890   -5.6370   11.7810 C   0  0  0  0  0  2  0  0  0  0  0  0
   -5.5530   -4.1870   10.3620 N   0  0  0  0  0  4  0  0  0  0  0  0
   -5.1100   -4.4660    9.4780 H   0  0  0  0  0  0  0  0  0  0  0  0
   -6.5200   -3.9010   10.1490 H   0  0  0  0  0  0  0  0  0  0  0  0
   -5.0590   -3.3500   10.6950 H   0  0  0  0  0  0  0  0  0  0  0  0
   -4.6900   -6.6040   14.0250 O   0  0  0  0  0  0  0  0  0  0  0  0
   -3.8080   -6.9260   14.2950 H   0  0  0  0  0  0  0  0  0  0  0  0
   -8.7930  -11.7380   10.8200 C   0  0  0  0  0  0  0  0  0  0  0  0
   -7.6580  -12.5300   10.6240 C   0  0  0  0  0  3  0  0  0  0  0  0
   -7.1720  -13.3220   11.6660 C   0  0  0  0  0  3  0  0  0  0  0  0
   -7.8160  -13.3270   12.9030 C   0  0  0  0  0  3  0  0  0  0  0  0
   -8.9470  -12.5380   13.1040 C   0  0  0  0  0  3  0  0  0  0  0  0
   -9.4350  -11.7460   12.0650 C   0  0  0  0  0  3  0  0  0  0  0  0
  1  5  2  0  0  0  0
  1 23  1  0  0  0  0
  2  1  1  0  0  0  0
  3  2  2  0  0  0  0
  3  4  1  0  0  0  0
  4  5  1  0  0  0  0
  5 37  1  0  0  0  0
  6  4  1  0  0  0  0
  7  6  1  0  0  0  0
  8 13  1  0  0  0  0
  8  7  1  0  0  0  0
  9  8  2  0  0  0  0
 10 11  2  0  0  0  0
 10  9  1  0  0  0  0
 11 12  1  0  0  0  0
 12 13  2  0  0  0  0
 13  3  1  0  0  0  0
 14 11  1  0  0  0  0
 14 18  1  0  0  0  0
 15 16  1  0  0  0  0
 15 14  2  0  0  0  0
 16 17  2  0  0  0  0
 17 18  1  0  0  0  0
 18 19  1  0  0  0  0
 20 29  1  0  0  0  0
 20 25  1  0  0  0  0
 21 20  2  0  0  0  0
 22 21  1  0  0  0  0
 22 23  2  0  0  0  0
 23 24  1  0  0  0  0
 24 25  2  0  0  0  0
 27 35  1  0  0  0  0
 27 26  1  1  0  0  0
 28 27  1  0  0  0  0
 29 31  1  6  0  0  0
 29 30  1  0  0  0  0
 29 28  1  0  0  0  0
 30 27  1  0  0  0  0
 31 34  1  0  0  0  0
 32 31  1  0  0  0  0
 33 31  1  0  0  0  0
 35 36  1  0  0  0  0
 37 42  1  0  0  0  0
 38 37  2  0  0  0  0
 38 39  1  0  0  0  0
 39 40  2  0  0  0  0
 40 41  1  0  0  0  0
 42 41  2  0  0  0  0
M  END
>  <minimizedAffinity>
-5.15752554

$$$$

 OpenBabel11232420163D

 42 48  0  0  1  0  0  0  0  0999 V2000
   -4.7980   -7.6530   12.7880 C   0  0  0  0  0  0  0  0  0  0  0  0
   -3.4850   -7.9930   13.0750 N   0  0  0  0  0  0  0  0  0  0  0  0
   -3.0730   -7.1170   13.9610 C   0  0  0  0  0  0  0  0  0  0  0  0
   -4.0260   -6.1650   14.1820 N   0  0  0  0  0  0  0  0  0  0  0  0
   -5.1830   -6.5430   13.5380 C   0  0  0  0  0  0  0  0  0  0  0  0
   -3.8360   -5.1190   15.1720 C   0  0  0  0  0  2  0  0  0  0  0  0
   -2.4430   -4.8310   15.4310 O   0  0  0  0  0  0  0  0  0  0  0  0
   -1.6120   -5.9210   15.4850 C   0  0  0  0  0  0  0  0  0  0  0  0
   -0.4730   -5.8290   16.2780 C   0  0  0  0  0  3  0  0  0  0  0  0
    0.3790   -6.9320   16.3930 C   0  0  0  0  0  3  0  0  0  0  0  0
    0.1130   -8.1210   15.6960 C   0  0  0  0  0  0  0  0  0  0  0  0
   -0.9990   -8.1750   14.8450 C   0  0  0  0  0  3  0  0  0  0  0  0
   -1.8620   -7.0810   14.7470 C   0  0  0  0  0  0  0  0  0  0  0  0
    0.9490   -9.3030   15.8740 C   0  0  0  0  0  0  0  0  0  0  0  0
    1.4140  -10.2450   14.9770 C   0  0  0  0  0  3  0  0  0  0  0  0
    2.1180  -11.1840   15.7530 C   0  0  0  0  0  3  0  0  0  0  0  0
    2.1000  -10.8810   17.0510 N   0  0  0  0  0  0  0  0  0  0  0  0
    1.3900   -9.7410   17.0990 N   0  0  0  0  0  0  0  0  0  0  0  0
    1.2170   -9.3240   18.0070 H   0  0  0  0  0  0  0  0  0  0  0  0
   -7.3010  -10.1730   10.2670 C   0  0  0  0  0  0  0  0  0  0  0  0
   -7.0530  -10.4390   11.6310 C   0  0  0  0  0  3  0  0  0  0  0  0
   -6.2350   -9.6180   12.4230 C   0  0  0  0  0  3  0  0  0  0  0  0
   -5.5980   -8.4890   11.8960 C   0  0  0  0  0  0  0  0  0  0  0  0
   -5.7730   -8.2400   10.5380 C   0  0  0  0  0  3  0  0  0  0  0  0
   -6.6070   -9.0550    9.7540 C   0  0  0  0  0  3  0  0  0  0  0  0
   -9.0660  -14.3160    8.6340 C   0  0  0  0  0  1  0  0  0  0  0  0
   -8.2950  -13.2370    9.3800 C   0  0  1  0  0  0  0  0  0  0  0  0
   -7.6780  -12.1650    8.4470 C   0  0  0  0  0  2  0  0  0  0  0  0
   -8.2880  -11.0480    9.3430 C   0  0  1  0  0  0  0  0  0  0  0  0
   -9.1690  -12.1320   10.0240 C   0  0  0  0  0  2  0  0  0  0  0  0
   -9.1190  -10.1400    8.5100 N   0  0  0  0  0  4  0  0  0  0  0  0
   -9.7600   -9.5830    9.0890 H   0  0  0  0  0  0  0  0  0  0  0  0
   -8.5240   -9.4830    7.9850 H   0  0  0  0  0  0  0  0  0  0  0  0
   -9.6940  -10.6410    7.8220 H   0  0  0  0  0  0  0  0  0  0  0  0
   -7.3460  -13.8490   10.2720 O   0  0  0  0  0  0  0  0  0  0  0  0
   -7.8340  -14.5160   10.7930 H   0  0  0  0  0  0  0  0  0  0  0  0
   -6.4700   -5.9220   13.8180 C   0  0  0  0  0  0  0  0  0  0  0  0
   -7.2710   -6.3610   14.8770 C   0  0  0  0  0  3  0  0  0  0  0  0
   -8.5140   -5.7670   15.1040 C   0  0  0  0  0  3  0  0  0  0  0  0
   -8.9620   -4.7370   14.2770 C   0  0  0  0  0  3  0  0  0  0  0  0
   -8.1680   -4.2950   13.2210 C   0  0  0  0  0  3  0  0  0  0  0  0
   -6.9250   -4.8860   12.9910 C   0  0  0  0  0  3  0  0  0  0  0  0
  1  2  1  0  0  0  0
  1  5  2  0  0  0  0
  2  3  2  0  0  0  0
  3  4  1  0  0  0  0
  3 13  1  0  0  0  0
  4  6  1  0  0  0  0
  5 37  1  0  0  0  0
  5  4  1  0  0  0  0
  6  7  1  0  0  0  0
  7  8  1  0  0  0  0
  8  9  1  0  0  0  0
  9 10  2  0  0  0  0
 11 14  1  0  0  0  0
 11 10  1  0  0  0  0
 12 11  2  0  0  0  0
 13 12  1  0  0  0  0
 13  8  2  0  0  0  0
 14 18  1  0  0  0  0
 15 16  1  0  0  0  0
 15 14  2  0  0  0  0
 16 17  2  0  0  0  0
 17 18  1  0  0  0  0
 18 19  1  0  0  0  0
 20 21  1  0  0  0  0
 21 22  2  0  0  0  0
 23 22  1  0  0  0  0
 23  1  1  0  0  0  0
 24 23  2  0  0  0  0
 25 20  2  0  0  0  0
 25 24  1  0  0  0  0
 27 26  1  6  0  0  0
 27 30  1  0  0  0  0
 27 35  1  0  0  0  0
 28 29  1  0  0  0  0
 28 27  1  0  0  0  0
 29 31  1  6  0  0  0
 29 30  1  0  0  0  0
 29 20  1  0  0  0  0
 31 32  1  0  0  0  0
 33 31  1  0  0  0  0
 34 31  1  0  0  0  0
 35 36  1  0  0  0  0
 37 38  1  0  0  0  0
 38 39  2  0  0  0  0
 40 39  1  0  0  0  0
 41 40  2  0  0  0  0
 42 41  1  0  0  0  0
 42 37  2  0  0  0  0
M  END
>  <minimizedAffinity>
-4.70209932

$$$$

 OpenBabel11232420163D

 42 48  0  0  1  0  0  0  0  0999 V2000
   -8.6440   -9.4740    9.9450 C   0  0  0  0  0  0  0  0  0  0  0  0
   -9.9020   -9.0000    9.6060 N   0  0  0  0  0  0  0  0  0  0  0  0
  -10.5770  -10.0440    9.1860 C   0  0  0  0  0  0  0  0  0  0  0  0
   -9.7800  -11.1520    9.1410 N   0  0  0  0  0  0  0  0  0  0  0  0
   -8.5720  -10.8490    9.7300 C   0  0  0  0  0  0  0  0  0  0  0  0
  -10.3120  -12.4520    8.7720 C   0  0  0  0  0  2  0  0  0  0  0  0
  -11.4890  -12.3670    7.9380 O   0  0  0  0  0  0  0  0  0  0  0  0
  -12.3840  -11.3830    8.2750 C   0  0  0  0  0  0  0  0  0  0  0  0
  -13.7240  -11.5920    7.9650 C   0  0  0  0  0  3  0  0  0  0  0  0
  -14.6740  -10.6320    8.3280 C   0  0  0  0  0  3  0  0  0  0  0  0
  -14.2880   -9.4480    8.9770 C   0  0  0  0  0  0  0  0  0  0  0  0
  -12.9260   -9.2190    9.2170 C   0  0  0  0  0  3  0  0  0  0  0  0
  -11.9800  -10.1870    8.8740 C   0  0  0  0  0  0  0  0  0  0  0  0
  -15.2790   -8.4800    9.4320 C   0  0  0  0  0  0  0  0  0  0  0  0
  -15.4700   -7.8610   10.6530 C   0  0  0  0  0  3  0  0  0  0  0  0
  -16.6300   -7.0820   10.5000 C   0  0  0  0  0  3  0  0  0  0  0  0
  -17.1580   -7.1960    9.2810 N   0  0  0  0  0  0  0  0  0  0  0  0
  -16.3250   -8.0440    8.6540 N   0  0  0  0  0  0  0  0  0  0  0  0
  -16.5410   -8.3080    7.7000 H   0  0  0  0  0  0  0  0  0  0  0  0
   -5.6770   -6.9290   11.8660 C   0  0  0  0  0  0  0  0  0  0  0  0
   -6.6320   -7.6840   12.5800 C   0  0  0  0  0  3  0  0  0  0  0  0
   -7.5860   -8.4910   11.9390 C   0  0  0  0  0  3  0  0  0  0  0  0
   -7.6560   -8.5790   10.5450 C   0  0  0  0  0  0  0  0  0  0  0  0
   -6.7680   -7.7940    9.8150 C   0  0  0  0  0  3  0  0  0  0  0  0
   -5.8040   -7.0020   10.4610 C   0  0  0  0  0  3  0  0  0  0  0  0
   -4.1130   -3.5950   14.9300 C   0  0  0  0  0  1  0  0  0  0  0  0
   -4.9540   -4.5700   14.1200 C   0  0  1  0  0  0  0  0  0  0  0  0
   -4.6820   -4.5000   12.5960 C   0  0  0  0  0  2  0  0  0  0  0  0
   -4.5220   -6.0480   12.5620 C   0  0  1  0  0  0  0  0  0  0  0  0
   -4.4410   -6.0320   14.1140 C   0  0  0  0  0  2  0  0  0  0  0  0
   -3.2060   -6.4000   11.9690 N   0  0  0  0  0  4  0  0  0  0  0  0
   -2.9410   -7.3670   12.1940 H   0  0  0  0  0  0  0  0  0  0  0  0
   -3.2370   -6.3160   10.9430 H   0  0  0  0  0  0  0  0  0  0  0  0
   -2.4430   -5.7960   12.2970 H   0  0  0  0  0  0  0  0  0  0  0  0
   -6.3410   -4.4210   14.4720 O   0  0  0  0  0  0  0  0  0  0  0  0
   -6.3930   -4.4600   15.4470 H   0  0  0  0  0  0  0  0  0  0  0  0
   -7.6170  -11.8750   10.1240 C   0  0  0  0  0  0  0  0  0  0  0  0
   -6.6220  -12.3130    9.2460 C   0  0  0  0  0  3  0  0  0  0  0  0
   -5.7380  -13.3210    9.6390 C   0  0  0  0  0  3  0  0  0  0  0  0
   -5.8460  -13.8930   10.9070 C   0  0  0  0  0  3  0  0  0  0  0  0
   -6.8350  -13.4590   11.7860 C   0  0  0  0  0  3  0  0  0  0  0  0
   -7.7190  -12.4530   11.3960 C   0  0  0  0  0  3  0  0  0  0  0  0
  1 23  1  0  0  0  0
  2  1  1  0  0  0  0
  3  2  2  0  0  0  0
  4  3  1  0  0  0  0
  4  5  1  0  0  0  0
  5  1  2  0  0  0  0
  5 37  1  0  0  0  0
  6  4  1  0  0  0  0
  7  8  1  0  0  0  0
  7  6  1  0  0  0  0
  8 13  1  0  0  0  0
  9  8  2  0  0  0  0
  9 10  1  0  0  0  0
 10 11  2  0  0  0  0
 11 12  1  0  0  0  0
 11 14  1  0  0  0  0
 13  3  1  0  0  0  0
 13 12  2  0  0  0  0
 14 15  2  0  0  0  0
 16 15  1  0  0  0  0
 17 16  2  0  0  0  0
 18 17  1  0  0  0  0
 18 14  1  0  0  0  0
 19 18  1  0  0  0  0
 20 29  1  0  0  0  0
 20 21  1  0  0  0  0
 22 21  2  0  0  0  0
 23 22  1  0  0  0  0
 24 25  1  0  0  0  0
 24 23  2  0  0  0  0
 25 20  2  0  0  0  0
 27 35  1  0  0  0  0
 27 26  1  1  0  0  0
 28 27  1  0  0  0  0
 29 31  1  6  0  0  0
 29 28  1  0  0  0  0
 29 30  1  0  0  0  0
 30 27  1  0  0  0  0
 31 32  1  0  0  0  0
 31 34  1  0  0  0  0
 33 31  1  0  0  0  0
 35 36  1  0  0  0  0
 37 42  1  0  0  0  0
 38 39  1  0  0  0  0
 38 37  2  0  0  0  0
 39 40  2  0  0  0  0
 40 41  1  0  0  0  0
 42 41  2  0  0  0  0
M  END
>  <minimizedAffinity>
-4.6735425

$$$$
