
 OpenBabel11232420163D

 42 48  0  0  1  0  0  0  0  0999 V2000
   -8.6440   -9.4740    9.9450 C   0  0  0  0  0  0  0  0  0  0  0  0
   -9.9020   -9.0000    9.6060 N   0  0  0  0  0  0  0  0  0  0  0  0
  -10.5770  -10.0440    9.1860 C   0  0  0  0  0  0  0  0  0  0  0  0
   -9.7800  -11.1520    9.1410 N   0  0  0  0  0  0  0  0  0  0  0  0
   -8.5720  -10.8490    9.7300 C   0  0  0  0  0  0  0  0  0  0  0  0
  -10.3120  -12.4520    8.7720 C   0  0  0  0  0  2  0  0  0  0  0  0
  -11.4890  -12.3670    7.9380 O   0  0  0  0  0  0  0  0  0  0  0  0
  -12.3840  -11.3830    8.2750 C   0  0  0  0  0  0  0  0  0  0  0  0
  -13.7240  -11.5920    7.9650 C   0  0  0  0  0  3  0  0  0  0  0  0
  -14.6740  -10.6320    8.3280 C   0  0  0  0  0  3  0  0  0  0  0  0
  -14.2880   -9.4480    8.9770 C   0  0  0  0  0  0  0  0  0  0  0  0
  -12.9260   -9.2190    9.2170 C   0  0  0  0  0  3  0  0  0  0  0  0
  -11.9800  -10.1870    8.8740 C   0  0  0  0  0  0  0  0  0  0  0  0
  -15.2790   -8.4800    9.4320 C   0  0  0  0  0  0  0  0  0  0  0  0
  -15.4700   -7.8610   10.6530 C   0  0  0  0  0  3  0  0  0  0  0  0
  -16.6300   -7.0820   10.5000 C   0  0  0  0  0  3  0  0  0  0  0  0
  -17.1580   -7.1960    9.2810 N   0  0  0  0  0  0  0  0  0  0  0  0
  -16.3250   -8.0440    8.6540 N   0  0  0  0  0  0  0  0  0  0  0  0
  -16.5410   -8.3080    7.7000 H   0  0  0  0  0  0  0  0  0  0  0  0
   -5.6770   -6.9290   11.8660 C   0  0  0  0  0  0  0  0  0  0  0  0
   -6.6320   -7.6840   12.5800 C   0  0  0  0  0  3  0  0  0  0  0  0
   -7.5860   -8.4910   11.9390 C   0  0  0  0  0  3  0  0  0  0  0  0
   -7.6560   -8.5790   10.5450 C   0  0  0  0  0  0  0  0  0  0  0  0
   -6.7680   -7.7940    9.8150 C   0  0  0  0  0  3  0  0  0  0  0  0
   -5.8040   -7.0020   10.4610 C   0  0  0  0  0  3  0  0  0  0  0  0
   -4.1130   -3.5950   14.9300 C   0  0  0  0  0  1  0  0  0  0  0  0
   -4.9540   -4.5700   14.1200 C   0  0  1  0  0  0  0  0  0  0  0  0
   -4.6820   -4.5000   12.5960 C   0  0  0  0  0  2  0  0  0  0  0  0
   -4.5220   -6.0480   12.5620 C   0  0  1  0  0  0  0  0  0  0  0  0
   -4.4410   -6.0320   14.1140 C   0  0  0  0  0  2  0  0  0  0  0  0
   -3.2060   -6.4000   11.9690 N   0  0  0  0  0  4  0  0  0  0  0  0
   -2.9410   -7.3670   12.1940 H   0  0  0  0  0  0  0  0  0  0  0  0
   -3.2370   -6.3160   10.9430 H   0  0  0  0  0  0  0  0  0  0  0  0
   -2.4430   -5.7960   12.2970 H   0  0  0  0  0  0  0  0  0  0  0  0
   -6.3410   -4.4210   14.4720 O   0  0  0  0  0  0  0  0  0  0  0  0
   -6.3930   -4.4600   15.4470 H   0  0  0  0  0  0  0  0  0  0  0  0
   -7.6170  -11.8750   10.1240 C   0  0  0  0  0  0  0  0  0  0  0  0
   -6.6220  -12.3130    9.2460 C   0  0  0  0  0  3  0  0  0  0  0  0
   -5.7380  -13.3210    9.6390 C   0  0  0  0  0  3  0  0  0  0  0  0
   -5.8460  -13.8930   10.9070 C   0  0  0  0  0  3  0  0  0  0  0  0
   -6.8350  -13.4590   11.7860 C   0  0  0  0  0  3  0  0  0  0  0  0
   -7.7190  -12.4530   11.3960 C   0  0  0  0  0  3  0  0  0  0  0  0
  1 23  1  0  0  0  0
  2  1  1  0  0  0  0
  3  2  2  0  0  0  0
  4  3  1  0  0  0  0
  4  5  1  0  0  0  0
  5  1  2  0  0  0  0
  5 37  1  0  0  0  0
  6  4  1  0  0  0  0
  7  8  1  0  0  0  0
  7  6  1  0  0  0  0
  8 13  1  0  0  0  0
  9  8  2  0  0  0  0
  9 10  1  0  0  0  0
 10 11  2  0  0  0  0
 11 12  1  0  0  0  0
 11 14  1  0  0  0  0
 13  3  1  0  0  0  0
 13 12  2  0  0  0  0
 14 15  2  0  0  0  0
 16 15  1  0  0  0  0
 17 16  2  0  0  0  0
 18 17  1  0  0  0  0
 18 14  1  0  0  0  0
 19 18  1  0  0  0  0
 20 29  1  0  0  0  0
 20 21  1  0  0  0  0
 22 21  2  0  0  0  0
 23 22  1  0  0  0  0
 24 25  1  0  0  0  0
 24 23  2  0  0  0  0
 25 20  2  0  0  0  0
 27 35  1  0  0  0  0
 27 26  1  1  0  0  0
 28 27  1  0  0  0  0
 29 31  1  6  0  0  0
 29 28  1  0  0  0  0
 29 30  1  0  0  0  0
 30 27  1  0  0  0  0
 31 32  1  0  0  0  0
 31 34  1  0  0  0  0
 33 31  1  0  0  0  0
 35 36  1  0  0  0  0
 37 42  1  0  0  0  0
 38 39  1  0  0  0  0
 38 37  2  0  0  0  0
 39 40  2  0  0  0  0
 40 41  1  0  0  0  0
 42 41  2  0  0  0  0
M  END
>  <minimizedAffinity>
-4.6735425

$$$$
