
 OpenBabel11232419343D

 36 40  0  0  1  0  0  0  0  0999 V2000
   55.4980  -40.0960   18.3240 C   0  0  0  0  0  0  0  0  0  0  0  0
   54.9780  -41.0670   19.1480 C   0  0  0  0  0  3  0  0  0  0  0  0
   56.0590  -41.7840   19.5990 N   0  0  0  0  0  0  0  0  0  0  0  0
   57.1980  -41.1760   19.1130 C   0  0  0  0  0  0  0  0  0  0  0  0
   56.8630  -40.2200   18.2740 N   0  0  0  0  0  0  0  0  0  0  0  0
   54.1300  -35.3080   17.6200 C   0  0  0  0  0  1  0  0  0  0  0  0
   54.0700  -36.7580   17.2430 C   0  0  0  0  0  0  0  0  0  0  0  0
   54.7820  -37.7240   17.9730 C   0  0  0  0  0  3  0  0  0  0  0  0
   54.7640  -39.0760   17.5900 C   0  0  0  0  0  0  0  0  0  0  0  0
   54.0340  -39.4460   16.4500 C   0  0  0  0  0  3  0  0  0  0  0  0
   53.3320  -38.4900   15.7120 C   0  0  0  0  0  3  0  0  0  0  0  0
   53.3590  -37.1590   16.1110 C   0  0  0  0  0  0  0  0  0  0  0  0
   52.6910  -36.2530   15.3850 F   0  0  0  0  0  0  0  0  0  0  0  0
   58.6130  -41.5530   19.4730 C   0  0  2  0  0  3  0  0  0  0  0  0
   59.4830  -40.3040   19.6780 C   0  0  0  0  0  2  0  0  0  0  0  0
   59.9480  -39.6880   18.3570 C   0  0  0  0  0  2  0  0  0  0  0  0
   60.5520  -40.6970   17.4930 N   0  0  0  0  0  0  0  0  0  0  0  0
   59.7020  -41.8370   17.1640 C   0  0  0  0  0  2  0  0  0  0  0  0
   59.2340  -42.5240   18.4510 C   0  0  0  0  0  2  0  0  0  0  0  0
   61.9220  -40.9210   17.5950 C   0  0  0  0  0  0  0  0  0  0  0  0
   62.4720  -40.8000   18.8230 N   0  0  0  0  0  0  0  0  0  0  0  0
   63.7840  -41.0460   18.9310 C   0  0  0  0  0  3  0  0  0  0  0  0
   64.6080  -41.4020   17.9430 N   0  0  0  0  0  0  0  0  0  0  0  0
   64.0620  -41.4810   16.7200 C   0  0  0  0  0  0  0  0  0  0  0  0
   64.9380  -41.8710   15.7200 N   0  0  0  0  0  0  0  0  0  0  0  0
   62.7090  -41.2550   16.4900 C   0  0  0  0  0  0  0  0  0  0  0  0
   62.0250  -41.2910   14.7120 Br  0  0  0  0  0  0  0  0  0  0  0  0
   65.8920  -41.9840   16.0370 H   0  0  0  0  0  0  0  0  0  0  0  0
   64.7940  -41.4850   14.7960 H   0  0  0  0  0  0  0  0  0  0  0  0
   55.9610  -42.9450   20.4560 C   0  0  0  0  0  2  0  0  0  0  0  0
   54.5240  -43.3490   20.8420 C   0  0  0  0  0  2  0  0  0  0  0  0
   53.9390  -42.9490   22.1530 N   0  0  0  0  0  4  0  0  0  0  0  0
   54.5390  -41.7680   22.8010 C   0  0  0  0  0  2  0  0  0  0  0  0
   53.1220  -41.3650   23.2370 C   0  0  0  0  0  2  0  0  0  0  0  0
   52.6280  -42.2830   22.1090 C   0  0  0  0  0  2  0  0  0  0  0  0
   53.9320  -43.7520   22.8010 H   0  0  0  0  0  0  0  0  0  0  0  0
  1  2  2  0  0  0  0
  2  3  1  0  0  0  0
  3 30  1  0  0  0  0
  4  3  1  0  0  0  0
  5  1  1  0  0  0  0
  5  4  2  0  0  0  0
  7  6  1  0  0  0  0
  7  8  1  0  0  0  0
  9  8  2  0  0  0  0
  9  1  1  0  0  0  0
 10  9  1  0  0  0  0
 11 12  1  0  0  0  0
 11 10  2  0  0  0  0
 12  7  2  0  0  0  0
 13 12  1  0  0  0  0
 14  4  1  6  0  0  0
 14 15  1  0  0  0  0
 16 15  1  0  0  0  0
 17 20  1  0  0  0  0
 17 16  1  0  0  0  0
 18 17  1  0  0  0  0
 18 19  1  0  0  0  0
 19 14  1  0  0  0  0
 20 21  1  0  0  0  0
 21 22  2  0  0  0  0
 23 22  1  0  0  0  0
 24 23  2  0  0  0  0
 25 28  1  0  0  0  0
 25 24  1  0  0  0  0
 26 24  1  0  0  0  0
 26 20  2  0  0  0  0
 27 26  1  0  0  0  0
 29 25  1  0  0  0  0
 30 31  1  0  0  0  0
 31 32  1  0  0  0  0
 32 33  1  0  0  0  0
 32 36  1  0  0  0  0
 33 34  1  0  0  0  0
 35 32  1  0  0  0  0
 35 34  1  0  0  0  0
M  END
>  <minimizedAffinity>
-5.45538378

$$$$

 OpenBabel11232419343D

 36 40  0  0  1  0  0  0  0  0999 V2000
   55.4210  -40.0860   18.3170 C   0  0  0  0  0  0  0  0  0  0  0  0
   54.9000  -41.0700   19.1240 C   0  0  0  0  0  3  0  0  0  0  0  0
   55.9800  -41.7930   19.5680 N   0  0  0  0  0  0  0  0  0  0  0  0
   57.1200  -41.1780   19.0960 C   0  0  0  0  0  0  0  0  0  0  0  0
   56.7870  -40.2090   18.2690 N   0  0  0  0  0  0  0  0  0  0  0  0
   54.1070  -35.2800   17.6390 C   0  0  0  0  0  1  0  0  0  0  0  0
   54.0220  -36.7280   17.2620 C   0  0  0  0  0  0  0  0  0  0  0  0
   54.7320  -37.7050   17.9800 C   0  0  0  0  0  3  0  0  0  0  0  0
   54.6890  -39.0560   17.5960 C   0  0  0  0  0  0  0  0  0  0  0  0
   53.9360  -39.4150   16.4670 C   0  0  0  0  0  3  0  0  0  0  0  0
   53.2350  -38.4490   15.7420 C   0  0  0  0  0  3  0  0  0  0  0  0
   53.2870  -37.1190   16.1420 C   0  0  0  0  0  0  0  0  0  0  0  0
   52.6200  -36.2020   15.4270 F   0  0  0  0  0  0  0  0  0  0  0  0
   58.5340  -41.5600   19.4550 C   0  0  2  0  0  3  0  0  0  0  0  0
   59.3870  -40.3140   19.7400 C   0  0  0  0  0  2  0  0  0  0  0  0
   59.8630  -39.6210   18.4630 C   0  0  0  0  0  2  0  0  0  0  0  0
   60.4900  -40.5750   17.5530 N   0  0  0  0  0  0  0  0  0  0  0  0
   59.6570  -41.7040   17.1490 C   0  0  0  0  0  2  0  0  0  0  0  0
   59.1800  -42.4650   18.3900 C   0  0  0  0  0  2  0  0  0  0  0  0
   61.8620  -40.7900   17.6630 C   0  0  0  0  0  0  0  0  0  0  0  0
   62.4060  -40.6500   18.8910 N   0  0  0  0  0  0  0  0  0  0  0  0
   63.7200  -40.8860   19.0060 C   0  0  0  0  0  3  0  0  0  0  0  0
   64.5480  -41.2520   18.0250 N   0  0  0  0  0  0  0  0  0  0  0  0
   64.0070  -41.3510   16.8030 C   0  0  0  0  0  0  0  0  0  0  0  0
   64.8880  -41.7490   15.8100 N   0  0  0  0  0  0  0  0  0  0  0  0
   62.6530  -41.1350   16.5640 C   0  0  0  0  0  0  0  0  0  0  0  0
   61.9750  -41.1990   14.7850 Br  0  0  0  0  0  0  0  0  0  0  0  0
   65.8420  -41.8530   16.1320 H   0  0  0  0  0  0  0  0  0  0  0  0
   64.7450  -41.3770   14.8810 H   0  0  0  0  0  0  0  0  0  0  0  0
   55.8790  -42.9670   20.4070 C   0  0  0  0  0  2  0  0  0  0  0  0
   55.0230  -44.1110   19.8260 C   0  0  0  0  0  2  0  0  0  0  0  0
   55.6120  -45.1150   18.8950 N   0  0  0  0  0  4  0  0  0  0  0  0
   55.5980  -44.7620   17.4640 C   0  0  0  0  0  2  0  0  0  0  0  0
   56.9900  -45.4040   17.3570 C   0  0  0  0  0  2  0  0  0  0  0  0
   57.0790  -45.2120   18.8790 C   0  0  0  0  0  2  0  0  0  0  0  0
   55.1740  -46.0380   19.0440 H   0  0  0  0  0  0  0  0  0  0  0  0
  1  2  2  0  0  0  0
  2  3  1  0  0  0  0
  3 30  1  0  0  0  0
  4  3  1  0  0  0  0
  5  1  1  0  0  0  0
  5  4  2  0  0  0  0
  7  6  1  0  0  0  0
  7  8  1  0  0  0  0
  9  8  2  0  0  0  0
  9  1  1  0  0  0  0
 10  9  1  0  0  0  0
 11 12  1  0  0  0  0
 11 10  2  0  0  0  0
 12  7  2  0  0  0  0
 13 12  1  0  0  0  0
 14  4  1  6  0  0  0
 14 15  1  0  0  0  0
 16 15  1  0  0  0  0
 17 20  1  0  0  0  0
 17 16  1  0  0  0  0
 18 17  1  0  0  0  0
 18 19  1  0  0  0  0
 19 14  1  0  0  0  0
 20 21  1  0  0  0  0
 21 22  2  0  0  0  0
 23 22  1  0  0  0  0
 24 23  2  0  0  0  0
 25 28  1  0  0  0  0
 25 24  1  0  0  0  0
 26 24  1  0  0  0  0
 26 20  2  0  0  0  0
 27 26  1  0  0  0  0
 29 25  1  0  0  0  0
 31 30  1  0  0  0  0
 32 36  1  0  0  0  0
 32 31  1  0  0  0  0
 33 32  1  0  0  0  0
 34 33  1  0  0  0  0
 34 35  1  0  0  0  0
 35 32  1  0  0  0  0
M  END
>  <minimizedAffinity>
-5.41646671

$$$$

 OpenBabel11232419343D

 36 40  0  0  1  0  0  0  0  0999 V2000
   54.7070  -40.4830   17.6000 C   0  0  0  0  0  0  0  0  0  0  0  0
   53.8940  -41.5350   17.9540 C   0  0  0  0  0  3  0  0  0  0  0  0
   54.7420  -42.5880   18.1980 N   0  0  0  0  0  0  0  0  0  0  0  0
   56.0340  -42.1230   18.0750 C   0  0  0  0  0  0  0  0  0  0  0  0
   56.0180  -40.8860   17.6260 N   0  0  0  0  0  0  0  0  0  0  0  0
   54.2490  -35.5870   18.6580 C   0  0  0  0  0  1  0  0  0  0  0  0
   54.0460  -36.7560   17.7400 C   0  0  0  0  0  0  0  0  0  0  0  0
   54.4440  -38.0490   18.1170 C   0  0  0  0  0  3  0  0  0  0  0  0
   54.2970  -39.1350   17.2370 C   0  0  0  0  0  0  0  0  0  0  0  0
   53.7610  -38.9020   15.9610 C   0  0  0  0  0  3  0  0  0  0  0  0
   53.3720  -37.6180   15.5740 C   0  0  0  0  0  3  0  0  0  0  0  0
   53.5210  -36.5590   16.4620 C   0  0  0  0  0  0  0  0  0  0  0  0
   53.1570  -35.3310   16.0700 F   0  0  0  0  0  0  0  0  0  0  0  0
   57.2810  -42.9110   18.3910 C   0  0  2  0  0  3  0  0  0  0  0  0
   58.1200  -42.2090   19.4700 C   0  0  0  0  0  2  0  0  0  0  0  0
   58.9520  -41.0540   18.9090 C   0  0  0  0  0  2  0  0  0  0  0  0
   59.7190  -41.4790   17.7430 N   0  0  0  0  0  0  0  0  0  0  0  0
   58.9380  -42.0280   16.6380 C   0  0  0  0  0  2  0  0  0  0  0  0
   58.1100  -43.2190   17.1300 C   0  0  0  0  0  2  0  0  0  0  0  0
   61.0000  -41.9890   17.9440 C   0  0  0  0  0  0  0  0  0  0  0  0
   61.2400  -43.2360   17.4850 N   0  0  0  0  0  0  0  0  0  0  0  0
   62.4800  -43.7170   17.6480 C   0  0  0  0  0  3  0  0  0  0  0  0
   63.5070  -43.0830   18.2190 N   0  0  0  0  0  0  0  0  0  0  0  0
   63.2500  -41.8610   18.7070 C   0  0  0  0  0  0  0  0  0  0  0  0
   64.3390  -41.2230   19.2760 N   0  0  0  0  0  0  0  0  0  0  0  0
   62.0010  -41.2580   18.5890 C   0  0  0  0  0  0  0  0  0  0  0  0
   61.6830  -39.5590   19.3910 Br  0  0  0  0  0  0  0  0  0  0  0  0
   65.1750  -41.7930   19.3040 H   0  0  0  0  0  0  0  0  0  0  0  0
   64.1640  -40.6110   20.0610 H   0  0  0  0  0  0  0  0  0  0  0  0
   54.2990  -43.9190   18.5490 C   0  0  0  0  0  2  0  0  0  0  0  0
   53.7840  -44.0750   19.9940 C   0  0  0  0  0  2  0  0  0  0  0  0
   54.6940  -43.8850   21.1590 N   0  0  0  0  0  4  0  0  0  0  0  0
   54.8530  -42.5010   21.6420 C   0  0  0  0  0  2  0  0  0  0  0  0
   54.8610  -43.0680   23.0710 C   0  0  0  0  0  2  0  0  0  0  0  0
   54.1770  -44.3060   22.4690 C   0  0  0  0  0  2  0  0  0  0  0  0
   55.6150  -44.3080   20.9640 H   0  0  0  0  0  0  0  0  0  0  0  0
  1  5  1  0  0  0  0
  1  2  2  0  0  0  0
  2  3  1  0  0  0  0
  3 30  1  0  0  0  0
  4  3  1  0  0  0  0
  5  4  2  0  0  0  0
  7  8  1  0  0  0  0
  7  6  1  0  0  0  0
  9  1  1  0  0  0  0
  9  8  2  0  0  0  0
 10  9  1  0  0  0  0
 11 10  2  0  0  0  0
 11 12  1  0  0  0  0
 12  7  2  0  0  0  0
 13 12  1  0  0  0  0
 14  4  1  6  0  0  0
 14 15  1  0  0  0  0
 16 15  1  0  0  0  0
 17 20  1  0  0  0  0
 17 16  1  0  0  0  0
 18 19  1  0  0  0  0
 18 17  1  0  0  0  0
 19 14  1  0  0  0  0
 20 26  1  0  0  0  0
 21 22  1  0  0  0  0
 21 20  2  0  0  0  0
 22 23  2  0  0  0  0
 23 24  1  0  0  0  0
 24 25  1  0  0  0  0
 25 28  1  0  0  0  0
 25 29  1  0  0  0  0
 26 24  2  0  0  0  0
 26 27  1  0  0  0  0
 30 31  1  0  0  0  0
 31 32  1  0  0  0  0
 32 33  1  0  0  0  0
 32 35  1  0  0  0  0
 33 34  1  0  0  0  0
 35 34  1  0  0  0  0
 36 32  1  0  0  0  0
M  END
>  <minimizedAffinity>
-4.76584148

$$$$

 OpenBabel11232419343D

 36 40  0  0  1  0  0  0  0  0999 V2000
   55.4770  -40.9010   17.8540 C   0  0  0  0  0  0  0  0  0  0  0  0
   54.9400  -42.0620   18.3610 C   0  0  0  0  0  3  0  0  0  0  0  0
   56.0150  -42.8310   18.7370 N   0  0  0  0  0  0  0  0  0  0  0  0
   57.1570  -42.0840   18.5330 C   0  0  0  0  0  0  0  0  0  0  0  0
   56.8460  -40.9630   17.9180 N   0  0  0  0  0  0  0  0  0  0  0  0
   52.6190  -38.7790   14.3020 C   0  0  0  0  0  1  0  0  0  0  0  0
   53.3840  -38.7030   15.5890 C   0  0  0  0  0  0  0  0  0  0  0  0
   54.0790  -39.8180   16.0840 C   0  0  0  0  0  3  0  0  0  0  0  0
   54.7560  -39.7590   17.3150 C   0  0  0  0  0  0  0  0  0  0  0  0
   54.7120  -38.5670   18.0530 C   0  0  0  0  0  3  0  0  0  0  0  0
   54.0150  -37.4560   17.5730 C   0  0  0  0  0  3  0  0  0  0  0  0
   53.3570  -37.5340   16.3520 C   0  0  0  0  0  0  0  0  0  0  0  0
   52.6810  -36.4640   15.9110 F   0  0  0  0  0  0  0  0  0  0  0  0
   58.5520  -42.4900   18.9370 C   0  0  2  0  0  3  0  0  0  0  0  0
   59.3870  -41.2660   19.3430 C   0  0  0  0  0  2  0  0  0  0  0  0
   59.9250  -40.4940   18.1370 C   0  0  0  0  0  2  0  0  0  0  0  0
   60.5980  -41.3890   17.2020 N   0  0  0  0  0  0  0  0  0  0  0  0
   59.7890  -42.4900   16.6860 C   0  0  0  0  0  2  0  0  0  0  0  0
   59.2520  -43.3270   17.8500 C   0  0  0  0  0  2  0  0  0  0  0  0
   61.9630  -41.6120   17.3650 C   0  0  0  0  0  0  0  0  0  0  0  0
   62.4020  -41.8140   18.6260 N   0  0  0  0  0  0  0  0  0  0  0  0
   63.7100  -42.0610   18.7850 C   0  0  0  0  0  3  0  0  0  0  0  0
   64.6260  -42.1300   17.8160 N   0  0  0  0  0  0  0  0  0  0  0  0
   64.1890  -41.8900   16.5720 C   0  0  0  0  0  0  0  0  0  0  0  0
   65.1590  -41.9870   15.5880 N   0  0  0  0  0  0  0  0  0  0  0  0
   62.8520  -41.6300   16.2870 C   0  0  0  0  0  0  0  0  0  0  0  0
   62.3210  -41.2030   14.5080 Br  0  0  0  0  0  0  0  0  0  0  0  0
   66.0870  -42.1670   15.9490 H   0  0  0  0  0  0  0  0  0  0  0  0
   65.0790  -41.3720   14.7900 H   0  0  0  0  0  0  0  0  0  0  0  0
   55.9050  -44.1690   19.2740 C   0  0  0  0  0  2  0  0  0  0  0  0
   54.7310  -44.3850   20.2500 C   0  0  0  0  0  2  0  0  0  0  0  0
   54.8450  -44.0030   21.6860 N   0  0  0  0  0  4  0  0  0  0  0  0
   54.7710  -42.5610   21.9840 C   0  0  0  0  0  2  0  0  0  0  0  0
   53.9540  -42.9250   23.2340 C   0  0  0  0  0  2  0  0  0  0  0  0
   53.6660  -44.2580   22.5260 C   0  0  0  0  0  2  0  0  0  0  0  0
   55.6970  -44.4130   22.0980 H   0  0  0  0  0  0  0  0  0  0  0  0
  1  5  1  0  0  0  0
  1  2  2  0  0  0  0
  2  3  1  0  0  0  0
  3 30  1  0  0  0  0
  4  3  1  0  0  0  0
  5  4  2  0  0  0  0
  6  7  1  0  0  0  0
  7  8  2  0  0  0  0
  7 12  1  0  0  0  0
  8  9  1  0  0  0  0
  9  1  1  0  0  0  0
  9 10  2  0  0  0  0
 11 10  1  0  0  0  0
 12 11  2  0  0  0  0
 13 12  1  0  0  0  0
 14  4  1  6  0  0  0
 14 15  1  0  0  0  0
 16 15  1  0  0  0  0
 17 20  1  0  0  0  0
 17 16  1  0  0  0  0
 18 17  1  0  0  0  0
 18 19  1  0  0  0  0
 19 14  1  0  0  0  0
 20 21  1  0  0  0  0
 21 22  2  0  0  0  0
 23 22  1  0  0  0  0
 24 23  2  0  0  0  0
 25 28  1  0  0  0  0
 25 24  1  0  0  0  0
 26 24  1  0  0  0  0
 26 20  2  0  0  0  0
 27 26  1  0  0  0  0
 29 25  1  0  0  0  0
 30 31  1  0  0  0  0
 31 32  1  0  0  0  0
 32 33  1  0  0  0  0
 32 36  1  0  0  0  0
 32 35  1  0  0  0  0
 33 34  1  0  0  0  0
 35 34  1  0  0  0  0
M  END
>  <minimizedAffinity>
-4.45860958

$$$$

 OpenBabel11232419343D

 36 40  0  0  1  0  0  0  0  0999 V2000
   57.6360  -42.1310   16.9130 C   0  0  0  0  0  0  0  0  0  0  0  0
   57.8170  -41.5150   18.1290 C   0  0  0  0  0  3  0  0  0  0  0  0
   59.0460  -41.9350   18.5760 N   0  0  0  0  0  0  0  0  0  0  0  0
   59.6080  -42.7130   17.5860 C   0  0  0  0  0  0  0  0  0  0  0  0
   58.7290  -42.9090   16.6260 N   0  0  0  0  0  0  0  0  0  0  0  0
   55.4570  -42.7640   12.4250 C   0  0  0  0  0  1  0  0  0  0  0  0
   55.4150  -42.2980   13.8490 C   0  0  0  0  0  0  0  0  0  0  0  0
   56.5420  -42.4110   14.6800 C   0  0  0  0  0  3  0  0  0  0  0  0
   56.4860  -42.0180   16.0290 C   0  0  0  0  0  0  0  0  0  0  0  0
   55.2760  -41.5260   16.5400 C   0  0  0  0  0  3  0  0  0  0  0  0
   54.1480  -41.4200   15.7230 C   0  0  0  0  0  3  0  0  0  0  0  0
   54.2250  -41.8090   14.3920 C   0  0  0  0  0  0  0  0  0  0  0  0
   53.1310  -41.7150   13.6250 F   0  0  0  0  0  0  0  0  0  0  0  0
   61.0100  -43.2700   17.6000 C   0  0  2  0  0  3  0  0  0  0  0  0
   62.0510  -42.1490   17.4610 C   0  0  0  0  0  2  0  0  0  0  0  0
   62.2180  -41.6780   16.0150 C   0  0  0  0  0  2  0  0  0  0  0  0
   62.4380  -42.8080   15.1190 N   0  0  0  0  0  0  0  0  0  0  0  0
   61.3950  -43.8310   15.1240 C   0  0  0  0  0  2  0  0  0  0  0  0
   61.2080  -44.3730   16.5440 C   0  0  0  0  0  2  0  0  0  0  0  0
   63.7470  -43.2210   14.8830 C   0  0  0  0  0  0  0  0  0  0  0  0
   64.3430  -43.9450   15.8540 N   0  0  0  0  0  0  0  0  0  0  0  0
   65.5910  -44.3710   15.6180 C   0  0  0  0  0  3  0  0  0  0  0  0
   66.3070  -44.1530   14.5130 N   0  0  0  0  0  0  0  0  0  0  0  0
   65.7220  -43.4000   13.5700 C   0  0  0  0  0  0  0  0  0  0  0  0
   66.4830  -43.2070   12.4280 N   0  0  0  0  0  0  0  0  0  0  0  0
   64.4270  -42.9090   13.7030 C   0  0  0  0  0  0  0  0  0  0  0  0
   63.6980  -41.7670   12.3640 Br  0  0  0  0  0  0  0  0  0  0  0  0
   67.4090  -43.6110   12.4840 H   0  0  0  0  0  0  0  0  0  0  0  0
   66.3860  -42.3240   11.9460 H   0  0  0  0  0  0  0  0  0  0  0  0
   59.6110  -41.5690   19.8560 C   0  0  0  0  0  2  0  0  0  0  0  0
   59.9280  -40.0700   20.0220 C   0  0  0  0  0  2  0  0  0  0  0  0
   60.9340  -39.3950   19.1530 N   0  0  0  0  0  4  0  0  0  0  0  0
   60.9060  -37.9210   19.1480 C   0  0  0  0  0  2  0  0  0  0  0  0
   62.4420  -37.9560   19.1000 C   0  0  0  0  0  2  0  0  0  0  0  0
   62.3210  -39.3880   19.6410 C   0  0  0  0  0  2  0  0  0  0  0  0
   60.8750  -39.7610   18.1900 H   0  0  0  0  0  0  0  0  0  0  0  0
  1  2  2  0  0  0  0
  2  3  1  0  0  0  0
  3 30  1  0  0  0  0
  4  3  1  0  0  0  0
  5  1  1  0  0  0  0
  5  4  2  0  0  0  0
  6  7  1  0  0  0  0
  7 12  2  0  0  0  0
  7  8  1  0  0  0  0
  8  9  2  0  0  0  0
  9 10  1  0  0  0  0
  9  1  1  0  0  0  0
 11 10  2  0  0  0  0
 12 11  1  0  0  0  0
 13 12  1  0  0  0  0
 14  4  1  6  0  0  0
 15 14  1  0  0  0  0
 16 15  1  0  0  0  0
 17 18  1  0  0  0  0
 17 16  1  0  0  0  0
 18 19  1  0  0  0  0
 19 14  1  0  0  0  0
 20 17  1  0  0  0  0
 20 21  1  0  0  0  0
 22 21  2  0  0  0  0
 23 22  1  0  0  0  0
 24 26  1  0  0  0  0
 24 23  2  0  0  0  0
 25 28  1  0  0  0  0
 25 24  1  0  0  0  0
 26 20  2  0  0  0  0
 27 26  1  0  0  0  0
 29 25  1  0  0  0  0
 30 31  1  0  0  0  0
 32 35  1  0  0  0  0
 32 31  1  0  0  0  0
 33 32  1  0  0  0  0
 34 33  1  0  0  0  0
 34 35  1  0  0  0  0
 36 32  1  0  0  0  0
M  END
>  <minimizedAffinity>
-4.37189484

$$$$

 OpenBabel11232419343D

 36 40  0  0  1  0  0  0  0  0999 V2000
   55.6960  -40.1130   17.8550 C   0  0  0  0  0  0  0  0  0  0  0  0
   55.3290  -41.2800   17.2250 C   0  0  0  0  0  3  0  0  0  0  0  0
   56.4060  -42.1220   17.3530 N   0  0  0  0  0  0  0  0  0  0  0  0
   57.3500  -41.4820   18.1270 C   0  0  0  0  0  0  0  0  0  0  0  0
   56.9690  -40.2420   18.3530 N   0  0  0  0  0  0  0  0  0  0  0  0
   52.6820  -37.1120   20.5370 C   0  0  0  0  0  1  0  0  0  0  0  0
   53.4230  -37.4370   19.2750 C   0  0  0  0  0  0  0  0  0  0  0  0
   54.1730  -38.6190   19.1610 C   0  0  0  0  0  3  0  0  0  0  0  0
   54.9060  -38.9000   17.9960 C   0  0  0  0  0  0  0  0  0  0  0  0
   54.8930  -37.9660   16.9480 C   0  0  0  0  0  3  0  0  0  0  0  0
   54.1590  -36.7830   17.0570 C   0  0  0  0  0  3  0  0  0  0  0  0
   53.4360  -36.5280   18.2160 C   0  0  0  0  0  0  0  0  0  0  0  0
   52.7480  -35.3820   18.3100 F   0  0  0  0  0  0  0  0  0  0  0  0
   58.6330  -42.0950   18.6290 C   0  0  2  0  0  3  0  0  0  0  0  0
   59.5900  -41.0170   19.1600 C   0  0  0  0  0  2  0  0  0  0  0  0
   60.3370  -40.2900   18.0410 C   0  0  0  0  0  2  0  0  0  0  0  0
   60.9620  -41.2400   17.1270 N   0  0  0  0  0  0  0  0  0  0  0  0
   60.0570  -42.1970   16.4940 C   0  0  0  0  0  2  0  0  0  0  0  0
   59.3050  -42.9870   17.5690 C   0  0  0  0  0  2  0  0  0  0  0  0
   62.2620  -41.6610   17.3960 C   0  0  0  0  0  0  0  0  0  0  0  0
   62.5280  -42.0540   18.6600 N   0  0  0  0  0  0  0  0  0  0  0  0
   63.7690  -42.4890   18.9160 C   0  0  0  0  0  3  0  0  0  0  0  0
   64.7730  -42.5780   18.0410 N   0  0  0  0  0  0  0  0  0  0  0  0
   64.5120  -42.1490   16.7980 C   0  0  0  0  0  0  0  0  0  0  0  0
   65.5680  -42.2700   15.9100 N   0  0  0  0  0  0  0  0  0  0  0  0
   63.2580  -41.6830   16.4160 C   0  0  0  0  0  0  0  0  0  0  0  0
   62.9880  -41.0010   14.6580 Br  0  0  0  0  0  0  0  0  0  0  0  0
   66.4200  -42.6100   16.3360 H   0  0  0  0  0  0  0  0  0  0  0  0
   65.6550  -41.5680   15.1870 H   0  0  0  0  0  0  0  0  0  0  0  0
   56.4690  -43.4490   16.7800 C   0  0  0  0  0  2  0  0  0  0  0  0
   56.0040  -43.5470   15.3130 C   0  0  0  0  0  2  0  0  0  0  0  0
   54.6890  -44.1550   14.9620 N   0  0  0  0  0  4  0  0  0  0  0  0
   53.7690  -44.4100   16.0860 C   0  0  0  0  0  2  0  0  0  0  0  0
   52.6220  -43.9680   15.1630 C   0  0  0  0  0  2  0  0  0  0  0  0
   53.7050  -43.2650   14.3300 C   0  0  0  0  0  2  0  0  0  0  0  0
   54.8310  -45.0150   14.4090 H   0  0  0  0  0  0  0  0  0  0  0  0
  1  9  1  0  0  0  0
  1  5  1  0  0  0  0
  2  3  1  0  0  0  0
  2  1  2  0  0  0  0
  3  4  1  0  0  0  0
  4  5  2  0  0  0  0
  7  6  1  0  0  0  0
  8  7  1  0  0  0  0
  9  8  2  0  0  0  0
 10 11  2  0  0  0  0
 10  9  1  0  0  0  0
 11 12  1  0  0  0  0
 12 13  1  0  0  0  0
 12  7  2  0  0  0  0
 14  4  1  6  0  0  0
 14 15  1  0  0  0  0
 16 15  1  0  0  0  0
 17 20  1  0  0  0  0
 17 16  1  0  0  0  0
 18 17  1  0  0  0  0
 18 19  1  0  0  0  0
 19 14  1  0  0  0  0
 20 21  1  0  0  0  0
 21 22  2  0  0  0  0
 23 22  1  0  0  0  0
 24 23  2  0  0  0  0
 25 28  1  0  0  0  0
 25 24  1  0  0  0  0
 26 24  1  0  0  0  0
 26 20  2  0  0  0  0
 27 26  1  0  0  0  0
 29 25  1  0  0  0  0
 30  3  1  0  0  0  0
 31 30  1  0  0  0  0
 32 31  1  0  0  0  0
 32 33  1  0  0  0  0
 34 33  1  0  0  0  0
 35 32  1  0  0  0  0
 35 34  1  0  0  0  0
 36 32  1  0  0  0  0
M  END
>  <minimizedAffinity>
-4.07220125

$$$$

 OpenBabel11232419343D

 36 40  0  0  1  0  0  0  0  0999 V2000
   56.4950  -43.2890   18.3470 C   0  0  0  0  0  0  0  0  0  0  0  0
   56.0750  -43.7260   17.1120 C   0  0  0  0  0  3  0  0  0  0  0  0
   56.9920  -43.2340   16.2160 N   0  0  0  0  0  0  0  0  0  0  0  0
   57.9820  -42.5970   16.9350 C   0  0  0  0  0  0  0  0  0  0  0  0
   57.6410  -42.5470   18.2050 N   0  0  0  0  0  0  0  0  0  0  0  0
   54.5670  -41.6450   22.6910 C   0  0  0  0  0  1  0  0  0  0  0  0
   54.9390  -42.7590   21.7590 C   0  0  0  0  0  0  0  0  0  0  0  0
   55.5580  -42.4940   20.5260 C   0  0  0  0  0  3  0  0  0  0  0  0
   55.8620  -43.5360   19.6330 C   0  0  0  0  0  0  0  0  0  0  0  0
   55.5200  -44.8500   19.9860 C   0  0  0  0  0  3  0  0  0  0  0  0
   54.8960  -45.1210   21.2050 C   0  0  0  0  0  3  0  0  0  0  0  0
   54.6080  -44.0780   22.0770 C   0  0  0  0  0  0  0  0  0  0  0  0
   53.9970  -44.3530   23.2360 F   0  0  0  0  0  0  0  0  0  0  0  0
   59.2550  -42.0300   16.3590 C   0  0  2  0  0  3  0  0  0  0  0  0
   60.1070  -43.1310   15.7100 C   0  0  0  0  0  2  0  0  0  0  0  0
   60.8960  -43.9460   16.7370 C   0  0  0  0  0  2  0  0  0  0  0  0
   61.6400  -43.0730   17.6380 N   0  0  0  0  0  0  0  0  0  0  0  0
   60.8410  -42.1000   18.3780 C   0  0  0  0  0  2  0  0  0  0  0  0
   60.0550  -41.2230   17.3990 C   0  0  0  0  0  2  0  0  0  0  0  0
   62.9370  -42.7090   17.2850 C   0  0  0  0  0  0  0  0  0  0  0  0
   63.0720  -41.6370   16.4760 N   0  0  0  0  0  0  0  0  0  0  0  0
   64.3200  -41.2640   16.1600 C   0  0  0  0  0  3  0  0  0  0  0  0
   65.4490  -41.8480   16.5700 N   0  0  0  0  0  0  0  0  0  0  0  0
   65.3050  -42.9350   17.3410 C   0  0  0  0  0  0  0  0  0  0  0  0
   66.4930  -43.5070   17.7630 N   0  0  0  0  0  0  0  0  0  0  0  0
   64.0580  -43.4100   17.7380 C   0  0  0  0  0  0  0  0  0  0  0  0
   63.9290  -45.0160   18.7540 Br  0  0  0  0  0  0  0  0  0  0  0  0
   67.3170  -43.0610   17.3800 H   0  0  0  0  0  0  0  0  0  0  0  0
   66.5150  -44.5120   17.8760 H   0  0  0  0  0  0  0  0  0  0  0  0
   56.9000  -43.4120   14.7830 C   0  0  0  0  0  2  0  0  0  0  0  0
   56.3530  -42.1950   14.0100 C   0  0  0  0  0  2  0  0  0  0  0  0
   54.8960  -41.8780   14.0070 N   0  0  0  0  0  4  0  0  0  0  0  0
   54.4180  -41.0080   15.0970 C   0  0  0  0  0  2  0  0  0  0  0  0
   53.4930  -40.3370   14.0690 C   0  0  0  0  0  2  0  0  0  0  0  0
   54.4410  -40.9050   13.0030 C   0  0  0  0  0  2  0  0  0  0  0  0
   54.3430  -42.7480   13.9690 H   0  0  0  0  0  0  0  0  0  0  0  0
  1  9  1  0  0  0  0
  2  1  2  0  0  0  0
  3  4  1  0  0  0  0
  3  2  1  0  0  0  0
  4  5  2  0  0  0  0
  5  1  1  0  0  0  0
  7 12  1  0  0  0  0
  7  6  1  0  0  0  0
  8  7  2  0  0  0  0
  9 10  2  0  0  0  0
  9  8  1  0  0  0  0
 10 11  1  0  0  0  0
 11 12  2  0  0  0  0
 12 13  1  0  0  0  0
 14  4  1  1  0  0  0
 14 19  1  0  0  0  0
 15 14  1  0  0  0  0
 15 16  1  0  0  0  0
 16 17  1  0  0  0  0
 17 18  1  0  0  0  0
 19 18  1  0  0  0  0
 20 17  1  0  0  0  0
 20 26  1  0  0  0  0
 21 20  2  0  0  0  0
 22 21  1  0  0  0  0
 22 23  2  0  0  0  0
 23 24  1  0  0  0  0
 24 26  2  0  0  0  0
 24 25  1  0  0  0  0
 25 29  1  0  0  0  0
 26 27  1  0  0  0  0
 28 25  1  0  0  0  0
 30  3  1  0  0  0  0
 31 30  1  0  0  0  0
 32 31  1  0  0  0  0
 32 33  1  0  0  0  0
 34 33  1  0  0  0  0
 35 32  1  0  0  0  0
 35 34  1  0  0  0  0
 36 32  1  0  0  0  0
M  END
>  <minimizedAffinity>
-3.99732327

$$$$

 OpenBabel11232419343D

 36 40  0  0  1  0  0  0  0  0999 V2000
   62.1750  -41.6200   16.1550 C   0  0  0  0  0  0  0  0  0  0  0  0
   62.8690  -41.6640   14.9680 C   0  0  0  0  0  3  0  0  0  0  0  0
   62.1930  -42.5640   14.1800 N   0  0  0  0  0  0  0  0  0  0  0  0
   61.0690  -42.9660   14.8720 C   0  0  0  0  0  0  0  0  0  0  0  0
   61.1030  -42.4740   16.0920 N   0  0  0  0  0  0  0  0  0  0  0  0
   61.0520  -37.9430   19.3970 C   0  0  0  0  0  1  0  0  0  0  0  0
   61.9690  -39.0220   18.9030 C   0  0  0  0  0  0  0  0  0  0  0  0
   61.6490  -39.7760   17.7620 C   0  0  0  0  0  3  0  0  0  0  0  0
   62.4860  -40.8180   17.3290 C   0  0  0  0  0  0  0  0  0  0  0  0
   63.6430  -41.1080   18.0680 C   0  0  0  0  0  3  0  0  0  0  0  0
   63.9630  -40.3690   19.2090 C   0  0  0  0  0  3  0  0  0  0  0  0
   63.1250  -39.3390   19.6180 C   0  0  0  0  0  0  0  0  0  0  0  0
   63.4390  -38.6500   20.7230 F   0  0  0  0  0  0  0  0  0  0  0  0
   59.9730  -43.8460   14.3260 C   0  0  2  0  0  3  0  0  0  0  0  0
   58.9980  -43.0390   13.4550 C   0  0  0  0  0  2  0  0  0  0  0  0
   57.9900  -42.2420   14.2850 C   0  0  0  0  0  2  0  0  0  0  0  0
   57.3380  -43.0930   15.2740 N   0  0  0  0  0  0  0  0  0  0  0  0
   58.2300  -43.7720   16.2110 C   0  0  0  0  0  2  0  0  0  0  0  0
   59.2420  -44.6220   15.4380 C   0  0  0  0  0  2  0  0  0  0  0  0
   56.1620  -43.7470   14.9130 C   0  0  0  0  0  0  0  0  0  0  0  0
   56.1950  -44.4810   13.7800 N   0  0  0  0  0  0  0  0  0  0  0  0
   55.0760  -45.1370   13.4450 C   0  0  0  0  0  3  0  0  0  0  0  0
   53.9260  -45.1400   14.1250 N   0  0  0  0  0  0  0  0  0  0  0  0
   53.8900  -44.3770   15.2260 C   0  0  0  0  0  0  0  0  0  0  0  0
   52.6900  -44.4150   15.9180 N   0  0  0  0  0  0  0  0  0  0  0  0
   54.9940  -43.6580   15.6740 C   0  0  0  0  0  0  0  0  0  0  0  0
   54.8390  -42.5200   17.1940 Br  0  0  0  0  0  0  0  0  0  0  0  0
   51.9760  -44.9690   15.4630 H   0  0  0  0  0  0  0  0  0  0  0  0
   52.3970  -43.5710   16.3920 H   0  0  0  0  0  0  0  0  0  0  0  0
   62.6160  -42.9590   12.8550 C   0  0  0  0  0  2  0  0  0  0  0  0
   63.7450  -44.0080   12.8170 C   0  0  0  0  0  2  0  0  0  0  0  0
   65.1760  -43.6030   12.9300 N   0  0  0  0  0  4  0  0  0  0  0  0
   65.4750  -42.1880   12.6440 C   0  0  0  0  0  2  0  0  0  0  0  0
   66.4920  -42.2370   13.7960 C   0  0  0  0  0  2  0  0  0  0  0  0
   65.7110  -43.4640   14.2910 C   0  0  0  0  0  2  0  0  0  0  0  0
   65.7670  -44.2210   12.3530 H   0  0  0  0  0  0  0  0  0  0  0  0
  1  9  1  0  0  0  0
  2  1  2  0  0  0  0
  3  4  1  0  0  0  0
  3  2  1  0  0  0  0
  4  5  2  0  0  0  0
  5  1  1  0  0  0  0
  7  6  1  0  0  0  0
  7 12  1  0  0  0  0
  8  7  2  0  0  0  0
  9  8  1  0  0  0  0
  9 10  2  0  0  0  0
 10 11  1  0  0  0  0
 11 12  2  0  0  0  0
 12 13  1  0  0  0  0
 14  4  1  1  0  0  0
 14 19  1  0  0  0  0
 15 16  1  0  0  0  0
 15 14  1  0  0  0  0
 16 17  1  0  0  0  0
 17 18  1  0  0  0  0
 19 18  1  0  0  0  0
 20 17  1  0  0  0  0
 20 26  1  0  0  0  0
 21 20  2  0  0  0  0
 22 21  1  0  0  0  0
 22 23  2  0  0  0  0
 23 24  1  0  0  0  0
 24 26  2  0  0  0  0
 24 25  1  0  0  0  0
 25 29  1  0  0  0  0
 26 27  1  0  0  0  0
 28 25  1  0  0  0  0
 30  3  1  0  0  0  0
 31 30  1  0  0  0  0
 31 32  1  0  0  0  0
 32 35  1  0  0  0  0
 33 32  1  0  0  0  0
 33 34  1  0  0  0  0
 34 35  1  0  0  0  0
 36 32  1  0  0  0  0
M  END
>  <minimizedAffinity>
-3.89843631

$$$$

 OpenBabel11232419343D

 36 40  0  0  1  0  0  0  0  0999 V2000
   60.6060  -42.3270   15.5880 C   0  0  0  0  0  0  0  0  0  0  0  0
   59.9720  -42.9040   14.5120 C   0  0  0  0  0  3  0  0  0  0  0  0
   58.6410  -42.9470   14.8480 N   0  0  0  0  0  0  0  0  0  0  0  0
   58.4960  -42.3190   16.0670 C   0  0  0  0  0  0  0  0  0  0  0  0
   59.6820  -42.0280   16.5580 N   0  0  0  0  0  0  0  0  0  0  0  0
   65.0280  -43.1410   17.8410 C   0  0  0  0  0  1  0  0  0  0  0  0
   64.1830  -42.4250   16.8310 C   0  0  0  0  0  0  0  0  0  0  0  0
   62.8100  -42.6960   16.7150 C   0  0  0  0  0  3  0  0  0  0  0  0
   62.0280  -42.0590   15.7350 C   0  0  0  0  0  0  0  0  0  0  0  0
   62.6490  -41.1570   14.8580 C   0  0  0  0  0  3  0  0  0  0  0  0
   64.0150  -40.8890   14.9600 C   0  0  0  0  0  3  0  0  0  0  0  0
   64.7690  -41.5250   15.9390 C   0  0  0  0  0  0  0  0  0  0  0  0
   66.0810  -41.2680   16.0140 F   0  0  0  0  0  0  0  0  0  0  0  0
   57.1830  -42.0210   16.7470 C   0  0  2  0  0  3  0  0  0  0  0  0
   57.3900  -41.1210   17.9750 C   0  0  0  0  0  2  0  0  0  0  0  0
   57.8840  -41.8970   19.1970 C   0  0  0  0  0  2  0  0  0  0  0  0
   57.0460  -43.0640   19.4500 N   0  0  0  0  0  0  0  0  0  0  0  0
   56.9370  -44.0150   18.3480 C   0  0  0  0  0  2  0  0  0  0  0  0
   56.4060  -43.3030   17.1000 C   0  0  0  0  0  2  0  0  0  0  0  0
   55.9430  -42.9170   20.2880 C   0  0  0  0  0  0  0  0  0  0  0  0
   55.2080  -41.7940   20.1400 N   0  0  0  0  0  0  0  0  0  0  0  0
   54.1280  -41.6640   20.9220 C   0  0  0  0  0  3  0  0  0  0  0  0
   53.7020  -42.5390   21.8360 N   0  0  0  0  0  0  0  0  0  0  0  0
   54.4590  -43.6320   22.0040 C   0  0  0  0  0  0  0  0  0  0  0  0
   53.9810  -44.5280   22.9460 N   0  0  0  0  0  0  0  0  0  0  0  0
   55.5980  -43.8770   21.2440 C   0  0  0  0  0  0  0  0  0  0  0  0
   56.6770  -45.4040   21.6050 Br  0  0  0  0  0  0  0  0  0  0  0  0
   53.1520  -44.2070   23.4280 H   0  0  0  0  0  0  0  0  0  0  0  0
   54.6610  -45.0510   23.4810 H   0  0  0  0  0  0  0  0  0  0  0  0
   57.6140  -43.5340   14.0160 C   0  0  0  0  0  2  0  0  0  0  0  0
   56.9000  -42.5470   13.0710 C   0  0  0  0  0  2  0  0  0  0  0  0
   55.4140  -42.4250   13.0670 N   0  0  0  0  0  4  0  0  0  0  0  0
   54.6760  -43.4420   13.8380 C   0  0  0  0  0  2  0  0  0  0  0  0
   53.7140  -42.3240   14.2710 C   0  0  0  0  0  2  0  0  0  0  0  0
   54.8440  -41.3530   13.8960 C   0  0  0  0  0  2  0  0  0  0  0  0
   55.0630  -42.3800   12.0980 H   0  0  0  0  0  0  0  0  0  0  0  0
  1  9  1  0  0  0  0
  1  5  1  0  0  0  0
  2  3  1  0  0  0  0
  2  1  2  0  0  0  0
  3  4  1  0  0  0  0
  4  5  2  0  0  0  0
  7  6  1  0  0  0  0
  8  7  1  0  0  0  0
  9  8  2  0  0  0  0
 10 11  2  0  0  0  0
 10  9  1  0  0  0  0
 11 12  1  0  0  0  0
 12 13  1  0  0  0  0
 12  7  2  0  0  0  0
 14  4  1  1  0  0  0
 14 19  1  0  0  0  0
 14 15  1  0  0  0  0
 15 16  1  0  0  0  0
 16 17  1  0  0  0  0
 17 20  1  0  0  0  0
 18 17  1  0  0  0  0
 19 18  1  0  0  0  0
 20 26  1  0  0  0  0
 21 20  2  0  0  0  0
 21 22  1  0  0  0  0
 22 23  2  0  0  0  0
 23 24  1  0  0  0  0
 24 25  1  0  0  0  0
 25 28  1  0  0  0  0
 25 29  1  0  0  0  0
 26 27  1  0  0  0  0
 26 24  2  0  0  0  0
 30  3  1  0  0  0  0
 31 30  1  0  0  0  0
 32 31  1  0  0  0  0
 32 33  1  0  0  0  0
 32 35  1  0  0  0  0
 33 34  1  0  0  0  0
 35 34  1  0  0  0  0
 36 32  1  0  0  0  0
M  END
>  <minimizedAffinity>
-3.84146452

$$$$
