
 OpenBabel11232419343D

 36 40  0  0  1  0  0  0  0  0999 V2000
   55.4770  -40.9010   17.8540 C   0  0  0  0  0  0  0  0  0  0  0  0
   54.9400  -42.0620   18.3610 C   0  0  0  0  0  3  0  0  0  0  0  0
   56.0150  -42.8310   18.7370 N   0  0  0  0  0  0  0  0  0  0  0  0
   57.1570  -42.0840   18.5330 C   0  0  0  0  0  0  0  0  0  0  0  0
   56.8460  -40.9630   17.9180 N   0  0  0  0  0  0  0  0  0  0  0  0
   52.6190  -38.7790   14.3020 C   0  0  0  0  0  1  0  0  0  0  0  0
   53.3840  -38.7030   15.5890 C   0  0  0  0  0  0  0  0  0  0  0  0
   54.0790  -39.8180   16.0840 C   0  0  0  0  0  3  0  0  0  0  0  0
   54.7560  -39.7590   17.3150 C   0  0  0  0  0  0  0  0  0  0  0  0
   54.7120  -38.5670   18.0530 C   0  0  0  0  0  3  0  0  0  0  0  0
   54.0150  -37.4560   17.5730 C   0  0  0  0  0  3  0  0  0  0  0  0
   53.3570  -37.5340   16.3520 C   0  0  0  0  0  0  0  0  0  0  0  0
   52.6810  -36.4640   15.9110 F   0  0  0  0  0  0  0  0  0  0  0  0
   58.5520  -42.4900   18.9370 C   0  0  2  0  0  3  0  0  0  0  0  0
   59.3870  -41.2660   19.3430 C   0  0  0  0  0  2  0  0  0  0  0  0
   59.9250  -40.4940   18.1370 C   0  0  0  0  0  2  0  0  0  0  0  0
   60.5980  -41.3890   17.2020 N   0  0  0  0  0  0  0  0  0  0  0  0
   59.7890  -42.4900   16.6860 C   0  0  0  0  0  2  0  0  0  0  0  0
   59.2520  -43.3270   17.8500 C   0  0  0  0  0  2  0  0  0  0  0  0
   61.9630  -41.6120   17.3650 C   0  0  0  0  0  0  0  0  0  0  0  0
   62.4020  -41.8140   18.6260 N   0  0  0  0  0  0  0  0  0  0  0  0
   63.7100  -42.0610   18.7850 C   0  0  0  0  0  3  0  0  0  0  0  0
   64.6260  -42.1300   17.8160 N   0  0  0  0  0  0  0  0  0  0  0  0
   64.1890  -41.8900   16.5720 C   0  0  0  0  0  0  0  0  0  0  0  0
   65.1590  -41.9870   15.5880 N   0  0  0  0  0  0  0  0  0  0  0  0
   62.8520  -41.6300   16.2870 C   0  0  0  0  0  0  0  0  0  0  0  0
   62.3210  -41.2030   14.5080 Br  0  0  0  0  0  0  0  0  0  0  0  0
   66.0870  -42.1670   15.9490 H   0  0  0  0  0  0  0  0  0  0  0  0
   65.0790  -41.3720   14.7900 H   0  0  0  0  0  0  0  0  0  0  0  0
   55.9050  -44.1690   19.2740 C   0  0  0  0  0  2  0  0  0  0  0  0
   54.7310  -44.3850   20.2500 C   0  0  0  0  0  2  0  0  0  0  0  0
   54.8450  -44.0030   21.6860 N   0  0  0  0  0  4  0  0  0  0  0  0
   54.7710  -42.5610   21.9840 C   0  0  0  0  0  2  0  0  0  0  0  0
   53.9540  -42.9250   23.2340 C   0  0  0  0  0  2  0  0  0  0  0  0
   53.6660  -44.2580   22.5260 C   0  0  0  0  0  2  0  0  0  0  0  0
   55.6970  -44.4130   22.0980 H   0  0  0  0  0  0  0  0  0  0  0  0
  1  5  1  0  0  0  0
  1  2  2  0  0  0  0
  2  3  1  0  0  0  0
  3 30  1  0  0  0  0
  4  3  1  0  0  0  0
  5  4  2  0  0  0  0
  6  7  1  0  0  0  0
  7  8  2  0  0  0  0
  7 12  1  0  0  0  0
  8  9  1  0  0  0  0
  9  1  1  0  0  0  0
  9 10  2  0  0  0  0
 11 10  1  0  0  0  0
 12 11  2  0  0  0  0
 13 12  1  0  0  0  0
 14  4  1  6  0  0  0
 14 15  1  0  0  0  0
 16 15  1  0  0  0  0
 17 20  1  0  0  0  0
 17 16  1  0  0  0  0
 18 17  1  0  0  0  0
 18 19  1  0  0  0  0
 19 14  1  0  0  0  0
 20 21  1  0  0  0  0
 21 22  2  0  0  0  0
 23 22  1  0  0  0  0
 24 23  2  0  0  0  0
 25 28  1  0  0  0  0
 25 24  1  0  0  0  0
 26 24  1  0  0  0  0
 26 20  2  0  0  0  0
 27 26  1  0  0  0  0
 29 25  1  0  0  0  0
 30 31  1  0  0  0  0
 31 32  1  0  0  0  0
 32 33  1  0  0  0  0
 32 36  1  0  0  0  0
 32 35  1  0  0  0  0
 33 34  1  0  0  0  0
 35 34  1  0  0  0  0
M  END
>  <minimizedAffinity>
-4.45860958

$$$$
