
 OpenBabel11232419343D

 36 40  0  0  1  0  0  0  0  0999 V2000
   62.1750  -41.6200   16.1550 C   0  0  0  0  0  0  0  0  0  0  0  0
   62.8690  -41.6640   14.9680 C   0  0  0  0  0  3  0  0  0  0  0  0
   62.1930  -42.5640   14.1800 N   0  0  0  0  0  0  0  0  0  0  0  0
   61.0690  -42.9660   14.8720 C   0  0  0  0  0  0  0  0  0  0  0  0
   61.1030  -42.4740   16.0920 N   0  0  0  0  0  0  0  0  0  0  0  0
   61.0520  -37.9430   19.3970 C   0  0  0  0  0  1  0  0  0  0  0  0
   61.9690  -39.0220   18.9030 C   0  0  0  0  0  0  0  0  0  0  0  0
   61.6490  -39.7760   17.7620 C   0  0  0  0  0  3  0  0  0  0  0  0
   62.4860  -40.8180   17.3290 C   0  0  0  0  0  0  0  0  0  0  0  0
   63.6430  -41.1080   18.0680 C   0  0  0  0  0  3  0  0  0  0  0  0
   63.9630  -40.3690   19.2090 C   0  0  0  0  0  3  0  0  0  0  0  0
   63.1250  -39.3390   19.6180 C   0  0  0  0  0  0  0  0  0  0  0  0
   63.4390  -38.6500   20.7230 F   0  0  0  0  0  0  0  0  0  0  0  0
   59.9730  -43.8460   14.3260 C   0  0  2  0  0  3  0  0  0  0  0  0
   58.9980  -43.0390   13.4550 C   0  0  0  0  0  2  0  0  0  0  0  0
   57.9900  -42.2420   14.2850 C   0  0  0  0  0  2  0  0  0  0  0  0
   57.3380  -43.0930   15.2740 N   0  0  0  0  0  0  0  0  0  0  0  0
   58.2300  -43.7720   16.2110 C   0  0  0  0  0  2  0  0  0  0  0  0
   59.2420  -44.6220   15.4380 C   0  0  0  0  0  2  0  0  0  0  0  0
   56.1620  -43.7470   14.9130 C   0  0  0  0  0  0  0  0  0  0  0  0
   56.1950  -44.4810   13.7800 N   0  0  0  0  0  0  0  0  0  0  0  0
   55.0760  -45.1370   13.4450 C   0  0  0  0  0  3  0  0  0  0  0  0
   53.9260  -45.1400   14.1250 N   0  0  0  0  0  0  0  0  0  0  0  0
   53.8900  -44.3770   15.2260 C   0  0  0  0  0  0  0  0  0  0  0  0
   52.6900  -44.4150   15.9180 N   0  0  0  0  0  0  0  0  0  0  0  0
   54.9940  -43.6580   15.6740 C   0  0  0  0  0  0  0  0  0  0  0  0
   54.8390  -42.5200   17.1940 Br  0  0  0  0  0  0  0  0  0  0  0  0
   51.9760  -44.9690   15.4630 H   0  0  0  0  0  0  0  0  0  0  0  0
   52.3970  -43.5710   16.3920 H   0  0  0  0  0  0  0  0  0  0  0  0
   62.6160  -42.9590   12.8550 C   0  0  0  0  0  2  0  0  0  0  0  0
   63.7450  -44.0080   12.8170 C   0  0  0  0  0  2  0  0  0  0  0  0
   65.1760  -43.6030   12.9300 N   0  0  0  0  0  4  0  0  0  0  0  0
   65.4750  -42.1880   12.6440 C   0  0  0  0  0  2  0  0  0  0  0  0
   66.4920  -42.2370   13.7960 C   0  0  0  0  0  2  0  0  0  0  0  0
   65.7110  -43.4640   14.2910 C   0  0  0  0  0  2  0  0  0  0  0  0
   65.7670  -44.2210   12.3530 H   0  0  0  0  0  0  0  0  0  0  0  0
  1  9  1  0  0  0  0
  2  1  2  0  0  0  0
  3  4  1  0  0  0  0
  3  2  1  0  0  0  0
  4  5  2  0  0  0  0
  5  1  1  0  0  0  0
  7  6  1  0  0  0  0
  7 12  1  0  0  0  0
  8  7  2  0  0  0  0
  9  8  1  0  0  0  0
  9 10  2  0  0  0  0
 10 11  1  0  0  0  0
 11 12  2  0  0  0  0
 12 13  1  0  0  0  0
 14  4  1  1  0  0  0
 14 19  1  0  0  0  0
 15 16  1  0  0  0  0
 15 14  1  0  0  0  0
 16 17  1  0  0  0  0
 17 18  1  0  0  0  0
 19 18  1  0  0  0  0
 20 17  1  0  0  0  0
 20 26  1  0  0  0  0
 21 20  2  0  0  0  0
 22 21  1  0  0  0  0
 22 23  2  0  0  0  0
 23 24  1  0  0  0  0
 24 26  2  0  0  0  0
 24 25  1  0  0  0  0
 25 29  1  0  0  0  0
 26 27  1  0  0  0  0
 28 25  1  0  0  0  0
 30  3  1  0  0  0  0
 31 30  1  0  0  0  0
 31 32  1  0  0  0  0
 32 35  1  0  0  0  0
 33 32  1  0  0  0  0
 33 34  1  0  0  0  0
 34 35  1  0  0  0  0
 36 32  1  0  0  0  0
M  END
>  <minimizedAffinity>
-3.89843631

$$$$
