
 OpenBabel11232419343D

 36 40  0  0  1  0  0  0  0  0999 V2000
   55.6960  -40.1130   17.8550 C   0  0  0  0  0  0  0  0  0  0  0  0
   55.3290  -41.2800   17.2250 C   0  0  0  0  0  3  0  0  0  0  0  0
   56.4060  -42.1220   17.3530 N   0  0  0  0  0  0  0  0  0  0  0  0
   57.3500  -41.4820   18.1270 C   0  0  0  0  0  0  0  0  0  0  0  0
   56.9690  -40.2420   18.3530 N   0  0  0  0  0  0  0  0  0  0  0  0
   52.6820  -37.1120   20.5370 C   0  0  0  0  0  1  0  0  0  0  0  0
   53.4230  -37.4370   19.2750 C   0  0  0  0  0  0  0  0  0  0  0  0
   54.1730  -38.6190   19.1610 C   0  0  0  0  0  3  0  0  0  0  0  0
   54.9060  -38.9000   17.9960 C   0  0  0  0  0  0  0  0  0  0  0  0
   54.8930  -37.9660   16.9480 C   0  0  0  0  0  3  0  0  0  0  0  0
   54.1590  -36.7830   17.0570 C   0  0  0  0  0  3  0  0  0  0  0  0
   53.4360  -36.5280   18.2160 C   0  0  0  0  0  0  0  0  0  0  0  0
   52.7480  -35.3820   18.3100 F   0  0  0  0  0  0  0  0  0  0  0  0
   58.6330  -42.0950   18.6290 C   0  0  2  0  0  3  0  0  0  0  0  0
   59.5900  -41.0170   19.1600 C   0  0  0  0  0  2  0  0  0  0  0  0
   60.3370  -40.2900   18.0410 C   0  0  0  0  0  2  0  0  0  0  0  0
   60.9620  -41.2400   17.1270 N   0  0  0  0  0  0  0  0  0  0  0  0
   60.0570  -42.1970   16.4940 C   0  0  0  0  0  2  0  0  0  0  0  0
   59.3050  -42.9870   17.5690 C   0  0  0  0  0  2  0  0  0  0  0  0
   62.2620  -41.6610   17.3960 C   0  0  0  0  0  0  0  0  0  0  0  0
   62.5280  -42.0540   18.6600 N   0  0  0  0  0  0  0  0  0  0  0  0
   63.7690  -42.4890   18.9160 C   0  0  0  0  0  3  0  0  0  0  0  0
   64.7730  -42.5780   18.0410 N   0  0  0  0  0  0  0  0  0  0  0  0
   64.5120  -42.1490   16.7980 C   0  0  0  0  0  0  0  0  0  0  0  0
   65.5680  -42.2700   15.9100 N   0  0  0  0  0  0  0  0  0  0  0  0
   63.2580  -41.6830   16.4160 C   0  0  0  0  0  0  0  0  0  0  0  0
   62.9880  -41.0010   14.6580 Br  0  0  0  0  0  0  0  0  0  0  0  0
   66.4200  -42.6100   16.3360 H   0  0  0  0  0  0  0  0  0  0  0  0
   65.6550  -41.5680   15.1870 H   0  0  0  0  0  0  0  0  0  0  0  0
   56.4690  -43.4490   16.7800 C   0  0  0  0  0  2  0  0  0  0  0  0
   56.0040  -43.5470   15.3130 C   0  0  0  0  0  2  0  0  0  0  0  0
   54.6890  -44.1550   14.9620 N   0  0  0  0  0  4  0  0  0  0  0  0
   53.7690  -44.4100   16.0860 C   0  0  0  0  0  2  0  0  0  0  0  0
   52.6220  -43.9680   15.1630 C   0  0  0  0  0  2  0  0  0  0  0  0
   53.7050  -43.2650   14.3300 C   0  0  0  0  0  2  0  0  0  0  0  0
   54.8310  -45.0150   14.4090 H   0  0  0  0  0  0  0  0  0  0  0  0
  1  9  1  0  0  0  0
  1  5  1  0  0  0  0
  2  3  1  0  0  0  0
  2  1  2  0  0  0  0
  3  4  1  0  0  0  0
  4  5  2  0  0  0  0
  7  6  1  0  0  0  0
  8  7  1  0  0  0  0
  9  8  2  0  0  0  0
 10 11  2  0  0  0  0
 10  9  1  0  0  0  0
 11 12  1  0  0  0  0
 12 13  1  0  0  0  0
 12  7  2  0  0  0  0
 14  4  1  6  0  0  0
 14 15  1  0  0  0  0
 16 15  1  0  0  0  0
 17 20  1  0  0  0  0
 17 16  1  0  0  0  0
 18 17  1  0  0  0  0
 18 19  1  0  0  0  0
 19 14  1  0  0  0  0
 20 21  1  0  0  0  0
 21 22  2  0  0  0  0
 23 22  1  0  0  0  0
 24 23  2  0  0  0  0
 25 28  1  0  0  0  0
 25 24  1  0  0  0  0
 26 24  1  0  0  0  0
 26 20  2  0  0  0  0
 27 26  1  0  0  0  0
 29 25  1  0  0  0  0
 30  3  1  0  0  0  0
 31 30  1  0  0  0  0
 32 31  1  0  0  0  0
 32 33  1  0  0  0  0
 34 33  1  0  0  0  0
 35 32  1  0  0  0  0
 35 34  1  0  0  0  0
 36 32  1  0  0  0  0
M  END
>  <minimizedAffinity>
-4.07220125

$$$$
