
 OpenBabel11232419343D

 36 40  0  0  1  0  0  0  0  0999 V2000
   55.4210  -40.0860   18.3170 C   0  0  0  0  0  0  0  0  0  0  0  0
   54.9000  -41.0700   19.1240 C   0  0  0  0  0  3  0  0  0  0  0  0
   55.9800  -41.7930   19.5680 N   0  0  0  0  0  0  0  0  0  0  0  0
   57.1200  -41.1780   19.0960 C   0  0  0  0  0  0  0  0  0  0  0  0
   56.7870  -40.2090   18.2690 N   0  0  0  0  0  0  0  0  0  0  0  0
   54.1070  -35.2800   17.6390 C   0  0  0  0  0  1  0  0  0  0  0  0
   54.0220  -36.7280   17.2620 C   0  0  0  0  0  0  0  0  0  0  0  0
   54.7320  -37.7050   17.9800 C   0  0  0  0  0  3  0  0  0  0  0  0
   54.6890  -39.0560   17.5960 C   0  0  0  0  0  0  0  0  0  0  0  0
   53.9360  -39.4150   16.4670 C   0  0  0  0  0  3  0  0  0  0  0  0
   53.2350  -38.4490   15.7420 C   0  0  0  0  0  3  0  0  0  0  0  0
   53.2870  -37.1190   16.1420 C   0  0  0  0  0  0  0  0  0  0  0  0
   52.6200  -36.2020   15.4270 F   0  0  0  0  0  0  0  0  0  0  0  0
   58.5340  -41.5600   19.4550 C   0  0  2  0  0  3  0  0  0  0  0  0
   59.3870  -40.3140   19.7400 C   0  0  0  0  0  2  0  0  0  0  0  0
   59.8630  -39.6210   18.4630 C   0  0  0  0  0  2  0  0  0  0  0  0
   60.4900  -40.5750   17.5530 N   0  0  0  0  0  0  0  0  0  0  0  0
   59.6570  -41.7040   17.1490 C   0  0  0  0  0  2  0  0  0  0  0  0
   59.1800  -42.4650   18.3900 C   0  0  0  0  0  2  0  0  0  0  0  0
   61.8620  -40.7900   17.6630 C   0  0  0  0  0  0  0  0  0  0  0  0
   62.4060  -40.6500   18.8910 N   0  0  0  0  0  0  0  0  0  0  0  0
   63.7200  -40.8860   19.0060 C   0  0  0  0  0  3  0  0  0  0  0  0
   64.5480  -41.2520   18.0250 N   0  0  0  0  0  0  0  0  0  0  0  0
   64.0070  -41.3510   16.8030 C   0  0  0  0  0  0  0  0  0  0  0  0
   64.8880  -41.7490   15.8100 N   0  0  0  0  0  0  0  0  0  0  0  0
   62.6530  -41.1350   16.5640 C   0  0  0  0  0  0  0  0  0  0  0  0
   61.9750  -41.1990   14.7850 Br  0  0  0  0  0  0  0  0  0  0  0  0
   65.8420  -41.8530   16.1320 H   0  0  0  0  0  0  0  0  0  0  0  0
   64.7450  -41.3770   14.8810 H   0  0  0  0  0  0  0  0  0  0  0  0
   55.8790  -42.9670   20.4070 C   0  0  0  0  0  2  0  0  0  0  0  0
   55.0230  -44.1110   19.8260 C   0  0  0  0  0  2  0  0  0  0  0  0
   55.6120  -45.1150   18.8950 N   0  0  0  0  0  4  0  0  0  0  0  0
   55.5980  -44.7620   17.4640 C   0  0  0  0  0  2  0  0  0  0  0  0
   56.9900  -45.4040   17.3570 C   0  0  0  0  0  2  0  0  0  0  0  0
   57.0790  -45.2120   18.8790 C   0  0  0  0  0  2  0  0  0  0  0  0
   55.1740  -46.0380   19.0440 H   0  0  0  0  0  0  0  0  0  0  0  0
  1  2  2  0  0  0  0
  2  3  1  0  0  0  0
  3 30  1  0  0  0  0
  4  3  1  0  0  0  0
  5  1  1  0  0  0  0
  5  4  2  0  0  0  0
  7  6  1  0  0  0  0
  7  8  1  0  0  0  0
  9  8  2  0  0  0  0
  9  1  1  0  0  0  0
 10  9  1  0  0  0  0
 11 12  1  0  0  0  0
 11 10  2  0  0  0  0
 12  7  2  0  0  0  0
 13 12  1  0  0  0  0
 14  4  1  6  0  0  0
 14 15  1  0  0  0  0
 16 15  1  0  0  0  0
 17 20  1  0  0  0  0
 17 16  1  0  0  0  0
 18 17  1  0  0  0  0
 18 19  1  0  0  0  0
 19 14  1  0  0  0  0
 20 21  1  0  0  0  0
 21 22  2  0  0  0  0
 23 22  1  0  0  0  0
 24 23  2  0  0  0  0
 25 28  1  0  0  0  0
 25 24  1  0  0  0  0
 26 24  1  0  0  0  0
 26 20  2  0  0  0  0
 27 26  1  0  0  0  0
 29 25  1  0  0  0  0
 31 30  1  0  0  0  0
 32 36  1  0  0  0  0
 32 31  1  0  0  0  0
 33 32  1  0  0  0  0
 34 33  1  0  0  0  0
 34 35  1  0  0  0  0
 35 32  1  0  0  0  0
M  END
>  <minimizedAffinity>
-5.41646671

$$$$
