
 OpenBabel11232419343D

 36 40  0  0  1  0  0  0  0  0999 V2000
   56.4950  -43.2890   18.3470 C   0  0  0  0  0  0  0  0  0  0  0  0
   56.0750  -43.7260   17.1120 C   0  0  0  0  0  3  0  0  0  0  0  0
   56.9920  -43.2340   16.2160 N   0  0  0  0  0  0  0  0  0  0  0  0
   57.9820  -42.5970   16.9350 C   0  0  0  0  0  0  0  0  0  0  0  0
   57.6410  -42.5470   18.2050 N   0  0  0  0  0  0  0  0  0  0  0  0
   54.5670  -41.6450   22.6910 C   0  0  0  0  0  1  0  0  0  0  0  0
   54.9390  -42.7590   21.7590 C   0  0  0  0  0  0  0  0  0  0  0  0
   55.5580  -42.4940   20.5260 C   0  0  0  0  0  3  0  0  0  0  0  0
   55.8620  -43.5360   19.6330 C   0  0  0  0  0  0  0  0  0  0  0  0
   55.5200  -44.8500   19.9860 C   0  0  0  0  0  3  0  0  0  0  0  0
   54.8960  -45.1210   21.2050 C   0  0  0  0  0  3  0  0  0  0  0  0
   54.6080  -44.0780   22.0770 C   0  0  0  0  0  0  0  0  0  0  0  0
   53.9970  -44.3530   23.2360 F   0  0  0  0  0  0  0  0  0  0  0  0
   59.2550  -42.0300   16.3590 C   0  0  2  0  0  3  0  0  0  0  0  0
   60.1070  -43.1310   15.7100 C   0  0  0  0  0  2  0  0  0  0  0  0
   60.8960  -43.9460   16.7370 C   0  0  0  0  0  2  0  0  0  0  0  0
   61.6400  -43.0730   17.6380 N   0  0  0  0  0  0  0  0  0  0  0  0
   60.8410  -42.1000   18.3780 C   0  0  0  0  0  2  0  0  0  0  0  0
   60.0550  -41.2230   17.3990 C   0  0  0  0  0  2  0  0  0  0  0  0
   62.9370  -42.7090   17.2850 C   0  0  0  0  0  0  0  0  0  0  0  0
   63.0720  -41.6370   16.4760 N   0  0  0  0  0  0  0  0  0  0  0  0
   64.3200  -41.2640   16.1600 C   0  0  0  0  0  3  0  0  0  0  0  0
   65.4490  -41.8480   16.5700 N   0  0  0  0  0  0  0  0  0  0  0  0
   65.3050  -42.9350   17.3410 C   0  0  0  0  0  0  0  0  0  0  0  0
   66.4930  -43.5070   17.7630 N   0  0  0  0  0  0  0  0  0  0  0  0
   64.0580  -43.4100   17.7380 C   0  0  0  0  0  0  0  0  0  0  0  0
   63.9290  -45.0160   18.7540 Br  0  0  0  0  0  0  0  0  0  0  0  0
   67.3170  -43.0610   17.3800 H   0  0  0  0  0  0  0  0  0  0  0  0
   66.5150  -44.5120   17.8760 H   0  0  0  0  0  0  0  0  0  0  0  0
   56.9000  -43.4120   14.7830 C   0  0  0  0  0  2  0  0  0  0  0  0
   56.3530  -42.1950   14.0100 C   0  0  0  0  0  2  0  0  0  0  0  0
   54.8960  -41.8780   14.0070 N   0  0  0  0  0  4  0  0  0  0  0  0
   54.4180  -41.0080   15.0970 C   0  0  0  0  0  2  0  0  0  0  0  0
   53.4930  -40.3370   14.0690 C   0  0  0  0  0  2  0  0  0  0  0  0
   54.4410  -40.9050   13.0030 C   0  0  0  0  0  2  0  0  0  0  0  0
   54.3430  -42.7480   13.9690 H   0  0  0  0  0  0  0  0  0  0  0  0
  1  9  1  0  0  0  0
  2  1  2  0  0  0  0
  3  4  1  0  0  0  0
  3  2  1  0  0  0  0
  4  5  2  0  0  0  0
  5  1  1  0  0  0  0
  7 12  1  0  0  0  0
  7  6  1  0  0  0  0
  8  7  2  0  0  0  0
  9 10  2  0  0  0  0
  9  8  1  0  0  0  0
 10 11  1  0  0  0  0
 11 12  2  0  0  0  0
 12 13  1  0  0  0  0
 14  4  1  1  0  0  0
 14 19  1  0  0  0  0
 15 14  1  0  0  0  0
 15 16  1  0  0  0  0
 16 17  1  0  0  0  0
 17 18  1  0  0  0  0
 19 18  1  0  0  0  0
 20 17  1  0  0  0  0
 20 26  1  0  0  0  0
 21 20  2  0  0  0  0
 22 21  1  0  0  0  0
 22 23  2  0  0  0  0
 23 24  1  0  0  0  0
 24 26  2  0  0  0  0
 24 25  1  0  0  0  0
 25 29  1  0  0  0  0
 26 27  1  0  0  0  0
 28 25  1  0  0  0  0
 30  3  1  0  0  0  0
 31 30  1  0  0  0  0
 32 31  1  0  0  0  0
 32 33  1  0  0  0  0
 34 33  1  0  0  0  0
 35 32  1  0  0  0  0
 35 34  1  0  0  0  0
 36 32  1  0  0  0  0
M  END
>  <minimizedAffinity>
-3.99732327

$$$$
