
 OpenBabel10152419213D

 38 41  0  0  0  0  0  0  0  0999 V2000
   10.4260  -13.9940   10.3920 C   0  0  0  0  0  2  0  0  0  0  0  0
    7.3950  -14.8300   12.5900 C   0  0  0  0  0  0  0  0  0  0  0  0
    8.0000  -15.0840   13.8210 C   0  0  0  0  0  3  0  0  0  0  0  0
    9.3870  -15.0650   13.9300 C   0  0  0  0  0  3  0  0  0  0  0  0
   10.1660  -14.7520   12.8180 C   0  0  0  0  0  3  0  0  0  0  0  0
    9.5810  -14.3810   11.5970 C   0  0  0  0  0  0  0  0  0  0  0  0
    8.1820  -14.4260   11.5010 C   0  0  0  0  0  3  0  0  0  0  0  0
    5.0530  -14.2670   11.8360 C   0  0  0  0  0  0  0  0  0  0  0  0
    3.8610  -14.4030   12.0990 O   0  0  0  0  0  0  0  0  0  0  0  0
    6.0030  -15.0010   12.5130 N   0  0  0  0  0  0  0  0  0  0  0  0
    5.6040  -15.7950   13.0020 H   0  0  0  0  0  0  0  0  0  0  0  0
    6.1960  -11.6410    8.6510 C   0  0  0  0  0  0  0  0  0  0  0  0
    5.0310  -11.4080    9.3880 C   0  0  0  0  0  3  0  0  0  0  0  0
    4.6490  -12.2760   10.4140 C   0  0  0  0  0  3  0  0  0  0  0  0
    5.4440  -13.3850   10.7090 C   0  0  0  0  0  0  0  0  0  0  0  0
    6.5730  -13.6620    9.9260 C   0  0  0  0  0  3  0  0  0  0  0  0
    6.9560  -12.7830    8.9090 C   0  0  0  0  0  3  0  0  0  0  0  0
    5.4640   -9.7280    7.4520 C   0  0  0  0  0  1  0  0  0  0  0  0
    6.4770  -10.6950    7.7040 O   0  0  0  0  0  0  0  0  0  0  0  0
   10.7850  -12.5870   10.4110 N   0  0  0  0  0  0  0  0  0  0  0  0
   11.2440  -12.1930    9.6060 H   0  0  0  0  0  0  0  0  0  0  0  0
   10.2590  -11.7660   11.3950 C   0  0  0  0  0  0  0  0  0  0  0  0
   10.6410  -12.0230   12.6590 N   0  0  0  0  0  0  0  0  0  0  0  0
    9.9240  -11.4650   13.6320 C   0  0  0  0  0  3  0  0  0  0  0  0
    8.8090  -10.7540   13.4610 N   0  0  0  0  0  0  0  0  0  0  0  0
    8.4430  -10.4550   12.1990 C   0  0  0  0  0  0  0  0  0  0  0  0
    7.2740   -9.7310   11.9290 C   0  0  0  0  0  0  0  0  0  0  0  0
    6.9240   -9.3130   10.6360 C   0  0  0  0  0  3  0  0  0  0  0  0
    7.7190   -9.6890    9.5740 C   0  0  0  0  0  0  0  0  0  0  0  0
    8.8260  -10.4970    9.7870 C   0  0  0  0  0  3  0  0  0  0  0  0
    9.1990  -10.8890   11.0980 C   0  0  0  0  0  0  0  0  0  0  0  0
    6.2770   -9.4450   12.9870 C   0  0  0  0  0  0  0  0  0  0  0  0
    5.0170   -9.9390   12.7840 N   0  0  0  0  0  0  0  0  0  0  0  0
    6.5380   -8.7120   13.9280 O   0  0  0  0  0  0  0  0  0  0  0  0
    4.2990   -9.7220   13.4610 H   0  0  0  0  0  0  0  0  0  0  0  0
    4.8000  -10.5670   12.0220 H   0  0  0  0  0  0  0  0  0  0  0  0
    7.4310   -9.3190    8.2980 O   0  0  0  0  0  0  0  0  0  0  0  0
    6.6680   -8.7150    8.3040 H   0  0  0  0  0  0  0  0  0  0  0  0
  1 20  1  0  0  0  0
  1  6  1  0  0  0  0
  2  3  1  0  0  0  0
  3  4  2  0  0  0  0
  5  4  1  0  0  0  0
  6  5  2  0  0  0  0
  7  6  1  0  0  0  0
  7  2  2  0  0  0  0
  8  9  2  0  0  0  0
  8 10  1  0  0  0  0
 10  2  1  0  0  0  0
 10 11  1  0  0  0  0
 12 17  2  0  0  0  0
 12 13  1  0  0  0  0
 13 14  2  0  0  0  0
 14 15  1  0  0  0  0
 15  8  1  0  0  0  0
 16 15  2  0  0  0  0
 17 16  1  0  0  0  0
 18 19  1  0  0  0  0
 19 12  1  0  0  0  0
 20 22  1  0  0  0  0
 21 20  1  0  0  0  0
 22 23  1  0  0  0  0
 23 24  2  0  0  0  0
 25 24  1  0  0  0  0
 26 25  2  0  0  0  0
 27 26  1  0  0  0  0
 27 32  1  0  0  0  0
 28 27  2  0  0  0  0
 29 30  2  0  0  0  0
 29 28  1  0  0  0  0
 30 31  1  0  0  0  0
 31 22  2  0  0  0  0
 31 26  1  0  0  0  0
 32 34  2  0  0  0  0
 33 32  1  0  0  0  0
 33 35  1  0  0  0  0
 36 33  1  0  0  0  0
 37 38  1  0  0  0  0
 37 29  1  0  0  0  0
M  END
>  <minimizedAffinity>
6.57267284

$$$$
