
 OpenBabel11232419453D

 38 44  0  0  1  0  0  0  0  0999 V2000
   60.7410  -41.8480   16.0690 C   0  0  0  0  0  0  0  0  0  0  0  0
   60.3070  -41.1410   17.2100 C   0  0  0  0  0  3  0  0  0  0  0  0
   59.1510  -41.4990   17.9140 C   0  0  0  0  0  3  0  0  0  0  0  0
   58.3960  -42.6050   17.5230 C   0  0  0  0  0  0  0  0  0  0  0  0
   58.8070  -43.3390   16.4120 C   0  0  0  0  0  3  0  0  0  0  0  0
   59.9530  -42.9640   15.7020 C   0  0  0  0  0  3  0  0  0  0  0  0
   57.1820  -42.9290   18.2410 C   0  0  0  0  0  0  0  0  0  0  0  0
   57.2130  -43.5590   19.4640 N   0  0  0  0  0  0  0  0  0  0  0  0
   55.9530  -43.6860   19.8170 C   0  0  0  0  0  0  0  0  0  0  0  0
   55.1190  -43.1870   18.8570 N   0  0  0  0  0  0  0  0  0  0  0  0
   55.8790  -42.6740   17.8300 C   0  0  0  0  0  0  0  0  0  0  0  0
   53.6780  -43.1720   19.0250 C   0  0  0  0  0  2  0  0  0  0  0  0
   53.1910  -44.1580   19.9610 O   0  0  0  0  0  0  0  0  0  0  0  0
   53.9990  -44.4550   21.0240 C   0  0  0  0  0  0  0  0  0  0  0  0
   53.4430  -45.0410   22.1460 C   0  0  0  0  0  3  0  0  0  0  0  0
   54.1580  -45.4020   23.2370 N   0  0  0  0  0  0  0  0  0  0  0  0
   55.4930  -45.1860   23.1950 C   0  0  0  0  0  3  0  0  0  0  0  0
   56.1470  -44.6270   22.1110 C   0  0  0  0  0  3  0  0  0  0  0  0
   55.3790  -44.2590   21.0100 C   0  0  0  0  0  0  0  0  0  0  0  0
   55.3350  -42.0810   16.6170 C   0  0  0  0  0  0  0  0  0  0  0  0
   54.6300  -40.8740   16.6840 C   0  0  0  0  0  3  0  0  0  0  0  0
   54.1160  -40.2920   15.5240 C   0  0  0  0  0  3  0  0  0  0  0  0
   54.2990  -40.9170   14.2910 C   0  0  0  0  0  3  0  0  0  0  0  0
   54.9940  -42.1230   14.2170 C   0  0  0  0  0  3  0  0  0  0  0  0
   55.5100  -42.7050   15.3770 C   0  0  0  0  0  3  0  0  0  0  0  0
   62.0360  -41.4390   15.2380 C   0  0  2  0  0  0  0  0  0  0  0  0
   63.3130  -42.3090   15.2900 C   0  0  0  0  0  2  0  0  0  0  0  0
   64.0360  -41.2130   16.1350 C   0  0  1  0  0  0  0  0  0  0  0  0
   62.8770  -40.2420   15.7450 C   0  0  0  0  0  2  0  0  0  0  0  0
   61.5990  -41.2410   13.8320 N   0  0  0  0  0  4  0  0  0  0  0  0
   61.1870  -42.1030   13.4510 H   0  0  0  0  0  0  0  0  0  0  0  0
   62.3770  -40.9720   13.2160 H   0  0  0  0  0  0  0  0  0  0  0  0
   60.8790  -40.5120   13.7580 H   0  0  0  0  0  0  0  0  0  0  0  0
   64.2400  -41.5730   17.6010 C   0  0  0  0  0  3  0  0  0  0  0  0
   63.4990  -40.9030   18.7270 C   0  0  0  0  0  2  0  0  0  0  0  0
   63.3050  -42.3710   18.4650 C   0  0  0  0  0  2  0  0  0  0  0  0
   65.2780  -40.8130   15.5090 O   0  0  0  0  0  0  0  0  0  0  0  0
   65.7470  -40.2770   16.1750 H   0  0  0  0  0  0  0  0  0  0  0  0
  1  2  1  0  0  0  0
  2  3  2  0  0  0  0
  4  3  1  0  0  0  0
  4  7  1  0  0  0  0
  5  4  2  0  0  0  0
  6  1  2  0  0  0  0
  6  5  1  0  0  0  0
  7  8  1  0  0  0  0
  8  9  2  0  0  0  0
  9 19  1  0  0  0  0
 10 12  1  0  0  0  0
 10  9  1  0  0  0  0
 11  7  2  0  0  0  0
 11 10  1  0  0  0  0
 12 13  1  0  0  0  0
 13 14  1  0  0  0  0
 14 15  1  0  0  0  0
 15 16  2  0  0  0  0
 17 16  1  0  0  0  0
 18 17  2  0  0  0  0
 19 14  2  0  0  0  0
 19 18  1  0  0  0  0
 20 21  1  0  0  0  0
 20 11  1  0  0  0  0
 22 21  2  0  0  0  0
 23 22  1  0  0  0  0
 24 23  2  0  0  0  0
 24 25  1  0  0  0  0
 25 20  2  0  0  0  0
 26 30  1  6  0  0  0
 26 27  1  0  0  0  0
 26 29  1  0  0  0  0
 26  1  1  0  0  0  0
 27 28  1  0  0  0  0
 28 37  1  6  0  0  0
 28 34  1  0  0  0  0
 29 28  1  0  0  0  0
 31 30  1  0  0  0  0
 32 30  1  0  0  0  0
 33 30  1  0  0  0  0
 34 36  1  0  0  0  0
 34 35  1  0  0  0  0
 36 35  1  0  0  0  0
 37 38  1  0  0  0  0
M  END
>  <minimizedAffinity>
-4.50640631

$$$$
