
 OpenBabel11232419453D

 38 44  0  0  1  0  0  0  0  0999 V2000
   57.4320  -42.6750   18.5350 C   0  0  0  0  0  0  0  0  0  0  0  0
   58.6240  -42.4210   19.2450 C   0  0  0  0  0  3  0  0  0  0  0  0
   59.8650  -42.3180   18.6050 C   0  0  0  0  0  3  0  0  0  0  0  0
   59.9610  -42.4350   17.2190 C   0  0  0  0  0  0  0  0  0  0  0  0
   58.8010  -42.6670   16.4830 C   0  0  0  0  0  3  0  0  0  0  0  0
   57.5660  -42.7860   17.1300 C   0  0  0  0  0  3  0  0  0  0  0  0
   61.2610  -42.3680   16.5860 C   0  0  0  0  0  0  0  0  0  0  0  0
   61.6170  -43.2330   15.5760 N   0  0  0  0  0  0  0  0  0  0  0  0
   62.8390  -42.8850   15.2400 C   0  0  0  0  0  0  0  0  0  0  0  0
   63.2870  -41.8510   16.0120 N   0  0  0  0  0  0  0  0  0  0  0  0
   62.2870  -41.4800   16.8830 C   0  0  0  0  0  0  0  0  0  0  0  0
   64.5950  -41.2540   15.8140 C   0  0  0  0  0  2  0  0  0  0  0  0
   65.5410  -42.1320   15.1640 O   0  0  0  0  0  0  0  0  0  0  0  0
   65.0410  -43.0050   14.2380 C   0  0  0  0  0  0  0  0  0  0  0  0
   65.8980  -43.5520   13.3000 C   0  0  0  0  0  3  0  0  0  0  0  0
   65.5110  -44.4480   12.3630 N   0  0  0  0  0  0  0  0  0  0  0  0
   64.2130  -44.8300   12.3760 C   0  0  0  0  0  3  0  0  0  0  0  0
   63.2840  -44.3580   13.2860 C   0  0  0  0  0  3  0  0  0  0  0  0
   63.7140  -43.4310   14.2310 C   0  0  0  0  0  0  0  0  0  0  0  0
   62.4100  -40.4260   17.8810 C   0  0  0  0  0  0  0  0  0  0  0  0
   63.3450  -40.5490   18.9150 C   0  0  0  0  0  3  0  0  0  0  0  0
   63.4780  -39.5390   19.8680 C   0  0  0  0  0  3  0  0  0  0  0  0
   62.6750  -38.4020   19.7960 C   0  0  0  0  0  3  0  0  0  0  0  0
   61.7370  -38.2750   18.7720 C   0  0  0  0  0  3  0  0  0  0  0  0
   61.6040  -39.2850   17.8170 C   0  0  0  0  0  3  0  0  0  0  0  0
   56.0150  -42.8240   19.2460 C   0  0  2  0  0  0  0  0  0  0  0  0
   54.7100  -42.7870   18.4180 C   0  0  0  0  0  2  0  0  0  0  0  0
   54.3720  -41.3760   18.9960 C   0  0  1  0  0  0  0  0  0  0  0  0
   55.4840  -41.6210   20.0650 C   0  0  0  0  0  2  0  0  0  0  0  0
   56.0750  -44.0590   20.0680 N   0  0  0  0  0  4  0  0  0  0  0  0
   56.2680  -44.8820   19.4810 H   0  0  0  0  0  0  0  0  0  0  0  0
   55.1940  -44.2370   20.5690 H   0  0  0  0  0  0  0  0  0  0  0  0
   56.8250  -44.0130   20.7670 H   0  0  0  0  0  0  0  0  0  0  0  0
   54.5330  -40.2290   18.0090 C   0  0  0  0  0  3  0  0  0  0  0  0
   54.2500  -38.7920   18.3560 C   0  0  0  0  0  2  0  0  0  0  0  0
   55.6440  -39.2170   17.9850 C   0  0  0  0  0  2  0  0  0  0  0  0
   53.0610  -41.3700   19.6090 O   0  0  0  0  0  0  0  0  0  0  0  0
   52.8530  -40.4310   19.7750 H   0  0  0  0  0  0  0  0  0  0  0  0
  1  2  1  0  0  0  0
  1 26  1  0  0  0  0
  3  2  2  0  0  0  0
  4  3  1  0  0  0  0
  5  6  1  0  0  0  0
  5  4  2  0  0  0  0
  6  1  2  0  0  0  0
  7 11  2  0  0  0  0
  7  4  1  0  0  0  0
  8  7  1  0  0  0  0
  9  8  2  0  0  0  0
  9 10  1  0  0  0  0
 10 11  1  0  0  0  0
 11 20  1  0  0  0  0
 12 10  1  0  0  0  0
 13 12  1  0  0  0  0
 14 13  1  0  0  0  0
 15 14  2  0  0  0  0
 16 17  2  0  0  0  0
 16 15  1  0  0  0  0
 17 18  1  0  0  0  0
 18 19  2  0  0  0  0
 19 14  1  0  0  0  0
 19  9  1  0  0  0  0
 20 21  1  0  0  0  0
 21 22  2  0  0  0  0
 23 22  1  0  0  0  0
 24 23  2  0  0  0  0
 25 20  2  0  0  0  0
 25 24  1  0  0  0  0
 26 29  1  0  0  0  0
 26 30  1  1  0  0  0
 27 28  1  0  0  0  0
 27 26  1  0  0  0  0
 28 37  1  1  0  0  0
 28 29  1  0  0  0  0
 30 32  1  0  0  0  0
 30 33  1  0  0  0  0
 31 30  1  0  0  0  0
 34 35  1  0  0  0  0
 34 28  1  0  0  0  0
 36 34  1  0  0  0  0
 36 35  1  0  0  0  0
 37 38  1  0  0  0  0
M  END
>  <minimizedAffinity>
-4.71959734

$$$$
