
 OpenBabel11232419453D

 38 44  0  0  1  0  0  0  0  0999 V2000
   62.0330  -41.0380   18.7740 C   0  0  0  0  0  0  0  0  0  0  0  0
   61.4150  -39.8610   19.2470 C   0  0  0  0  0  3  0  0  0  0  0  0
   60.0300  -39.6670   19.1780 C   0  0  0  0  0  3  0  0  0  0  0  0
   59.1990  -40.6600   18.6600 C   0  0  0  0  0  0  0  0  0  0  0  0
   59.7730  -41.8440   18.2010 C   0  0  0  0  0  3  0  0  0  0  0  0
   61.1600  -42.0240   18.2560 C   0  0  0  0  0  3  0  0  0  0  0  0
   57.7750  -40.4180   18.5590 C   0  0  0  0  0  0  0  0  0  0  0  0
   57.2760  -39.1830   18.2140 N   0  0  0  0  0  0  0  0  0  0  0  0
   55.9700  -39.3290   18.2130 C   0  0  0  0  0  0  0  0  0  0  0  0
   55.6150  -40.5990   18.5690 N   0  0  0  0  0  0  0  0  0  0  0  0
   56.7570  -41.3360   18.7840 C   0  0  0  0  0  0  0  0  0  0  0  0
   54.2290  -41.0280   18.6050 C   0  0  0  0  0  2  0  0  0  0  0  0
   53.2890  -39.9430   18.7720 O   0  0  0  0  0  0  0  0  0  0  0  0
   53.6190  -38.7450   18.2010 C   0  0  0  0  0  0  0  0  0  0  0  0
   52.6190  -37.8210   17.9550 C   0  0  0  0  0  3  0  0  0  0  0  0
   52.8430  -36.5970   17.4240 N   0  0  0  0  0  0  0  0  0  0  0  0
   54.1270  -36.2730   17.1450 C   0  0  0  0  0  3  0  0  0  0  0  0
   55.1980  -37.1180   17.3750 C   0  0  0  0  0  3  0  0  0  0  0  0
   54.9310  -38.3730   17.9140 C   0  0  0  0  0  0  0  0  0  0  0  0
   56.7730  -42.7300   19.2060 C   0  0  0  0  0  0  0  0  0  0  0  0
   56.7720  -43.0480   20.5690 C   0  0  0  0  0  3  0  0  0  0  0  0
   56.7750  -44.3820   20.9810 C   0  0  0  0  0  3  0  0  0  0  0  0
   56.7820  -45.4040   20.0340 C   0  0  0  0  0  3  0  0  0  0  0  0
   56.7890  -45.0950   18.6750 C   0  0  0  0  0  3  0  0  0  0  0  0
   56.7860  -43.7620   18.2600 C   0  0  0  0  0  3  0  0  0  0  0  0
   63.6080  -41.2660   18.8170 C   0  0  2  0  0  0  0  0  0  0  0  0
   64.4430  -41.2500   17.5160 C   0  0  0  0  0  2  0  0  0  0  0  0
   64.6490  -42.7950   17.6180 C   0  0  1  0  0  0  0  0  0  0  0  0
   64.1270  -42.7000   19.0870 C   0  0  0  0  0  2  0  0  0  0  0  0
   64.1560  -40.2950   19.7980 N   0  0  0  0  0  4  0  0  0  0  0  0
   63.9420  -39.3280   19.5160 H   0  0  0  0  0  0  0  0  0  0  0  0
   65.1770  -40.3700   19.8930 H   0  0  0  0  0  0  0  0  0  0  0  0
   63.7470  -40.4270   20.7310 H   0  0  0  0  0  0  0  0  0  0  0  0
   63.8590  -43.6100   16.6030 C   0  0  0  0  0  3  0  0  0  0  0  0
   63.9580  -43.3980   15.1160 C   0  0  0  0  0  2  0  0  0  0  0  0
   64.3940  -44.7040   15.7220 C   0  0  0  0  0  2  0  0  0  0  0  0
   66.0560  -43.1310   17.5910 O   0  0  0  0  0  0  0  0  0  0  0  0
   66.0920  -44.0990   17.4730 H   0  0  0  0  0  0  0  0  0  0  0  0
  1 26  1  0  0  0  0
  1  2  1  0  0  0  0
  3  2  2  0  0  0  0
  4  3  1  0  0  0  0
  5  6  1  0  0  0  0
  5  4  2  0  0  0  0
  6  1  2  0  0  0  0
  7  4  1  0  0  0  0
  7 11  2  0  0  0  0
  8  7  1  0  0  0  0
  9  8  2  0  0  0  0
  9 10  1  0  0  0  0
 10 12  1  0  0  0  0
 10 11  1  0  0  0  0
 11 20  1  0  0  0  0
 12 13  1  0  0  0  0
 14 13  1  0  0  0  0
 15 14  1  0  0  0  0
 16 15  2  0  0  0  0
 17 18  2  0  0  0  0
 17 16  1  0  0  0  0
 18 19  1  0  0  0  0
 19 14  2  0  0  0  0
 19  9  1  0  0  0  0
 20 21  1  0  0  0  0
 21 22  2  0  0  0  0
 23 22  1  0  0  0  0
 24 23  2  0  0  0  0
 25 24  1  0  0  0  0
 25 20  2  0  0  0  0
 26 29  1  0  0  0  0
 26 30  1  1  0  0  0
 27 28  1  0  0  0  0
 27 26  1  0  0  0  0
 28 37  1  6  0  0  0
 28 29  1  0  0  0  0
 30 32  1  0  0  0  0
 30 33  1  0  0  0  0
 31 30  1  0  0  0  0
 34 28  1  0  0  0  0
 35 36  1  0  0  0  0
 35 34  1  0  0  0  0
 36 34  1  0  0  0  0
 38 37  1  0  0  0  0
M  END
>  <minimizedAffinity>
-4.67446184

$$$$
