
 OpenBabel11232419453D

 38 44  0  0  1  0  0  0  0  0999 V2000
   61.2030  -40.5190   17.5990 C   0  0  0  0  0  0  0  0  0  0  0  0
   60.8160  -41.8700   17.4710 C   0  0  0  0  0  3  0  0  0  0  0  0
   59.5360  -42.3150   17.8210 C   0  0  0  0  0  3  0  0  0  0  0  0
   58.5740  -41.4170   18.2840 C   0  0  0  0  0  0  0  0  0  0  0  0
   58.9150  -40.0710   18.4040 C   0  0  0  0  0  3  0  0  0  0  0  0
   60.2030  -39.6370   18.0700 C   0  0  0  0  0  3  0  0  0  0  0  0
   57.2710  -41.9080   18.6800 C   0  0  0  0  0  0  0  0  0  0  0  0
   56.8150  -41.7830   19.9720 N   0  0  0  0  0  0  0  0  0  0  0  0
   55.6160  -42.3220   19.9670 C   0  0  0  0  0  0  0  0  0  0  0  0
   55.3000  -42.8080   18.7300 N   0  0  0  0  0  0  0  0  0  0  0  0
   56.3400  -42.5430   17.8680 C   0  0  0  0  0  0  0  0  0  0  0  0
   54.0130  -43.4170   18.4510 C   0  0  0  0  0  2  0  0  0  0  0  0
   53.3510  -43.9420   19.6240 O   0  0  0  0  0  0  0  0  0  0  0  0
   53.5490  -43.2700   20.7980 C   0  0  0  0  0  0  0  0  0  0  0  0
   52.6450  -43.4460   21.8310 C   0  0  0  0  0  3  0  0  0  0  0  0
   52.7670  -42.8540   23.0420 N   0  0  0  0  0  0  0  0  0  0  0  0
   53.8500  -42.0670   23.2360 C   0  0  0  0  0  3  0  0  0  0  0  0
   54.8200  -41.8460   22.2740 C   0  0  0  0  0  3  0  0  0  0  0  0
   54.6600  -42.4640   21.0370 C   0  0  0  0  0  0  0  0  0  0  0  0
   56.3720  -42.9390   16.4670 C   0  0  0  0  0  0  0  0  0  0  0  0
   55.8920  -42.0670   15.4830 C   0  0  0  0  0  3  0  0  0  0  0  0
   55.9300  -42.4340   14.1370 C   0  0  0  0  0  3  0  0  0  0  0  0
   56.4450  -43.6760   13.7670 C   0  0  0  0  0  3  0  0  0  0  0  0
   56.9190  -44.5520   14.7420 C   0  0  0  0  0  3  0  0  0  0  0  0
   56.8820  -44.1860   16.0890 C   0  0  0  0  0  3  0  0  0  0  0  0
   62.6620  -39.9990   17.2340 C   0  0  2  0  0  0  0  0  0  0  0  0
   63.1580  -40.0020   15.7690 C   0  0  0  0  0  2  0  0  0  0  0  0
   64.1270  -41.1840   16.0900 C   0  0  1  0  0  0  0  0  0  0  0  0
   63.8690  -40.8980   17.6030 C   0  0  0  0  0  2  0  0  0  0  0  0
   62.7950  -38.6420   17.8240 N   0  0  0  0  0  4  0  0  0  0  0  0
   62.0820  -38.0050   17.4430 H   0  0  0  0  0  0  0  0  0  0  0  0
   63.7150  -38.2230   17.6370 H   0  0  0  0  0  0  0  0  0  0  0  0
   62.6620  -38.6580   18.8420 H   0  0  0  0  0  0  0  0  0  0  0  0
   63.7060  -42.5260   15.5070 C   0  0  0  0  0  3  0  0  0  0  0  0
   63.2640  -42.7070   14.0790 C   0  0  0  0  0  2  0  0  0  0  0  0
   64.5090  -43.3910   14.5760 C   0  0  0  0  0  2  0  0  0  0  0  0
   65.4870  -40.8500   15.7260 O   0  0  0  0  0  0  0  0  0  0  0  0
   65.9860  -41.6870   15.7820 H   0  0  0  0  0  0  0  0  0  0  0  0
  1  6  1  0  0  0  0
  2  1  2  0  0  0  0
  2  3  1  0  0  0  0
  3  4  2  0  0  0  0
  4  5  1  0  0  0  0
  4  7  1  0  0  0  0
  6  5  2  0  0  0  0
  7  8  1  0  0  0  0
  9  8  2  0  0  0  0
  9 19  1  0  0  0  0
 10  9  1  0  0  0  0
 11  7  2  0  0  0  0
 11 10  1  0  0  0  0
 12 10  1  0  0  0  0
 12 13  1  0  0  0  0
 13 14  1  0  0  0  0
 14 19  2  0  0  0  0
 14 15  1  0  0  0  0
 15 16  2  0  0  0  0
 16 17  1  0  0  0  0
 18 17  2  0  0  0  0
 19 18  1  0  0  0  0
 20 11  1  0  0  0  0
 21 20  2  0  0  0  0
 22 21  1  0  0  0  0
 23 22  2  0  0  0  0
 23 24  1  0  0  0  0
 24 25  2  0  0  0  0
 25 20  1  0  0  0  0
 26  1  1  0  0  0  0
 26 29  1  0  0  0  0
 26 30  1  1  0  0  0
 27 28  1  0  0  0  0
 27 26  1  0  0  0  0
 28 37  1  6  0  0  0
 28 29  1  0  0  0  0
 30 33  1  0  0  0  0
 31 30  1  0  0  0  0
 32 30  1  0  0  0  0
 34 28  1  0  0  0  0
 35 36  1  0  0  0  0
 35 34  1  0  0  0  0
 36 34  1  0  0  0  0
 37 38  1  0  0  0  0
M  END
>  <minimizedAffinity>
-5.11070395

$$$$

 OpenBabel11232419453D

 38 44  0  0  1  0  0  0  0  0999 V2000
   56.4910  -43.7870   17.2440 C   0  0  0  0  0  0  0  0  0  0  0  0
   57.5520  -44.1650   18.0930 C   0  0  0  0  0  3  0  0  0  0  0  0
   58.8590  -43.7000   17.9050 C   0  0  0  0  0  3  0  0  0  0  0  0
   59.1530  -42.8070   16.8740 C   0  0  0  0  0  0  0  0  0  0  0  0
   58.1250  -42.3960   16.0280 C   0  0  0  0  0  3  0  0  0  0  0  0
   56.8250  -42.8800   16.2110 C   0  0  0  0  0  3  0  0  0  0  0  0
   60.5200  -42.3740   16.6730 C   0  0  0  0  0  0  0  0  0  0  0  0
   61.3350  -42.9680   15.7370 N   0  0  0  0  0  0  0  0  0  0  0  0
   62.4800  -42.3290   15.8230 C   0  0  0  0  0  0  0  0  0  0  0  0
   62.4370  -41.3690   16.7940 N   0  0  0  0  0  0  0  0  0  0  0  0
   61.1800  -41.3580   17.3540 C   0  0  0  0  0  0  0  0  0  0  0  0
   63.5650  -40.4950   17.0610 C   0  0  0  0  0  2  0  0  0  0  0  0
   64.8350  -41.0420   16.6420 O   0  0  0  0  0  0  0  0  0  0  0  0
   64.8320  -41.8320   15.5260 C   0  0  0  0  0  0  0  0  0  0  0  0
   66.0170  -42.0300   14.8410 C   0  0  0  0  0  3  0  0  0  0  0  0
   66.1280  -42.8170   13.7460 N   0  0  0  0  0  0  0  0  0  0  0  0
   65.0080  -43.4500   13.3280 C   0  0  0  0  0  3  0  0  0  0  0  0
   63.7810  -43.3350   13.9570 C   0  0  0  0  0  3  0  0  0  0  0  0
   63.7010  -42.5100   15.0760 C   0  0  0  0  0  0  0  0  0  0  0  0
   60.7680  -40.4830   18.4430 C   0  0  0  0  0  0  0  0  0  0  0  0
   60.6710  -39.1030   18.2320 C   0  0  0  0  0  3  0  0  0  0  0  0
   60.2660  -38.2590   19.2670 C   0  0  0  0  0  3  0  0  0  0  0  0
   59.9590  -38.7880   20.5190 C   0  0  0  0  0  3  0  0  0  0  0  0
   60.0600  -40.1610   20.7390 C   0  0  0  0  0  3  0  0  0  0  0  0
   60.4650  -41.0070   19.7040 C   0  0  0  0  0  3  0  0  0  0  0  0
   55.0040  -44.3270   17.4240 C   0  0  2  0  0  0  0  0  0  0  0  0
   53.9190  -43.4450   18.0840 C   0  0  0  0  0  2  0  0  0  0  0  0
   53.9440  -44.3510   19.3570 C   0  0  1  0  0  0  0  0  0  0  0  0
   54.7460  -45.3950   18.5160 C   0  0  0  0  0  2  0  0  0  0  0  0
   54.5520  -44.7940   16.0890 N   0  0  0  0  0  4  0  0  0  0  0  0
   54.5730  -44.0250   15.4050 H   0  0  0  0  0  0  0  0  0  0  0  0
   53.5930  -45.1630   16.1080 H   0  0  0  0  0  0  0  0  0  0  0  0
   55.1620  -45.5340   15.7200 H   0  0  0  0  0  0  0  0  0  0  0  0
   54.6020  -43.7180   20.5750 C   0  0  0  0  0  3  0  0  0  0  0  0
   54.8750  -42.2420   20.6940 C   0  0  0  0  0  2  0  0  0  0  0  0
   53.9190  -42.9120   21.6440 C   0  0  0  0  0  2  0  0  0  0  0  0
   52.6190  -44.8450   19.6640 O   0  0  0  0  0  0  0  0  0  0  0  0
   52.6860  -45.2390   20.5550 H   0  0  0  0  0  0  0  0  0  0  0  0
  1 26  1  0  0  0  0
  1  2  1  0  0  0  0
  3  2  2  0  0  0  0
  4  3  1  0  0  0  0
  5  6  1  0  0  0  0
  5  4  2  0  0  0  0
  6  1  2  0  0  0  0
  7  4  1  0  0  0  0
  7 11  2  0  0  0  0
  8  9  2  0  0  0  0
  8  7  1  0  0  0  0
  9 10  1  0  0  0  0
 10 12  1  0  0  0  0
 10 11  1  0  0  0  0
 11 20  1  0  0  0  0
 13 12  1  0  0  0  0
 14 13  1  0  0  0  0
 15 14  2  0  0  0  0
 16 15  1  0  0  0  0
 17 16  2  0  0  0  0
 17 18  1  0  0  0  0
 18 19  2  0  0  0  0
 19 14  1  0  0  0  0
 19  9  1  0  0  0  0
 20 25  1  0  0  0  0
 21 20  2  0  0  0  0
 21 22  1  0  0  0  0
 22 23  2  0  0  0  0
 23 24  1  0  0  0  0
 25 24  2  0  0  0  0
 26 30  1  6  0  0  0
 26 27  1  0  0  0  0
 26 29  1  0  0  0  0
 27 28  1  0  0  0  0
 28 37  1  1  0  0  0
 28 34  1  0  0  0  0
 29 28  1  0  0  0  0
 30 32  1  0  0  0  0
 31 30  1  0  0  0  0
 33 30  1  0  0  0  0
 34 35  1  0  0  0  0
 34 36  1  0  0  0  0
 35 36  1  0  0  0  0
 37 38  1  0  0  0  0
M  END
>  <minimizedAffinity>
-4.89858437

$$$$

 OpenBabel11232419453D

 38 44  0  0  1  0  0  0  0  0999 V2000
   57.4320  -42.6750   18.5350 C   0  0  0  0  0  0  0  0  0  0  0  0
   58.6240  -42.4210   19.2450 C   0  0  0  0  0  3  0  0  0  0  0  0
   59.8650  -42.3180   18.6050 C   0  0  0  0  0  3  0  0  0  0  0  0
   59.9610  -42.4350   17.2190 C   0  0  0  0  0  0  0  0  0  0  0  0
   58.8010  -42.6670   16.4830 C   0  0  0  0  0  3  0  0  0  0  0  0
   57.5660  -42.7860   17.1300 C   0  0  0  0  0  3  0  0  0  0  0  0
   61.2610  -42.3680   16.5860 C   0  0  0  0  0  0  0  0  0  0  0  0
   61.6170  -43.2330   15.5760 N   0  0  0  0  0  0  0  0  0  0  0  0
   62.8390  -42.8850   15.2400 C   0  0  0  0  0  0  0  0  0  0  0  0
   63.2870  -41.8510   16.0120 N   0  0  0  0  0  0  0  0  0  0  0  0
   62.2870  -41.4800   16.8830 C   0  0  0  0  0  0  0  0  0  0  0  0
   64.5950  -41.2540   15.8140 C   0  0  0  0  0  2  0  0  0  0  0  0
   65.5410  -42.1320   15.1640 O   0  0  0  0  0  0  0  0  0  0  0  0
   65.0410  -43.0050   14.2380 C   0  0  0  0  0  0  0  0  0  0  0  0
   65.8980  -43.5520   13.3000 C   0  0  0  0  0  3  0  0  0  0  0  0
   65.5110  -44.4480   12.3630 N   0  0  0  0  0  0  0  0  0  0  0  0
   64.2130  -44.8300   12.3760 C   0  0  0  0  0  3  0  0  0  0  0  0
   63.2840  -44.3580   13.2860 C   0  0  0  0  0  3  0  0  0  0  0  0
   63.7140  -43.4310   14.2310 C   0  0  0  0  0  0  0  0  0  0  0  0
   62.4100  -40.4260   17.8810 C   0  0  0  0  0  0  0  0  0  0  0  0
   63.3450  -40.5490   18.9150 C   0  0  0  0  0  3  0  0  0  0  0  0
   63.4780  -39.5390   19.8680 C   0  0  0  0  0  3  0  0  0  0  0  0
   62.6750  -38.4020   19.7960 C   0  0  0  0  0  3  0  0  0  0  0  0
   61.7370  -38.2750   18.7720 C   0  0  0  0  0  3  0  0  0  0  0  0
   61.6040  -39.2850   17.8170 C   0  0  0  0  0  3  0  0  0  0  0  0
   56.0150  -42.8240   19.2460 C   0  0  2  0  0  0  0  0  0  0  0  0
   54.7100  -42.7870   18.4180 C   0  0  0  0  0  2  0  0  0  0  0  0
   54.3720  -41.3760   18.9960 C   0  0  1  0  0  0  0  0  0  0  0  0
   55.4840  -41.6210   20.0650 C   0  0  0  0  0  2  0  0  0  0  0  0
   56.0750  -44.0590   20.0680 N   0  0  0  0  0  4  0  0  0  0  0  0
   56.2680  -44.8820   19.4810 H   0  0  0  0  0  0  0  0  0  0  0  0
   55.1940  -44.2370   20.5690 H   0  0  0  0  0  0  0  0  0  0  0  0
   56.8250  -44.0130   20.7670 H   0  0  0  0  0  0  0  0  0  0  0  0
   54.5330  -40.2290   18.0090 C   0  0  0  0  0  3  0  0  0  0  0  0
   54.2500  -38.7920   18.3560 C   0  0  0  0  0  2  0  0  0  0  0  0
   55.6440  -39.2170   17.9850 C   0  0  0  0  0  2  0  0  0  0  0  0
   53.0610  -41.3700   19.6090 O   0  0  0  0  0  0  0  0  0  0  0  0
   52.8530  -40.4310   19.7750 H   0  0  0  0  0  0  0  0  0  0  0  0
  1  2  1  0  0  0  0
  1 26  1  0  0  0  0
  3  2  2  0  0  0  0
  4  3  1  0  0  0  0
  5  6  1  0  0  0  0
  5  4  2  0  0  0  0
  6  1  2  0  0  0  0
  7 11  2  0  0  0  0
  7  4  1  0  0  0  0
  8  7  1  0  0  0  0
  9  8  2  0  0  0  0
  9 10  1  0  0  0  0
 10 11  1  0  0  0  0
 11 20  1  0  0  0  0
 12 10  1  0  0  0  0
 13 12  1  0  0  0  0
 14 13  1  0  0  0  0
 15 14  2  0  0  0  0
 16 17  2  0  0  0  0
 16 15  1  0  0  0  0
 17 18  1  0  0  0  0
 18 19  2  0  0  0  0
 19 14  1  0  0  0  0
 19  9  1  0  0  0  0
 20 21  1  0  0  0  0
 21 22  2  0  0  0  0
 23 22  1  0  0  0  0
 24 23  2  0  0  0  0
 25 20  2  0  0  0  0
 25 24  1  0  0  0  0
 26 29  1  0  0  0  0
 26 30  1  1  0  0  0
 27 28  1  0  0  0  0
 27 26  1  0  0  0  0
 28 37  1  1  0  0  0
 28 29  1  0  0  0  0
 30 32  1  0  0  0  0
 30 33  1  0  0  0  0
 31 30  1  0  0  0  0
 34 35  1  0  0  0  0
 34 28  1  0  0  0  0
 36 34  1  0  0  0  0
 36 35  1  0  0  0  0
 37 38  1  0  0  0  0
M  END
>  <minimizedAffinity>
-4.71959734

$$$$

 OpenBabel11232419453D

 38 44  0  0  1  0  0  0  0  0999 V2000
   62.0330  -41.0380   18.7740 C   0  0  0  0  0  0  0  0  0  0  0  0
   61.4150  -39.8610   19.2470 C   0  0  0  0  0  3  0  0  0  0  0  0
   60.0300  -39.6670   19.1780 C   0  0  0  0  0  3  0  0  0  0  0  0
   59.1990  -40.6600   18.6600 C   0  0  0  0  0  0  0  0  0  0  0  0
   59.7730  -41.8440   18.2010 C   0  0  0  0  0  3  0  0  0  0  0  0
   61.1600  -42.0240   18.2560 C   0  0  0  0  0  3  0  0  0  0  0  0
   57.7750  -40.4180   18.5590 C   0  0  0  0  0  0  0  0  0  0  0  0
   57.2760  -39.1830   18.2140 N   0  0  0  0  0  0  0  0  0  0  0  0
   55.9700  -39.3290   18.2130 C   0  0  0  0  0  0  0  0  0  0  0  0
   55.6150  -40.5990   18.5690 N   0  0  0  0  0  0  0  0  0  0  0  0
   56.7570  -41.3360   18.7840 C   0  0  0  0  0  0  0  0  0  0  0  0
   54.2290  -41.0280   18.6050 C   0  0  0  0  0  2  0  0  0  0  0  0
   53.2890  -39.9430   18.7720 O   0  0  0  0  0  0  0  0  0  0  0  0
   53.6190  -38.7450   18.2010 C   0  0  0  0  0  0  0  0  0  0  0  0
   52.6190  -37.8210   17.9550 C   0  0  0  0  0  3  0  0  0  0  0  0
   52.8430  -36.5970   17.4240 N   0  0  0  0  0  0  0  0  0  0  0  0
   54.1270  -36.2730   17.1450 C   0  0  0  0  0  3  0  0  0  0  0  0
   55.1980  -37.1180   17.3750 C   0  0  0  0  0  3  0  0  0  0  0  0
   54.9310  -38.3730   17.9140 C   0  0  0  0  0  0  0  0  0  0  0  0
   56.7730  -42.7300   19.2060 C   0  0  0  0  0  0  0  0  0  0  0  0
   56.7720  -43.0480   20.5690 C   0  0  0  0  0  3  0  0  0  0  0  0
   56.7750  -44.3820   20.9810 C   0  0  0  0  0  3  0  0  0  0  0  0
   56.7820  -45.4040   20.0340 C   0  0  0  0  0  3  0  0  0  0  0  0
   56.7890  -45.0950   18.6750 C   0  0  0  0  0  3  0  0  0  0  0  0
   56.7860  -43.7620   18.2600 C   0  0  0  0  0  3  0  0  0  0  0  0
   63.6080  -41.2660   18.8170 C   0  0  2  0  0  0  0  0  0  0  0  0
   64.4430  -41.2500   17.5160 C   0  0  0  0  0  2  0  0  0  0  0  0
   64.6490  -42.7950   17.6180 C   0  0  1  0  0  0  0  0  0  0  0  0
   64.1270  -42.7000   19.0870 C   0  0  0  0  0  2  0  0  0  0  0  0
   64.1560  -40.2950   19.7980 N   0  0  0  0  0  4  0  0  0  0  0  0
   63.9420  -39.3280   19.5160 H   0  0  0  0  0  0  0  0  0  0  0  0
   65.1770  -40.3700   19.8930 H   0  0  0  0  0  0  0  0  0  0  0  0
   63.7470  -40.4270   20.7310 H   0  0  0  0  0  0  0  0  0  0  0  0
   63.8590  -43.6100   16.6030 C   0  0  0  0  0  3  0  0  0  0  0  0
   63.9580  -43.3980   15.1160 C   0  0  0  0  0  2  0  0  0  0  0  0
   64.3940  -44.7040   15.7220 C   0  0  0  0  0  2  0  0  0  0  0  0
   66.0560  -43.1310   17.5910 O   0  0  0  0  0  0  0  0  0  0  0  0
   66.0920  -44.0990   17.4730 H   0  0  0  0  0  0  0  0  0  0  0  0
  1 26  1  0  0  0  0
  1  2  1  0  0  0  0
  3  2  2  0  0  0  0
  4  3  1  0  0  0  0
  5  6  1  0  0  0  0
  5  4  2  0  0  0  0
  6  1  2  0  0  0  0
  7  4  1  0  0  0  0
  7 11  2  0  0  0  0
  8  7  1  0  0  0  0
  9  8  2  0  0  0  0
  9 10  1  0  0  0  0
 10 12  1  0  0  0  0
 10 11  1  0  0  0  0
 11 20  1  0  0  0  0
 12 13  1  0  0  0  0
 14 13  1  0  0  0  0
 15 14  1  0  0  0  0
 16 15  2  0  0  0  0
 17 18  2  0  0  0  0
 17 16  1  0  0  0  0
 18 19  1  0  0  0  0
 19 14  2  0  0  0  0
 19  9  1  0  0  0  0
 20 21  1  0  0  0  0
 21 22  2  0  0  0  0
 23 22  1  0  0  0  0
 24 23  2  0  0  0  0
 25 24  1  0  0  0  0
 25 20  2  0  0  0  0
 26 29  1  0  0  0  0
 26 30  1  1  0  0  0
 27 28  1  0  0  0  0
 27 26  1  0  0  0  0
 28 37  1  6  0  0  0
 28 29  1  0  0  0  0
 30 32  1  0  0  0  0
 30 33  1  0  0  0  0
 31 30  1  0  0  0  0
 34 28  1  0  0  0  0
 35 36  1  0  0  0  0
 35 34  1  0  0  0  0
 36 34  1  0  0  0  0
 38 37  1  0  0  0  0
M  END
>  <minimizedAffinity>
-4.67446184

$$$$

 OpenBabel11232419453D

 38 44  0  0  1  0  0  0  0  0999 V2000
   62.1420  -41.6060   17.7650 C   0  0  0  0  0  0  0  0  0  0  0  0
   61.2270  -40.6290   18.2100 C   0  0  0  0  0  3  0  0  0  0  0  0
   59.8650  -40.9060   18.3820 C   0  0  0  0  0  3  0  0  0  0  0  0
   59.3660  -42.1860   18.1460 C   0  0  0  0  0  0  0  0  0  0  0  0
   60.2450  -43.1820   17.7230 C   0  0  0  0  0  3  0  0  0  0  0  0
   61.6010  -42.8940   17.5360 C   0  0  0  0  0  3  0  0  0  0  0  0
   57.9470  -42.4370   18.2890 C   0  0  0  0  0  0  0  0  0  0  0  0
   57.2890  -42.2010   19.4740 N   0  0  0  0  0  0  0  0  0  0  0  0
   56.0370  -42.5260   19.2420 C   0  0  0  0  0  0  0  0  0  0  0  0
   55.8750  -42.9840   17.9650 N   0  0  0  0  0  0  0  0  0  0  0  0
   57.0860  -42.9240   17.3140 C   0  0  0  0  0  0  0  0  0  0  0  0
   54.5760  -43.3710   17.4470 C   0  0  0  0  0  2  0  0  0  0  0  0
   53.6280  -43.7430   18.4720 O   0  0  0  0  0  0  0  0  0  0  0  0
   53.7190  -43.0850   19.6670 C   0  0  0  0  0  0  0  0  0  0  0  0
   52.6240  -43.0760   20.5120 C   0  0  0  0  0  3  0  0  0  0  0  0
   52.6200  -42.4810   21.7280 N   0  0  0  0  0  0  0  0  0  0  0  0
   53.7680  -41.8870   22.1260 C   0  0  0  0  0  3  0  0  0  0  0  0
   54.9220  -41.8610   21.3630 C   0  0  0  0  0  3  0  0  0  0  0  0
   54.8890  -42.4740   20.1140 C   0  0  0  0  0  0  0  0  0  0  0  0
   57.3070  -43.3570   15.9410 C   0  0  0  0  0  0  0  0  0  0  0  0
   57.5460  -44.7080   15.6630 C   0  0  0  0  0  3  0  0  0  0  0  0
   57.7460  -45.1320   14.3490 C   0  0  0  0  0  3  0  0  0  0  0  0
   57.7140  -44.2080   13.3050 C   0  0  0  0  0  3  0  0  0  0  0  0
   57.4830  -42.8600   13.5750 C   0  0  0  0  0  3  0  0  0  0  0  0
   57.2810  -42.4340   14.8890 C   0  0  0  0  0  3  0  0  0  0  0  0
   63.6880  -41.3040   17.5360 C   0  0  2  0  0  0  0  0  0  0  0  0
   64.1450  -40.3320   16.4240 C   0  0  0  0  0  2  0  0  0  0  0  0
   64.6960  -41.5310   15.5890 C   0  0  1  0  0  0  0  0  0  0  0  0
   64.5530  -42.4060   16.8750 C   0  0  0  0  0  2  0  0  0  0  0  0
   64.2440  -40.8910   18.8500 N   0  0  0  0  0  4  0  0  0  0  0  0
   63.7640  -40.0520   19.2030 H   0  0  0  0  0  0  0  0  0  0  0  0
   65.2480  -40.6730   18.7980 H   0  0  0  0  0  0  0  0  0  0  0  0
   64.1210  -41.6220   19.5600 H   0  0  0  0  0  0  0  0  0  0  0  0
   63.8700  -41.8810   14.3590 C   0  0  0  0  0  3  0  0  0  0  0  0
   64.2000  -41.3920   12.9740 C   0  0  0  0  0  2  0  0  0  0  0  0
   64.2390  -42.8640   13.2830 C   0  0  0  0  0  2  0  0  0  0  0  0
   66.0900  -41.3300   15.2550 O   0  0  0  0  0  0  0  0  0  0  0  0
   66.3020  -42.0140   14.5920 H   0  0  0  0  0  0  0  0  0  0  0  0
  1  2  1  0  0  0  0
  2  3  2  0  0  0  0
  4  7  1  0  0  0  0
  4  3  1  0  0  0  0
  5  4  2  0  0  0  0
  6  5  1  0  0  0  0
  6  1  2  0  0  0  0
  7  8  1  0  0  0  0
  9  8  2  0  0  0  0
  9 19  1  0  0  0  0
 10  9  1  0  0  0  0
 11 10  1  0  0  0  0
 11  7  2  0  0  0  0
 12 10  1  0  0  0  0
 12 13  1  0  0  0  0
 13 14  1  0  0  0  0
 14 19  2  0  0  0  0
 14 15  1  0  0  0  0
 15 16  2  0  0  0  0
 16 17  1  0  0  0  0
 18 17  2  0  0  0  0
 19 18  1  0  0  0  0
 20 11  1  0  0  0  0
 21 20  1  0  0  0  0
 22 21  2  0  0  0  0
 23 24  2  0  0  0  0
 23 22  1  0  0  0  0
 24 25  1  0  0  0  0
 25 20  2  0  0  0  0
 26  1  1  0  0  0  0
 26 30  1  1  0  0  0
 27 26  1  0  0  0  0
 28 37  1  6  0  0  0
 28 27  1  0  0  0  0
 28 29  1  0  0  0  0
 29 26  1  0  0  0  0
 30 31  1  0  0  0  0
 30 33  1  0  0  0  0
 32 30  1  0  0  0  0
 34 28  1  0  0  0  0
 35 36  1  0  0  0  0
 35 34  1  0  0  0  0
 36 34  1  0  0  0  0
 38 37  1  0  0  0  0
M  END
>  <minimizedAffinity>
-4.63715076

$$$$

 OpenBabel11232419453D

 38 44  0  0  1  0  0  0  0  0999 V2000
   60.7410  -41.8480   16.0690 C   0  0  0  0  0  0  0  0  0  0  0  0
   60.3070  -41.1410   17.2100 C   0  0  0  0  0  3  0  0  0  0  0  0
   59.1510  -41.4990   17.9140 C   0  0  0  0  0  3  0  0  0  0  0  0
   58.3960  -42.6050   17.5230 C   0  0  0  0  0  0  0  0  0  0  0  0
   58.8070  -43.3390   16.4120 C   0  0  0  0  0  3  0  0  0  0  0  0
   59.9530  -42.9640   15.7020 C   0  0  0  0  0  3  0  0  0  0  0  0
   57.1820  -42.9290   18.2410 C   0  0  0  0  0  0  0  0  0  0  0  0
   57.2130  -43.5590   19.4640 N   0  0  0  0  0  0  0  0  0  0  0  0
   55.9530  -43.6860   19.8170 C   0  0  0  0  0  0  0  0  0  0  0  0
   55.1190  -43.1870   18.8570 N   0  0  0  0  0  0  0  0  0  0  0  0
   55.8790  -42.6740   17.8300 C   0  0  0  0  0  0  0  0  0  0  0  0
   53.6780  -43.1720   19.0250 C   0  0  0  0  0  2  0  0  0  0  0  0
   53.1910  -44.1580   19.9610 O   0  0  0  0  0  0  0  0  0  0  0  0
   53.9990  -44.4550   21.0240 C   0  0  0  0  0  0  0  0  0  0  0  0
   53.4430  -45.0410   22.1460 C   0  0  0  0  0  3  0  0  0  0  0  0
   54.1580  -45.4020   23.2370 N   0  0  0  0  0  0  0  0  0  0  0  0
   55.4930  -45.1860   23.1950 C   0  0  0  0  0  3  0  0  0  0  0  0
   56.1470  -44.6270   22.1110 C   0  0  0  0  0  3  0  0  0  0  0  0
   55.3790  -44.2590   21.0100 C   0  0  0  0  0  0  0  0  0  0  0  0
   55.3350  -42.0810   16.6170 C   0  0  0  0  0  0  0  0  0  0  0  0
   54.6300  -40.8740   16.6840 C   0  0  0  0  0  3  0  0  0  0  0  0
   54.1160  -40.2920   15.5240 C   0  0  0  0  0  3  0  0  0  0  0  0
   54.2990  -40.9170   14.2910 C   0  0  0  0  0  3  0  0  0  0  0  0
   54.9940  -42.1230   14.2170 C   0  0  0  0  0  3  0  0  0  0  0  0
   55.5100  -42.7050   15.3770 C   0  0  0  0  0  3  0  0  0  0  0  0
   62.0360  -41.4390   15.2380 C   0  0  2  0  0  0  0  0  0  0  0  0
   63.3130  -42.3090   15.2900 C   0  0  0  0  0  2  0  0  0  0  0  0
   64.0360  -41.2130   16.1350 C   0  0  1  0  0  0  0  0  0  0  0  0
   62.8770  -40.2420   15.7450 C   0  0  0  0  0  2  0  0  0  0  0  0
   61.5990  -41.2410   13.8320 N   0  0  0  0  0  4  0  0  0  0  0  0
   61.1870  -42.1030   13.4510 H   0  0  0  0  0  0  0  0  0  0  0  0
   62.3770  -40.9720   13.2160 H   0  0  0  0  0  0  0  0  0  0  0  0
   60.8790  -40.5120   13.7580 H   0  0  0  0  0  0  0  0  0  0  0  0
   64.2400  -41.5730   17.6010 C   0  0  0  0  0  3  0  0  0  0  0  0
   63.4990  -40.9030   18.7270 C   0  0  0  0  0  2  0  0  0  0  0  0
   63.3050  -42.3710   18.4650 C   0  0  0  0  0  2  0  0  0  0  0  0
   65.2780  -40.8130   15.5090 O   0  0  0  0  0  0  0  0  0  0  0  0
   65.7470  -40.2770   16.1750 H   0  0  0  0  0  0  0  0  0  0  0  0
  1  2  1  0  0  0  0
  2  3  2  0  0  0  0
  4  3  1  0  0  0  0
  4  7  1  0  0  0  0
  5  4  2  0  0  0  0
  6  1  2  0  0  0  0
  6  5  1  0  0  0  0
  7  8  1  0  0  0  0
  8  9  2  0  0  0  0
  9 19  1  0  0  0  0
 10 12  1  0  0  0  0
 10  9  1  0  0  0  0
 11  7  2  0  0  0  0
 11 10  1  0  0  0  0
 12 13  1  0  0  0  0
 13 14  1  0  0  0  0
 14 15  1  0  0  0  0
 15 16  2  0  0  0  0
 17 16  1  0  0  0  0
 18 17  2  0  0  0  0
 19 14  2  0  0  0  0
 19 18  1  0  0  0  0
 20 21  1  0  0  0  0
 20 11  1  0  0  0  0
 22 21  2  0  0  0  0
 23 22  1  0  0  0  0
 24 23  2  0  0  0  0
 24 25  1  0  0  0  0
 25 20  2  0  0  0  0
 26 30  1  6  0  0  0
 26 27  1  0  0  0  0
 26 29  1  0  0  0  0
 26  1  1  0  0  0  0
 27 28  1  0  0  0  0
 28 37  1  6  0  0  0
 28 34  1  0  0  0  0
 29 28  1  0  0  0  0
 31 30  1  0  0  0  0
 32 30  1  0  0  0  0
 33 30  1  0  0  0  0
 34 36  1  0  0  0  0
 34 35  1  0  0  0  0
 36 35  1  0  0  0  0
 37 38  1  0  0  0  0
M  END
>  <minimizedAffinity>
-4.50640631

$$$$

 OpenBabel11232419453D

 38 44  0  0  1  0  0  0  0  0999 V2000
   57.0280  -43.1870   19.4230 C   0  0  0  0  0  0  0  0  0  0  0  0
   57.7820  -42.0060   19.2530 C   0  0  0  0  0  3  0  0  0  0  0  0
   58.8400  -41.9220   18.3410 C   0  0  0  0  0  3  0  0  0  0  0  0
   59.1700  -43.0100   17.5340 C   0  0  0  0  0  0  0  0  0  0  0  0
   58.4340  -44.1870   17.6600 C   0  0  0  0  0  3  0  0  0  0  0  0
   57.3900  -44.2700   18.5870 C   0  0  0  0  0  3  0  0  0  0  0  0
   60.2960  -42.9120   16.6290 C   0  0  0  0  0  0  0  0  0  0  0  0
   61.5750  -42.7030   17.0900 N   0  0  0  0  0  0  0  0  0  0  0  0
   62.3280  -42.6760   16.0130 C   0  0  0  0  0  0  0  0  0  0  0  0
   61.5780  -42.8330   14.8820 N   0  0  0  0  0  0  0  0  0  0  0  0
   60.2600  -43.0050   15.2430 C   0  0  0  0  0  0  0  0  0  0  0  0
   62.1780  -42.8790   13.5620 C   0  0  0  0  0  2  0  0  0  0  0  0
   63.4680  -42.2330   13.4870 O   0  0  0  0  0  0  0  0  0  0  0  0
   64.2590  -42.3000   14.6010 C   0  0  0  0  0  0  0  0  0  0  0  0
   65.6210  -42.0920   14.4690 C   0  0  0  0  0  3  0  0  0  0  0  0
   66.4860  -42.1060   15.5100 N   0  0  0  0  0  0  0  0  0  0  0  0
   65.9630  -42.3170   16.7400 C   0  0  0  0  0  3  0  0  0  0  0  0
   64.6150  -42.5130   16.9780 C   0  0  0  0  0  3  0  0  0  0  0  0
   63.7550  -42.5020   15.8840 C   0  0  0  0  0  0  0  0  0  0  0  0
   59.1620  -43.1750   14.3020 C   0  0  0  0  0  0  0  0  0  0  0  0
   58.7370  -44.4610   13.9480 C   0  0  0  0  0  3  0  0  0  0  0  0
   57.6770  -44.6320   13.0570 C   0  0  0  0  0  3  0  0  0  0  0  0
   57.0390  -43.5200   12.5100 C   0  0  0  0  0  3  0  0  0  0  0  0
   57.4610  -42.2360   12.8530 C   0  0  0  0  0  3  0  0  0  0  0  0
   58.5210  -42.0630   13.7460 C   0  0  0  0  0  3  0  0  0  0  0  0
   55.8400  -43.3130   20.4750 C   0  0  2  0  0  0  0  0  0  0  0  0
   54.4140  -43.6880   20.0110 C   0  0  0  0  0  2  0  0  0  0  0  0
   53.9300  -42.2280   20.2880 C   0  0  1  0  0  0  0  0  0  0  0  0
   55.2610  -42.0080   21.0760 C   0  0  0  0  0  2  0  0  0  0  0  0
   56.3030  -44.2420   21.5370 N   0  0  0  0  0  4  0  0  0  0  0  0
   56.5310  -45.1650   21.1420 H   0  0  0  0  0  0  0  0  0  0  0  0
   55.5930  -44.3850   22.2670 H   0  0  0  0  0  0  0  0  0  0  0  0
   57.1550  -43.8990   21.9960 H   0  0  0  0  0  0  0  0  0  0  0  0
   53.6640  -41.4000   19.0380 C   0  0  0  0  0  3  0  0  0  0  0  0
   53.3270  -39.9330   19.0740 C   0  0  0  0  0  2  0  0  0  0  0  0
   54.5940  -40.4000   18.4110 C   0  0  0  0  0  2  0  0  0  0  0  0
   52.7930  -42.2220   21.1830 O   0  0  0  0  0  0  0  0  0  0  0  0
   52.4450  -41.3100   21.1570 H   0  0  0  0  0  0  0  0  0  0  0  0
  1 26  1  0  0  0  0
  2  1  1  0  0  0  0
  3  2  2  0  0  0  0
  4  5  2  0  0  0  0
  4  3  1  0  0  0  0
  5  6  1  0  0  0  0
  6  1  2  0  0  0  0
  7  8  1  0  0  0  0
  7  4  1  0  0  0  0
  9  8  2  0  0  0  0
 10 11  1  0  0  0  0
 10  9  1  0  0  0  0
 11  7  2  0  0  0  0
 12 10  1  0  0  0  0
 13 12  1  0  0  0  0
 13 14  1  0  0  0  0
 14 19  1  0  0  0  0
 15 14  2  0  0  0  0
 15 16  1  0  0  0  0
 16 17  2  0  0  0  0
 17 18  1  0  0  0  0
 19  9  1  0  0  0  0
 19 18  2  0  0  0  0
 20 11  1  0  0  0  0
 21 20  1  0  0  0  0
 22 21  2  0  0  0  0
 23 24  2  0  0  0  0
 23 22  1  0  0  0  0
 24 25  1  0  0  0  0
 25 20  2  0  0  0  0
 26 29  1  0  0  0  0
 26 30  1  1  0  0  0
 27 28  1  0  0  0  0
 27 26  1  0  0  0  0
 28 29  1  0  0  0  0
 28 37  1  1  0  0  0
 30 33  1  0  0  0  0
 30 32  1  0  0  0  0
 31 30  1  0  0  0  0
 34 35  1  0  0  0  0
 34 28  1  0  0  0  0
 36 34  1  0  0  0  0
 36 35  1  0  0  0  0
 38 37  1  0  0  0  0
M  END
>  <minimizedAffinity>
-4.27739906

$$$$

 OpenBabel11232419453D

 38 44  0  0  1  0  0  0  0  0999 V2000
   56.8610  -43.2510   14.0970 C   0  0  0  0  0  0  0  0  0  0  0  0
   57.9640  -42.4540   13.7250 C   0  0  0  0  0  3  0  0  0  0  0  0
   59.1590  -42.4490   14.4550 C   0  0  0  0  0  3  0  0  0  0  0  0
   59.3120  -43.2690   15.5720 C   0  0  0  0  0  0  0  0  0  0  0  0
   58.2500  -44.0850   15.9570 C   0  0  0  0  0  3  0  0  0  0  0  0
   57.0520  -44.0720   15.2340 C   0  0  0  0  0  3  0  0  0  0  0  0
   60.5410  -43.2130   16.3350 C   0  0  0  0  0  0  0  0  0  0  0  0
   61.6290  -43.9910   16.0090 N   0  0  0  0  0  0  0  0  0  0  0  0
   62.5500  -43.6810   16.8930 C   0  0  0  0  0  0  0  0  0  0  0  0
   62.0870  -42.7560   17.7850 N   0  0  0  0  0  0  0  0  0  0  0  0
   60.7960  -42.4180   17.4450 C   0  0  0  0  0  0  0  0  0  0  0  0
   62.9260  -42.2180   18.8390 C   0  0  0  0  0  2  0  0  0  0  0  0
   64.0300  -43.0780   19.2000 O   0  0  0  0  0  0  0  0  0  0  0  0
   64.5850  -43.8240   18.1980 C   0  0  0  0  0  0  0  0  0  0  0  0
   65.8660  -44.3220   18.3640 C   0  0  0  0  0  3  0  0  0  0  0  0
   66.4930  -45.0970   17.4490 N   0  0  0  0  0  0  0  0  0  0  0  0
   65.8030  -45.4040   16.3270 C   0  0  0  0  0  3  0  0  0  0  0  0
   64.5120  -44.9740   16.0780 C   0  0  0  0  0  3  0  0  0  0  0  0
   63.9000  -44.1720   17.0360 C   0  0  0  0  0  0  0  0  0  0  0  0
   59.9670  -41.4780   18.1870 C   0  0  0  0  0  0  0  0  0  0  0  0
   60.2100  -40.1030   18.0890 C   0  0  0  0  0  3  0  0  0  0  0  0
   59.4120  -39.1950   18.7860 C   0  0  0  0  0  3  0  0  0  0  0  0
   58.3690  -39.6560   19.5880 C   0  0  0  0  0  3  0  0  0  0  0  0
   58.1250  -41.0250   19.6950 C   0  0  0  0  0  3  0  0  0  0  0  0
   58.9220  -41.9340   18.9970 C   0  0  0  0  0  3  0  0  0  0  0  0
   55.4840  -43.2510   13.2980 C   0  0  2  0  0  0  0  0  0  0  0  0
   55.0300  -42.0000   12.5100 C   0  0  0  0  0  2  0  0  0  0  0  0
   53.9190  -41.7230   13.5720 C   0  0  1  0  0  0  0  0  0  0  0  0
   54.1700  -43.1660   14.1140 C   0  0  0  0  0  2  0  0  0  0  0  0
   55.5000  -44.4440   12.4140 N   0  0  0  0  0  4  0  0  0  0  0  0
   56.2930  -44.4060   11.7600 H   0  0  0  0  0  0  0  0  0  0  0  0
   54.6410  -44.5260   11.8540 H   0  0  0  0  0  0  0  0  0  0  0  0
   55.6030  -45.3130   12.9520 H   0  0  0  0  0  0  0  0  0  0  0  0
   54.1920  -40.5320   14.4810 C   0  0  0  0  0  3  0  0  0  0  0  0
   53.4100  -39.2480   14.4190 C   0  0  0  0  0  2  0  0  0  0  0  0
   53.3670  -40.0970   15.6600 C   0  0  0  0  0  2  0  0  0  0  0  0
   52.6190  -41.6260   12.9450 O   0  0  0  0  0  0  0  0  0  0  0  0
   52.0210  -41.2750   13.6330 H   0  0  0  0  0  0  0  0  0  0  0  0
  1  6  1  0  0  0  0
  2  1  2  0  0  0  0
  2  3  1  0  0  0  0
  3  4  2  0  0  0  0
  4  5  1  0  0  0  0
  4  7  1  0  0  0  0
  6  5  2  0  0  0  0
  7 11  2  0  0  0  0
  8  7  1  0  0  0  0
  8  9  2  0  0  0  0
  9 19  1  0  0  0  0
  9 10  1  0  0  0  0
 10 12  1  0  0  0  0
 11 10  1  0  0  0  0
 11 20  1  0  0  0  0
 12 13  1  0  0  0  0
 14 15  1  0  0  0  0
 14 13  1  0  0  0  0
 16 15  2  0  0  0  0
 17 16  1  0  0  0  0
 18 17  2  0  0  0  0
 18 19  1  0  0  0  0
 19 14  2  0  0  0  0
 20 25  1  0  0  0  0
 21 20  2  0  0  0  0
 21 22  1  0  0  0  0
 22 23  2  0  0  0  0
 23 24  1  0  0  0  0
 25 24  2  0  0  0  0
 26 30  1  6  0  0  0
 26  1  1  0  0  0  0
 26 29  1  0  0  0  0
 27 26  1  0  0  0  0
 27 28  1  0  0  0  0
 28 37  1  6  0  0  0
 28 29  1  0  0  0  0
 28 34  1  0  0  0  0
 30 33  1  0  0  0  0
 31 30  1  0  0  0  0
 32 30  1  0  0  0  0
 34 36  1  0  0  0  0
 35 34  1  0  0  0  0
 35 36  1  0  0  0  0
 37 38  1  0  0  0  0
M  END
>  <minimizedAffinity>
-4.16320372

$$$$

 OpenBabel11232419453D

 38 44  0  0  1  0  0  0  0  0999 V2000
   57.3160  -42.3740   17.4010 C   0  0  0  0  0  0  0  0  0  0  0  0
   58.4050  -42.2480   18.2900 C   0  0  0  0  0  3  0  0  0  0  0  0
   59.7340  -42.3050   17.8540 C   0  0  0  0  0  3  0  0  0  0  0  0
   60.0300  -42.4580   16.5000 C   0  0  0  0  0  0  0  0  0  0  0  0
   58.9800  -42.5660   15.5910 C   0  0  0  0  0  3  0  0  0  0  0  0
   57.6540  -42.5260   16.0360 C   0  0  0  0  0  3  0  0  0  0  0  0
   61.4120  -42.5580   16.0800 C   0  0  0  0  0  0  0  0  0  0  0  0
   61.8130  -43.4690   15.1300 N   0  0  0  0  0  0  0  0  0  0  0  0
   63.1060  -43.2770   14.9940 C   0  0  0  0  0  0  0  0  0  0  0  0
   63.5510  -42.2980   15.8360 N   0  0  0  0  0  0  0  0  0  0  0  0
   62.4800  -41.7980   16.5420 C   0  0  0  0  0  0  0  0  0  0  0  0
   64.9360  -41.8680   15.8510 C   0  0  0  0  0  2  0  0  0  0  0  0
   65.8590  -42.8610   15.3490 O   0  0  0  0  0  0  0  0  0  0  0  0
   65.4060  -43.6760   14.3490 C   0  0  0  0  0  0  0  0  0  0  0  0
   66.3270  -44.3330   13.5520 C   0  0  0  0  0  3  0  0  0  0  0  0
   65.9850  -45.1840   12.5570 N   0  0  0  0  0  0  0  0  0  0  0  0
   64.6640  -45.4040   12.3630 C   0  0  0  0  0  3  0  0  0  0  0  0
   63.6680  -44.8130   13.1200 C   0  0  0  0  0  3  0  0  0  0  0  0
   64.0550  -43.9360   14.1290 C   0  0  0  0  0  0  0  0  0  0  0  0
   62.5730  -40.7580   17.5570 C   0  0  0  0  0  0  0  0  0  0  0  0
   63.3130  -40.9830   18.7240 C   0  0  0  0  0  3  0  0  0  0  0  0
   63.4170  -39.9870   19.6950 C   0  0  0  0  0  3  0  0  0  0  0  0
   62.7790  -38.7610   19.5080 C   0  0  0  0  0  3  0  0  0  0  0  0
   62.0350  -38.5320   18.3520 C   0  0  0  0  0  3  0  0  0  0  0  0
   61.9310  -39.5280   17.3780 C   0  0  0  0  0  3  0  0  0  0  0  0
   55.7990  -42.3400   17.8800 C   0  0  2  0  0  0  0  0  0  0  0  0
   55.4390  -42.5180   19.3740 C   0  0  0  0  0  2  0  0  0  0  0  0
   54.8650  -43.9390   19.0760 C   0  0  1  0  0  0  0  0  0  0  0  0
   54.9080  -43.5670   17.5600 C   0  0  0  0  0  2  0  0  0  0  0  0
   55.2080  -41.0850   17.3490 N   0  0  0  0  0  4  0  0  0  0  0  0
   55.7140  -40.2630   17.7050 H   0  0  0  0  0  0  0  0  0  0  0  0
   54.2200  -40.9770   17.6120 H   0  0  0  0  0  0  0  0  0  0  0  0
   55.2630  -41.0450   16.3240 H   0  0  0  0  0  0  0  0  0  0  0  0
   55.7240  -45.0900   19.5810 C   0  0  0  0  0  3  0  0  0  0  0  0
   57.1300  -44.9120   20.0880 C   0  0  0  0  0  2  0  0  0  0  0  0
   56.0510  -45.4020   21.0150 C   0  0  0  0  0  2  0  0  0  0  0  0
   53.4990  -44.0520   19.5410 O   0  0  0  0  0  0  0  0  0  0  0  0
   53.2810  -45.0020   19.4880 H   0  0  0  0  0  0  0  0  0  0  0  0
  1 26  1  0  0  0  0
  1  2  1  0  0  0  0
  3  2  2  0  0  0  0
  4  3  1  0  0  0  0
  5  6  1  0  0  0  0
  5  4  2  0  0  0  0
  6  1  2  0  0  0  0
  7  4  1  0  0  0  0
  7 11  2  0  0  0  0
  8  7  1  0  0  0  0
  9  8  2  0  0  0  0
  9 10  1  0  0  0  0
 10 12  1  0  0  0  0
 10 11  1  0  0  0  0
 11 20  1  0  0  0  0
 13 12  1  0  0  0  0
 14 13  1  0  0  0  0
 15 14  2  0  0  0  0
 16 15  1  0  0  0  0
 17 16  2  0  0  0  0
 17 18  1  0  0  0  0
 18 19  2  0  0  0  0
 19 14  1  0  0  0  0
 19  9  1  0  0  0  0
 20 21  1  0  0  0  0
 21 22  2  0  0  0  0
 23 22  1  0  0  0  0
 24 23  2  0  0  0  0
 25 20  2  0  0  0  0
 25 24  1  0  0  0  0
 26 30  1  6  0  0  0
 26 27  1  0  0  0  0
 28 27  1  0  0  0  0
 28 37  1  1  0  0  0
 28 34  1  0  0  0  0
 29 26  1  0  0  0  0
 29 28  1  0  0  0  0
 30 32  1  0  0  0  0
 30 31  1  0  0  0  0
 33 30  1  0  0  0  0
 34 35  1  0  0  0  0
 34 36  1  0  0  0  0
 35 36  1  0  0  0  0
 38 37  1  0  0  0  0
M  END
>  <minimizedAffinity>
-4.15712833

$$$$
