
 OpenBabel11232419453D

 38 44  0  0  1  0  0  0  0  0999 V2000
   56.4910  -43.7870   17.2440 C   0  0  0  0  0  0  0  0  0  0  0  0
   57.5520  -44.1650   18.0930 C   0  0  0  0  0  3  0  0  0  0  0  0
   58.8590  -43.7000   17.9050 C   0  0  0  0  0  3  0  0  0  0  0  0
   59.1530  -42.8070   16.8740 C   0  0  0  0  0  0  0  0  0  0  0  0
   58.1250  -42.3960   16.0280 C   0  0  0  0  0  3  0  0  0  0  0  0
   56.8250  -42.8800   16.2110 C   0  0  0  0  0  3  0  0  0  0  0  0
   60.5200  -42.3740   16.6730 C   0  0  0  0  0  0  0  0  0  0  0  0
   61.3350  -42.9680   15.7370 N   0  0  0  0  0  0  0  0  0  0  0  0
   62.4800  -42.3290   15.8230 C   0  0  0  0  0  0  0  0  0  0  0  0
   62.4370  -41.3690   16.7940 N   0  0  0  0  0  0  0  0  0  0  0  0
   61.1800  -41.3580   17.3540 C   0  0  0  0  0  0  0  0  0  0  0  0
   63.5650  -40.4950   17.0610 C   0  0  0  0  0  2  0  0  0  0  0  0
   64.8350  -41.0420   16.6420 O   0  0  0  0  0  0  0  0  0  0  0  0
   64.8320  -41.8320   15.5260 C   0  0  0  0  0  0  0  0  0  0  0  0
   66.0170  -42.0300   14.8410 C   0  0  0  0  0  3  0  0  0  0  0  0
   66.1280  -42.8170   13.7460 N   0  0  0  0  0  0  0  0  0  0  0  0
   65.0080  -43.4500   13.3280 C   0  0  0  0  0  3  0  0  0  0  0  0
   63.7810  -43.3350   13.9570 C   0  0  0  0  0  3  0  0  0  0  0  0
   63.7010  -42.5100   15.0760 C   0  0  0  0  0  0  0  0  0  0  0  0
   60.7680  -40.4830   18.4430 C   0  0  0  0  0  0  0  0  0  0  0  0
   60.6710  -39.1030   18.2320 C   0  0  0  0  0  3  0  0  0  0  0  0
   60.2660  -38.2590   19.2670 C   0  0  0  0  0  3  0  0  0  0  0  0
   59.9590  -38.7880   20.5190 C   0  0  0  0  0  3  0  0  0  0  0  0
   60.0600  -40.1610   20.7390 C   0  0  0  0  0  3  0  0  0  0  0  0
   60.4650  -41.0070   19.7040 C   0  0  0  0  0  3  0  0  0  0  0  0
   55.0040  -44.3270   17.4240 C   0  0  2  0  0  0  0  0  0  0  0  0
   53.9190  -43.4450   18.0840 C   0  0  0  0  0  2  0  0  0  0  0  0
   53.9440  -44.3510   19.3570 C   0  0  1  0  0  0  0  0  0  0  0  0
   54.7460  -45.3950   18.5160 C   0  0  0  0  0  2  0  0  0  0  0  0
   54.5520  -44.7940   16.0890 N   0  0  0  0  0  4  0  0  0  0  0  0
   54.5730  -44.0250   15.4050 H   0  0  0  0  0  0  0  0  0  0  0  0
   53.5930  -45.1630   16.1080 H   0  0  0  0  0  0  0  0  0  0  0  0
   55.1620  -45.5340   15.7200 H   0  0  0  0  0  0  0  0  0  0  0  0
   54.6020  -43.7180   20.5750 C   0  0  0  0  0  3  0  0  0  0  0  0
   54.8750  -42.2420   20.6940 C   0  0  0  0  0  2  0  0  0  0  0  0
   53.9190  -42.9120   21.6440 C   0  0  0  0  0  2  0  0  0  0  0  0
   52.6190  -44.8450   19.6640 O   0  0  0  0  0  0  0  0  0  0  0  0
   52.6860  -45.2390   20.5550 H   0  0  0  0  0  0  0  0  0  0  0  0
  1 26  1  0  0  0  0
  1  2  1  0  0  0  0
  3  2  2  0  0  0  0
  4  3  1  0  0  0  0
  5  6  1  0  0  0  0
  5  4  2  0  0  0  0
  6  1  2  0  0  0  0
  7  4  1  0  0  0  0
  7 11  2  0  0  0  0
  8  9  2  0  0  0  0
  8  7  1  0  0  0  0
  9 10  1  0  0  0  0
 10 12  1  0  0  0  0
 10 11  1  0  0  0  0
 11 20  1  0  0  0  0
 13 12  1  0  0  0  0
 14 13  1  0  0  0  0
 15 14  2  0  0  0  0
 16 15  1  0  0  0  0
 17 16  2  0  0  0  0
 17 18  1  0  0  0  0
 18 19  2  0  0  0  0
 19 14  1  0  0  0  0
 19  9  1  0  0  0  0
 20 25  1  0  0  0  0
 21 20  2  0  0  0  0
 21 22  1  0  0  0  0
 22 23  2  0  0  0  0
 23 24  1  0  0  0  0
 25 24  2  0  0  0  0
 26 30  1  6  0  0  0
 26 27  1  0  0  0  0
 26 29  1  0  0  0  0
 27 28  1  0  0  0  0
 28 37  1  1  0  0  0
 28 34  1  0  0  0  0
 29 28  1  0  0  0  0
 30 32  1  0  0  0  0
 31 30  1  0  0  0  0
 33 30  1  0  0  0  0
 34 35  1  0  0  0  0
 34 36  1  0  0  0  0
 35 36  1  0  0  0  0
 37 38  1  0  0  0  0
M  END
>  <minimizedAffinity>
-4.89858437

$$$$
