
 OpenBabel11232419453D

 38 44  0  0  1  0  0  0  0  0999 V2000
   57.3160  -42.3740   17.4010 C   0  0  0  0  0  0  0  0  0  0  0  0
   58.4050  -42.2480   18.2900 C   0  0  0  0  0  3  0  0  0  0  0  0
   59.7340  -42.3050   17.8540 C   0  0  0  0  0  3  0  0  0  0  0  0
   60.0300  -42.4580   16.5000 C   0  0  0  0  0  0  0  0  0  0  0  0
   58.9800  -42.5660   15.5910 C   0  0  0  0  0  3  0  0  0  0  0  0
   57.6540  -42.5260   16.0360 C   0  0  0  0  0  3  0  0  0  0  0  0
   61.4120  -42.5580   16.0800 C   0  0  0  0  0  0  0  0  0  0  0  0
   61.8130  -43.4690   15.1300 N   0  0  0  0  0  0  0  0  0  0  0  0
   63.1060  -43.2770   14.9940 C   0  0  0  0  0  0  0  0  0  0  0  0
   63.5510  -42.2980   15.8360 N   0  0  0  0  0  0  0  0  0  0  0  0
   62.4800  -41.7980   16.5420 C   0  0  0  0  0  0  0  0  0  0  0  0
   64.9360  -41.8680   15.8510 C   0  0  0  0  0  2  0  0  0  0  0  0
   65.8590  -42.8610   15.3490 O   0  0  0  0  0  0  0  0  0  0  0  0
   65.4060  -43.6760   14.3490 C   0  0  0  0  0  0  0  0  0  0  0  0
   66.3270  -44.3330   13.5520 C   0  0  0  0  0  3  0  0  0  0  0  0
   65.9850  -45.1840   12.5570 N   0  0  0  0  0  0  0  0  0  0  0  0
   64.6640  -45.4040   12.3630 C   0  0  0  0  0  3  0  0  0  0  0  0
   63.6680  -44.8130   13.1200 C   0  0  0  0  0  3  0  0  0  0  0  0
   64.0550  -43.9360   14.1290 C   0  0  0  0  0  0  0  0  0  0  0  0
   62.5730  -40.7580   17.5570 C   0  0  0  0  0  0  0  0  0  0  0  0
   63.3130  -40.9830   18.7240 C   0  0  0  0  0  3  0  0  0  0  0  0
   63.4170  -39.9870   19.6950 C   0  0  0  0  0  3  0  0  0  0  0  0
   62.7790  -38.7610   19.5080 C   0  0  0  0  0  3  0  0  0  0  0  0
   62.0350  -38.5320   18.3520 C   0  0  0  0  0  3  0  0  0  0  0  0
   61.9310  -39.5280   17.3780 C   0  0  0  0  0  3  0  0  0  0  0  0
   55.7990  -42.3400   17.8800 C   0  0  2  0  0  0  0  0  0  0  0  0
   55.4390  -42.5180   19.3740 C   0  0  0  0  0  2  0  0  0  0  0  0
   54.8650  -43.9390   19.0760 C   0  0  1  0  0  0  0  0  0  0  0  0
   54.9080  -43.5670   17.5600 C   0  0  0  0  0  2  0  0  0  0  0  0
   55.2080  -41.0850   17.3490 N   0  0  0  0  0  4  0  0  0  0  0  0
   55.7140  -40.2630   17.7050 H   0  0  0  0  0  0  0  0  0  0  0  0
   54.2200  -40.9770   17.6120 H   0  0  0  0  0  0  0  0  0  0  0  0
   55.2630  -41.0450   16.3240 H   0  0  0  0  0  0  0  0  0  0  0  0
   55.7240  -45.0900   19.5810 C   0  0  0  0  0  3  0  0  0  0  0  0
   57.1300  -44.9120   20.0880 C   0  0  0  0  0  2  0  0  0  0  0  0
   56.0510  -45.4020   21.0150 C   0  0  0  0  0  2  0  0  0  0  0  0
   53.4990  -44.0520   19.5410 O   0  0  0  0  0  0  0  0  0  0  0  0
   53.2810  -45.0020   19.4880 H   0  0  0  0  0  0  0  0  0  0  0  0
  1 26  1  0  0  0  0
  1  2  1  0  0  0  0
  3  2  2  0  0  0  0
  4  3  1  0  0  0  0
  5  6  1  0  0  0  0
  5  4  2  0  0  0  0
  6  1  2  0  0  0  0
  7  4  1  0  0  0  0
  7 11  2  0  0  0  0
  8  7  1  0  0  0  0
  9  8  2  0  0  0  0
  9 10  1  0  0  0  0
 10 12  1  0  0  0  0
 10 11  1  0  0  0  0
 11 20  1  0  0  0  0
 13 12  1  0  0  0  0
 14 13  1  0  0  0  0
 15 14  2  0  0  0  0
 16 15  1  0  0  0  0
 17 16  2  0  0  0  0
 17 18  1  0  0  0  0
 18 19  2  0  0  0  0
 19 14  1  0  0  0  0
 19  9  1  0  0  0  0
 20 21  1  0  0  0  0
 21 22  2  0  0  0  0
 23 22  1  0  0  0  0
 24 23  2  0  0  0  0
 25 20  2  0  0  0  0
 25 24  1  0  0  0  0
 26 30  1  6  0  0  0
 26 27  1  0  0  0  0
 28 27  1  0  0  0  0
 28 37  1  1  0  0  0
 28 34  1  0  0  0  0
 29 26  1  0  0  0  0
 29 28  1  0  0  0  0
 30 32  1  0  0  0  0
 30 31  1  0  0  0  0
 33 30  1  0  0  0  0
 34 35  1  0  0  0  0
 34 36  1  0  0  0  0
 35 36  1  0  0  0  0
 38 37  1  0  0  0  0
M  END
>  <minimizedAffinity>
-4.15712833

$$$$
