
 OpenBabel10152420003D

 36 39  0  0  0  0  0  0  0  0999 V2000
   -0.8700   -7.9650  -26.4310 C   0  0  0  0  0  0  0  0  0  0  0  0
   -1.3760   -6.9570  -25.6090 C   0  0  0  0  0  3  0  0  0  0  0  0
   -0.8570   -5.6650  -25.6880 C   0  0  0  0  0  3  0  0  0  0  0  0
    0.1520   -5.3690  -26.6090 C   0  0  0  0  0  3  0  0  0  0  0  0
    0.6370   -6.3450  -27.4910 C   0  0  0  0  0  0  0  0  0  0  0  0
    0.1090   -7.6400  -27.3880 C   0  0  0  0  0  3  0  0  0  0  0  0
   -1.2920  -10.6380  -22.7130 C   0  0  0  0  0  0  0  0  0  0  0  0
   -1.2800  -11.6590  -23.6370 C   0  0  0  0  0  3  0  0  0  0  0  0
   -1.3200  -11.2650  -24.9650 N   0  0  0  0  0  0  0  0  0  0  0  0
   -1.2880   -9.9510  -25.0530 C   0  0  0  0  0  0  0  0  0  0  0  0
   -1.2800   -9.2940  -26.2380 N   0  0  0  0  0  0  0  0  0  0  0  0
   -1.3490   -9.1400  -23.5230 S   0  0  0  0  0  0  0  0  0  0  0  0
   -1.5660   -9.8010  -27.0650 H   0  0  0  0  0  0  0  0  0  0  0  0
   -1.2470  -10.6660  -21.2760 C   0  0  0  0  0  0  0  0  0  0  0  0
   -1.6650   -9.7940  -20.5250 O   0  0  0  0  0  0  0  0  0  0  0  0
   -0.6020  -11.7950  -20.8640 O   0  0  0  0  0  0  0  0  0  0  0  0
   -0.5840  -12.9570  -18.7140 C   0  0  0  0  0  1  0  0  0  0  0  0
   -1.3550  -12.6510  -19.9900 C   0  0  0  0  0  2  0  0  0  0  0  0
    1.7620   -6.0600  -28.4750 C   0  0  0  0  0  2  0  0  0  0  0  0
    3.0720   -6.1250  -27.8410 N   0  0  0  0  0  0  0  0  0  0  0  0
    3.2710   -5.4480  -27.1230 H   0  0  0  0  0  0  0  0  0  0  0  0
    3.7170   -7.3580  -27.8210 C   0  0  0  0  0  0  0  0  0  0  0  0
    4.4480   -7.6740  -28.9050 N   0  0  0  0  0  0  0  0  0  0  0  0
    4.6990   -8.9640  -29.1050 C   0  0  0  0  0  3  0  0  0  0  0  0
    4.1830   -9.9620  -28.3900 N   0  0  0  0  0  0  0  0  0  0  0  0
    3.5130   -9.6350  -27.2680 C   0  0  0  0  0  0  0  0  0  0  0  0
    2.8510  -10.5970  -26.5040 C   0  0  0  0  0  0  0  0  0  0  0  0
    2.2990  -10.3390  -25.2420 C   0  0  0  0  0  3  0  0  0  0  0  0
    2.3200   -9.0430  -24.7540 C   0  0  0  0  0  3  0  0  0  0  0  0
    2.7940   -8.0250  -25.5780 C   0  0  0  0  0  3  0  0  0  0  0  0
    3.3660   -8.3120  -26.8500 C   0  0  0  0  0  0  0  0  0  0  0  0
    2.4090  -11.8360  -27.1700 C   0  0  0  0  0  0  0  0  0  0  0  0
    1.0720  -12.0960  -27.0060 N   0  0  0  0  0  0  0  0  0  0  0  0
    3.1820  -12.6120  -27.7080 O   0  0  0  0  0  0  0  0  0  0  0  0
    0.6850  -12.9420  -27.4000 H   0  0  0  0  0  0  0  0  0  0  0  0
    0.4540  -11.4660  -26.5100 H   0  0  0  0  0  0  0  0  0  0  0  0
  1 11  1  0  0  0  0
  1  2  1  0  0  0  0
  3  2  2  0  0  0  0
  4  3  1  0  0  0  0
  5  6  1  0  0  0  0
  5  4  2  0  0  0  0
  6  1  2  0  0  0  0
  7 14  1  0  0  0  0
  8  7  2  0  0  0  0
  9  8  1  0  0  0  0
 10  9  2  0  0  0  0
 10 12  1  0  0  0  0
 11 10  1  0  0  0  0
 12  7  1  0  0  0  0
 13 11  1  0  0  0  0
 14 16  1  0  0  0  0
 14 15  2  0  0  0  0
 16 18  1  0  0  0  0
 18 17  1  0  0  0  0
 19 20  1  0  0  0  0
 19  5  1  0  0  0  0
 20 22  1  0  0  0  0
 20 21  1  0  0  0  0
 22 31  1  0  0  0  0
 23 22  2  0  0  0  0
 24 23  1  0  0  0  0
 24 25  2  0  0  0  0
 25 26  1  0  0  0  0
 26 31  2  0  0  0  0
 26 27  1  0  0  0  0
 27 28  2  0  0  0  0
 28 29  1  0  0  0  0
 30 29  2  0  0  0  0
 31 30  1  0  0  0  0
 32 33  1  0  0  0  0
 32 27  1  0  0  0  0
 33 36  1  0  0  0  0
 34 32  2  0  0  0  0
 35 33  1  0  0  0  0
M  END
>  <minimizedAffinity>
-8.24243641

$$$$
