
 OpenBabel10152420003D

 36 39  0  0  0  0  0  0  0  0999 V2000
    1.7180   -6.2580  -27.1650 C   0  0  0  0  0  0  0  0  0  0  0  0
    0.9430   -5.5860  -28.1110 C   0  0  0  0  0  3  0  0  0  0  0  0
   -0.3530   -5.1810  -27.7930 C   0  0  0  0  0  3  0  0  0  0  0  0
   -0.8710   -5.4240  -26.5170 C   0  0  0  0  0  3  0  0  0  0  0  0
   -0.0940   -6.0400  -25.5250 C   0  0  0  0  0  0  0  0  0  0  0  0
    1.2030   -6.4470  -25.8690 C   0  0  0  0  0  3  0  0  0  0  0  0
    3.5310  -10.4750  -26.8900 C   0  0  0  0  0  0  0  0  0  0  0  0
    4.7220   -9.8050  -27.0580 C   0  0  0  0  0  3  0  0  0  0  0  0
    4.6140   -8.4540  -27.3460 N   0  0  0  0  0  0  0  0  0  0  0  0
    3.3510   -8.0810  -27.3250 C   0  0  0  0  0  0  0  0  0  0  0  0
    2.9570   -6.8030  -27.5380 N   0  0  0  0  0  0  0  0  0  0  0  0
    2.2350   -9.3870  -27.0910 S   0  0  0  0  0  0  0  0  0  0  0  0
    3.6120   -6.1700  -27.9780 H   0  0  0  0  0  0  0  0  0  0  0  0
    3.2590  -11.8510  -26.5740 C   0  0  0  0  0  0  0  0  0  0  0  0
    2.4920  -12.5910  -27.1770 O   0  0  0  0  0  0  0  0  0  0  0  0
    3.9420  -12.2020  -25.4460 O   0  0  0  0  0  0  0  0  0  0  0  0
    3.8270  -12.8810  -23.1020 C   0  0  0  0  0  1  0  0  0  0  0  0
    3.1930  -12.9590  -24.4840 C   0  0  0  0  0  2  0  0  0  0  0  0
   -0.6460   -6.3510  -24.1420 C   0  0  0  0  0  2  0  0  0  0  0  0
   -0.2940   -7.6940  -23.7020 N   0  0  0  0  0  0  0  0  0  0  0  0
    0.6680   -7.8600  -23.4530 H   0  0  0  0  0  0  0  0  0  0  0  0
   -1.2960   -8.4660  -23.1240 C   0  0  0  0  0  0  0  0  0  0  0  0
   -2.2330   -7.8090  -22.4170 N   0  0  0  0  0  0  0  0  0  0  0  0
   -2.9160   -8.5140  -21.5220 C   0  0  0  0  0  3  0  0  0  0  0  0
   -2.6590   -9.7770  -21.1880 N   0  0  0  0  0  0  0  0  0  0  0  0
   -1.7700  -10.4470  -21.9470 C   0  0  0  0  0  0  0  0  0  0  0  0
   -1.3590  -11.7400  -21.6220 C   0  0  0  0  0  0  0  0  0  0  0  0
   -0.5830  -12.5420  -22.4710 C   0  0  0  0  0  3  0  0  0  0  0  0
   -0.1130  -12.0040  -23.6560 C   0  0  0  0  0  3  0  0  0  0  0  0
   -0.3380  -10.6540  -23.9150 C   0  0  0  0  0  3  0  0  0  0  0  0
   -1.1430   -9.8620  -23.0480 C   0  0  0  0  0  0  0  0  0  0  0  0
   -1.4410  -12.1680  -20.2140 C   0  0  0  0  0  0  0  0  0  0  0  0
   -2.7290  -12.3160  -19.7630 N   0  0  0  0  0  0  0  0  0  0  0  0
   -0.4630  -12.2620  -19.4910 O   0  0  0  0  0  0  0  0  0  0  0  0
   -2.8830  -12.5740  -18.7990 H   0  0  0  0  0  0  0  0  0  0  0  0
   -3.5320  -12.1830  -20.3640 H   0  0  0  0  0  0  0  0  0  0  0  0
  1  6  1  0  0  0  0
  2  3  1  0  0  0  0
  2  1  2  0  0  0  0
  3  4  2  0  0  0  0
  4  5  1  0  0  0  0
  5 19  1  0  0  0  0
  6  5  2  0  0  0  0
  7 14  1  0  0  0  0
  8  7  2  0  0  0  0
  9 10  2  0  0  0  0
  9  8  1  0  0  0  0
 10 12  1  0  0  0  0
 11 10  1  0  0  0  0
 11  1  1  0  0  0  0
 12  7  1  0  0  0  0
 13 11  1  0  0  0  0
 14 16  1  0  0  0  0
 15 14  2  0  0  0  0
 16 18  1  0  0  0  0
 18 17  1  0  0  0  0
 19 20  1  0  0  0  0
 20 21  1  0  0  0  0
 20 22  1  0  0  0  0
 22 31  2  0  0  0  0
 22 23  1  0  0  0  0
 23 24  2  0  0  0  0
 24 25  1  0  0  0  0
 26 27  1  0  0  0  0
 26 25  2  0  0  0  0
 27 32  1  0  0  0  0
 28 27  2  0  0  0  0
 29 28  1  0  0  0  0
 30 29  2  0  0  0  0
 30 31  1  0  0  0  0
 31 26  1  0  0  0  0
 32 33  1  0  0  0  0
 32 34  2  0  0  0  0
 33 35  1  0  0  0  0
 36 33  1  0  0  0  0
M  END
>  <minimizedAffinity>
-8.34443474

$$$$
