
 OpenBabel10152420003D

 36 39  0  0  0  0  0  0  0  0999 V2000
    3.4480  -11.0850  -26.3950 C   0  0  0  0  0  0  0  0  0  0  0  0
    4.1190  -11.9560  -25.5360 C   0  0  0  0  0  3  0  0  0  0  0  0
    3.3980  -12.8230  -24.7160 C   0  0  0  0  0  3  0  0  0  0  0  0
    2.0010  -12.8410  -24.7700 C   0  0  0  0  0  3  0  0  0  0  0  0
    1.3000  -12.0220  -25.6680 C   0  0  0  0  0  0  0  0  0  0  0  0
    2.0450  -11.1510  -26.4760 C   0  0  0  0  0  3  0  0  0  0  0  0
    2.4050   -6.8730  -27.9180 C   0  0  0  0  0  0  0  0  0  0  0  0
    3.5020   -7.0640  -28.7290 C   0  0  0  0  0  3  0  0  0  0  0  0
    4.2440   -8.2060  -28.4740 N   0  0  0  0  0  0  0  0  0  0  0  0
    3.6740   -8.9190  -27.5240 C   0  0  0  0  0  0  0  0  0  0  0  0
    4.1680  -10.1060  -27.0980 N   0  0  0  0  0  0  0  0  0  0  0  0
    2.2910   -8.1600  -26.8070 S   0  0  0  0  0  0  0  0  0  0  0  0
    5.1280  -10.3300  -27.3230 H   0  0  0  0  0  0  0  0  0  0  0  0
    1.4170   -5.8290  -27.8990 C   0  0  0  0  0  0  0  0  0  0  0  0
    1.4180   -4.8230  -28.5970 O   0  0  0  0  0  0  0  0  0  0  0  0
    0.4950   -6.0930  -26.9290 O   0  0  0  0  0  0  0  0  0  0  0  0
   -0.5020   -4.6290  -25.2470 C   0  0  0  0  0  1  0  0  0  0  0  0
   -0.4770   -5.0610  -26.7050 C   0  0  0  0  0  2  0  0  0  0  0  0
   -0.2200  -11.9930  -25.7190 C   0  0  0  0  0  2  0  0  0  0  0  0
   -0.8180  -12.4320  -24.4670 N   0  0  0  0  0  0  0  0  0  0  0  0
   -0.8620  -13.4240  -24.2990 H   0  0  0  0  0  0  0  0  0  0  0  0
   -0.7710  -11.5540  -23.3880 C   0  0  0  0  0  0  0  0  0  0  0  0
   -0.6920  -12.1060  -22.1640 N   0  0  0  0  0  0  0  0  0  0  0  0
   -1.0790  -11.3540  -21.1390 C   0  0  0  0  0  3  0  0  0  0  0  0
   -1.6490  -10.1560  -21.2440 N   0  0  0  0  0  0  0  0  0  0  0  0
   -1.6590   -9.5820  -22.4630 C   0  0  0  0  0  0  0  0  0  0  0  0
   -2.3190   -8.3750  -22.6980 C   0  0  0  0  0  0  0  0  0  0  0  0
   -2.2070   -7.6520  -23.8940 C   0  0  0  0  0  3  0  0  0  0  0  0
   -1.4830   -8.1960  -24.9410 C   0  0  0  0  0  3  0  0  0  0  0  0
   -0.9810   -9.4880  -24.8070 C   0  0  0  0  0  3  0  0  0  0  0  0
   -1.0910  -10.1990  -23.5790 C   0  0  0  0  0  0  0  0  0  0  0  0
   -3.4380   -8.0050  -21.8130 C   0  0  0  0  0  0  0  0  0  0  0  0
   -3.0460   -7.7210  -20.5280 N   0  0  0  0  0  0  0  0  0  0  0  0
   -4.6060   -8.0650  -22.1600 O   0  0  0  0  0  0  0  0  0  0  0  0
   -3.7500   -7.4890  -19.8420 H   0  0  0  0  0  0  0  0  0  0  0  0
   -2.0750   -7.7270  -20.2440 H   0  0  0  0  0  0  0  0  0  0  0  0
  1  2  1  0  0  0  0
  2  3  2  0  0  0  0
  4  3  1  0  0  0  0
  5  4  2  0  0  0  0
  6  1  2  0  0  0  0
  6  5  1  0  0  0  0
  7 14  1  0  0  0  0
  7 12  1  0  0  0  0
  8  9  1  0  0  0  0
  8  7  2  0  0  0  0
  9 10  2  0  0  0  0
 10 11  1  0  0  0  0
 10 12  1  0  0  0  0
 11  1  1  0  0  0  0
 13 11  1  0  0  0  0
 14 16  1  0  0  0  0
 15 14  2  0  0  0  0
 16 18  1  0  0  0  0
 18 17  1  0  0  0  0
 19  5  1  0  0  0  0
 19 20  1  0  0  0  0
 20 21  1  0  0  0  0
 20 22  1  0  0  0  0
 22 23  1  0  0  0  0
 23 24  2  0  0  0  0
 25 24  1  0  0  0  0
 26 25  2  0  0  0  0
 27 26  1  0  0  0  0
 27 32  1  0  0  0  0
 28 27  2  0  0  0  0
 29 30  2  0  0  0  0
 29 28  1  0  0  0  0
 30 31  1  0  0  0  0
 31 22  2  0  0  0  0
 31 26  1  0  0  0  0
 32 33  1  0  0  0  0
 33 36  1  0  0  0  0
 33 35  1  0  0  0  0
 34 32  2  0  0  0  0
M  END
>  <minimizedAffinity>
-7.78302431

$$$$
