
 OpenBabel10152420003D

 36 39  0  0  0  0  0  0  0  0999 V2000
   -0.2110   -4.9800  -26.0610 C   0  0  0  0  0  0  0  0  0  0  0  0
   -0.3980   -3.6470  -26.4290 C   0  0  0  0  0  3  0  0  0  0  0  0
    0.2140   -3.1470  -27.5780 C   0  0  0  0  0  3  0  0  0  0  0  0
    0.9950   -3.9840  -28.3790 C   0  0  0  0  0  3  0  0  0  0  0  0
    1.1490   -5.3440  -28.0700 C   0  0  0  0  0  0  0  0  0  0  0  0
    0.5340   -5.8240  -26.9060 C   0  0  0  0  0  3  0  0  0  0  0  0
   -1.5170   -9.1050  -24.5040 C   0  0  0  0  0  0  0  0  0  0  0  0
   -2.1430   -8.3640  -23.5260 C   0  0  0  0  0  3  0  0  0  0  0  0
   -1.8660   -7.0070  -23.5330 N   0  0  0  0  0  0  0  0  0  0  0  0
   -1.0930   -6.7030  -24.5550 C   0  0  0  0  0  0  0  0  0  0  0  0
   -0.6940   -5.4370  -24.8250 N   0  0  0  0  0  0  0  0  0  0  0  0
   -0.5580   -8.0770  -25.4660 S   0  0  0  0  0  0  0  0  0  0  0  0
   -0.7710   -4.7470  -24.0890 H   0  0  0  0  0  0  0  0  0  0  0  0
   -1.5760  -10.5090  -24.8060 C   0  0  0  0  0  0  0  0  0  0  0  0
   -1.8810  -11.0020  -25.8850 O   0  0  0  0  0  0  0  0  0  0  0  0
   -1.3030  -11.2280  -23.6800 O   0  0  0  0  0  0  0  0  0  0  0  0
    0.8300  -12.2760  -23.1090 C   0  0  0  0  0  1  0  0  0  0  0  0
   -0.4810  -12.3890  -23.8740 C   0  0  0  0  0  2  0  0  0  0  0  0
    2.0260   -6.2680  -28.9020 C   0  0  0  0  0  2  0  0  0  0  0  0
    3.3740   -6.3770  -28.3620 N   0  0  0  0  0  0  0  0  0  0  0  0
    3.6770   -5.6550  -27.7280 H   0  0  0  0  0  0  0  0  0  0  0  0
    3.9300   -7.6490  -28.2710 C   0  0  0  0  0  0  0  0  0  0  0  0
    4.5740   -8.1060  -29.3600 N   0  0  0  0  0  0  0  0  0  0  0  0
    4.7210   -9.4230  -29.4630 C   0  0  0  0  0  3  0  0  0  0  0  0
    4.1770  -10.3180  -28.6410 N   0  0  0  0  0  0  0  0  0  0  0  0
    3.5980   -9.8530  -27.5180 C   0  0  0  0  0  0  0  0  0  0  0  0
    2.9140  -10.6970  -26.6430 C   0  0  0  0  0  0  0  0  0  0  0  0
    2.4540  -10.2970  -25.3800 C   0  0  0  0  0  3  0  0  0  0  0  0
    2.5950   -8.9720  -25.0050 C   0  0  0  0  0  3  0  0  0  0  0  0
    3.0920   -8.0620  -25.9360 C   0  0  0  0  0  3  0  0  0  0  0  0
    3.5680   -8.4920  -27.2060 C   0  0  0  0  0  0  0  0  0  0  0  0
    2.3470  -11.9490  -27.1780 C   0  0  0  0  0  0  0  0  0  0  0  0
    0.9910  -12.0550  -26.9970 N   0  0  0  0  0  0  0  0  0  0  0  0
    3.0360  -12.8500  -27.6260 O   0  0  0  0  0  0  0  0  0  0  0  0
    0.5210  -12.8950  -27.3020 H   0  0  0  0  0  0  0  0  0  0  0  0
    0.4410  -11.3180  -26.5750 H   0  0  0  0  0  0  0  0  0  0  0  0
  1 11  1  0  0  0  0
  2  1  1  0  0  0  0
  3  2  2  0  0  0  0
  4  5  2  0  0  0  0
  4  3  1  0  0  0  0
  5  6  1  0  0  0  0
  6  1  2  0  0  0  0
  7  8  2  0  0  0  0
  9  8  1  0  0  0  0
 10  9  2  0  0  0  0
 11 10  1  0  0  0  0
 11 13  1  0  0  0  0
 12 10  1  0  0  0  0
 12  7  1  0  0  0  0
 14  7  1  0  0  0  0
 14 16  1  0  0  0  0
 15 14  2  0  0  0  0
 18 16  1  0  0  0  0
 18 17  1  0  0  0  0
 19 20  1  0  0  0  0
 19  5  1  0  0  0  0
 20 22  1  0  0  0  0
 20 21  1  0  0  0  0
 22 31  1  0  0  0  0
 23 22  2  0  0  0  0
 24 23  1  0  0  0  0
 24 25  2  0  0  0  0
 25 26  1  0  0  0  0
 26 31  2  0  0  0  0
 26 27  1  0  0  0  0
 27 28  2  0  0  0  0
 28 29  1  0  0  0  0
 30 29  2  0  0  0  0
 31 30  1  0  0  0  0
 32 33  1  0  0  0  0
 32 27  1  0  0  0  0
 33 36  1  0  0  0  0
 34 32  2  0  0  0  0
 35 33  1  0  0  0  0
M  END
>  <minimizedAffinity>
-8.19468307

$$$$
