
 OpenBabel10152420003D

 36 39  0  0  0  0  0  0  0  0999 V2000
    1.2280   -5.0720  -27.9890 C   0  0  0  0  0  0  0  0  0  0  0  0
    1.0140   -3.6950  -28.0680 C   0  0  0  0  0  3  0  0  0  0  0  0
    0.0180   -3.0980  -27.2980 C   0  0  0  0  0  3  0  0  0  0  0  0
   -0.7530   -3.8700  -26.4240 C   0  0  0  0  0  3  0  0  0  0  0  0
   -0.5200   -5.2450  -26.2760 C   0  0  0  0  0  0  0  0  0  0  0  0
    0.4800   -5.8280  -27.0670 C   0  0  0  0  0  3  0  0  0  0  0  0
    3.7500   -8.9110  -27.7810 C   0  0  0  0  0  0  0  0  0  0  0  0
    4.4520   -8.3200  -28.8080 C   0  0  0  0  0  3  0  0  0  0  0  0
    3.9040   -7.1510  -29.3130 N   0  0  0  0  0  0  0  0  0  0  0  0
    2.8330   -6.8140  -28.6250 C   0  0  0  0  0  0  0  0  0  0  0  0
    2.1180   -5.6920  -28.8800 N   0  0  0  0  0  0  0  0  0  0  0  0
    2.3690   -7.9780  -27.4280 S   0  0  0  0  0  0  0  0  0  0  0  0
    2.2490   -5.2380  -29.7740 H   0  0  0  0  0  0  0  0  0  0  0  0
    4.0180  -10.1000  -27.0190 C   0  0  0  0  0  0  0  0  0  0  0  0
    4.7220  -11.0390  -27.3700 O   0  0  0  0  0  0  0  0  0  0  0  0
    3.3090  -10.0620  -25.8540 O   0  0  0  0  0  0  0  0  0  0  0  0
    2.2290  -12.0520  -26.7730 C   0  0  0  0  0  1  0  0  0  0  0  0
    2.6010  -11.2670  -25.5240 C   0  0  0  0  0  2  0  0  0  0  0  0
   -1.3700   -6.1160  -25.3630 C   0  0  0  0  0  2  0  0  0  0  0  0
   -0.5570   -6.9510  -24.4900 N   0  0  0  0  0  0  0  0  0  0  0  0
    0.3270   -6.5760  -24.1850 H   0  0  0  0  0  0  0  0  0  0  0  0
   -1.2140   -7.8890  -23.7000 C   0  0  0  0  0  0  0  0  0  0  0  0
   -1.5080   -7.5180  -22.4410 N   0  0  0  0  0  0  0  0  0  0  0  0
   -1.7200   -8.4910  -21.5610 C   0  0  0  0  0  3  0  0  0  0  0  0
   -1.5430   -9.7890  -21.8020 N   0  0  0  0  0  0  0  0  0  0  0  0
   -1.3200  -10.1550  -23.0790 C   0  0  0  0  0  0  0  0  0  0  0  0
   -1.0240  -11.4750  -23.4200 C   0  0  0  0  0  0  0  0  0  0  0  0
   -0.9640  -11.9380  -24.7420 C   0  0  0  0  0  3  0  0  0  0  0  0
   -1.1100  -11.0310  -25.7770 C   0  0  0  0  0  3  0  0  0  0  0  0
   -1.2060   -9.6760  -25.4710 C   0  0  0  0  0  3  0  0  0  0  0  0
   -1.2820   -9.2280  -24.1210 C   0  0  0  0  0  0  0  0  0  0  0  0
   -0.4180  -12.3450  -22.3950 C   0  0  0  0  0  0  0  0  0  0  0  0
    0.7570  -12.9280  -22.7990 N   0  0  0  0  0  0  0  0  0  0  0  0
   -0.9720  -12.6120  -21.3410 O   0  0  0  0  0  0  0  0  0  0  0  0
    1.2260  -13.5670  -22.1730 H   0  0  0  0  0  0  0  0  0  0  0  0
    1.1760  -12.7350  -23.6990 H   0  0  0  0  0  0  0  0  0  0  0  0
  1  6  1  0  0  0  0
  2  1  2  0  0  0  0
  2  3  1  0  0  0  0
  3  4  2  0  0  0  0
  4  5  1  0  0  0  0
  5 19  1  0  0  0  0
  6  5  2  0  0  0  0
  7 12  1  0  0  0  0
  7 14  1  0  0  0  0
  8  7  2  0  0  0  0
  9  8  1  0  0  0  0
  9 10  2  0  0  0  0
 10 12  1  0  0  0  0
 11 10  1  0  0  0  0
 11  1  1  0  0  0  0
 13 11  1  0  0  0  0
 14 16  1  0  0  0  0
 15 14  2  0  0  0  0
 16 18  1  0  0  0  0
 17 18  1  0  0  0  0
 19 20  1  0  0  0  0
 20 21  1  0  0  0  0
 20 22  1  0  0  0  0
 22 23  1  0  0  0  0
 23 24  2  0  0  0  0
 25 24  1  0  0  0  0
 26 25  2  0  0  0  0
 27 26  1  0  0  0  0
 27 32  1  0  0  0  0
 28 27  2  0  0  0  0
 29 30  2  0  0  0  0
 29 28  1  0  0  0  0
 30 31  1  0  0  0  0
 31 22  2  0  0  0  0
 31 26  1  0  0  0  0
 32 34  2  0  0  0  0
 33 32  1  0  0  0  0
 33 35  1  0  0  0  0
 36 33  1  0  0  0  0
M  END
>  <minimizedAffinity>
-7.37148142

$$$$
