
 OpenBabel10152420003D

 36 39  0  0  0  0  0  0  0  0999 V2000
    1.4230  -12.1030  -24.1410 C   0  0  0  0  0  0  0  0  0  0  0  0
    2.5670  -12.8670  -24.3720 C   0  0  0  0  0  3  0  0  0  0  0  0
    3.5260  -12.4300  -25.2850 C   0  0  0  0  0  3  0  0  0  0  0  0
    3.3590  -11.2130  -25.9510 C   0  0  0  0  0  3  0  0  0  0  0  0
    2.2510  -10.3920  -25.6920 C   0  0  0  0  0  0  0  0  0  0  0  0
    1.2930  -10.8550  -24.7790 C   0  0  0  0  0  3  0  0  0  0  0  0
   -1.6850  -10.1800  -21.3490 C   0  0  0  0  0  0  0  0  0  0  0  0
   -1.7940  -11.4580  -20.8470 C   0  0  0  0  0  3  0  0  0  0  0  0
   -1.1020  -12.4360  -21.5420 N   0  0  0  0  0  0  0  0  0  0  0  0
   -0.4110  -11.8960  -22.5240 C   0  0  0  0  0  0  0  0  0  0  0  0
    0.3870  -12.6190  -23.3460 N   0  0  0  0  0  0  0  0  0  0  0  0
   -0.6840  -10.1980  -22.7280 S   0  0  0  0  0  0  0  0  0  0  0  0
    0.2530  -13.6220  -23.3780 H   0  0  0  0  0  0  0  0  0  0  0  0
   -2.2420   -8.9360  -20.8920 C   0  0  0  0  0  0  0  0  0  0  0  0
   -1.7670   -8.2090  -20.0290 O   0  0  0  0  0  0  0  0  0  0  0  0
   -3.4300   -8.7110  -21.5220 O   0  0  0  0  0  0  0  0  0  0  0  0
   -4.7260   -7.5710  -23.2520 C   0  0  0  0  0  1  0  0  0  0  0  0
   -3.3460   -7.9690  -22.7490 C   0  0  0  0  0  2  0  0  0  0  0  0
    2.0230   -9.0830  -26.4320 C   0  0  0  0  0  2  0  0  0  0  0  0
    0.7000   -8.5320  -26.1770 N   0  0  0  0  0  0  0  0  0  0  0  0
   -0.0600   -9.1850  -26.0760 H   0  0  0  0  0  0  0  0  0  0  0  0
    0.6280   -7.2930  -25.5470 C   0  0  0  0  0  0  0  0  0  0  0  0
    0.1560   -7.2820  -24.2880 N   0  0  0  0  0  0  0  0  0  0  0  0
   -0.3260   -6.1290  -23.8360 C   0  0  0  0  0  3  0  0  0  0  0  0
   -0.4890   -5.0300  -24.5700 N   0  0  0  0  0  0  0  0  0  0  0  0
    0.0510   -5.0270  -25.8050 C   0  0  0  0  0  0  0  0  0  0  0  0
   -0.1490   -3.9660  -26.6880 C   0  0  0  0  0  0  0  0  0  0  0  0
    0.5340   -3.8320  -27.9050 C   0  0  0  0  0  3  0  0  0  0  0  0
    1.3840   -4.8460  -28.3110 C   0  0  0  0  0  3  0  0  0  0  0  0
    1.4510   -6.0090  -27.5480 C   0  0  0  0  0  3  0  0  0  0  0  0
    0.7630   -6.1180  -26.3070 C   0  0  0  0  0  0  0  0  0  0  0  0
   -1.3520   -3.1310  -26.5190 C   0  0  0  0  0  0  0  0  0  0  0  0
   -1.1750   -2.0920  -25.6400 N   0  0  0  0  0  0  0  0  0  0  0  0
   -2.4290   -3.4110  -27.0180 O   0  0  0  0  0  0  0  0  0  0  0  0
   -1.9570   -1.4850  -25.4350 H   0  0  0  0  0  0  0  0  0  0  0  0
   -0.2870   -1.9040  -25.1930 H   0  0  0  0  0  0  0  0  0  0  0  0
  1 11  1  0  0  0  0
  2  1  1  0  0  0  0
  3  2  2  0  0  0  0
  4  5  2  0  0  0  0
  4  3  1  0  0  0  0
  5  6  1  0  0  0  0
  6  1  2  0  0  0  0
  7 14  1  0  0  0  0
  7  8  2  0  0  0  0
  9  8  1  0  0  0  0
 10  9  2  0  0  0  0
 11 10  1  0  0  0  0
 12 10  1  0  0  0  0
 12  7  1  0  0  0  0
 13 11  1  0  0  0  0
 14 15  2  0  0  0  0
 16 14  1  0  0  0  0
 17 18  1  0  0  0  0
 18 16  1  0  0  0  0
 19 20  1  0  0  0  0
 19  5  1  0  0  0  0
 20 21  1  0  0  0  0
 20 22  1  0  0  0  0
 22 23  1  0  0  0  0
 23 24  2  0  0  0  0
 25 24  1  0  0  0  0
 26 25  2  0  0  0  0
 27 32  1  0  0  0  0
 27 26  1  0  0  0  0
 28 27  2  0  0  0  0
 29 28  1  0  0  0  0
 29 30  2  0  0  0  0
 30 31  1  0  0  0  0
 31 26  1  0  0  0  0
 31 22  2  0  0  0  0
 32 33  1  0  0  0  0
 33 35  1  0  0  0  0
 33 36  1  0  0  0  0
 34 32  2  0  0  0  0
M  END
>  <minimizedAffinity>
-7.78772354

$$$$
