
 OpenBabel10152420003D

 36 39  0  0  0  0  0  0  0  0999 V2000
    4.2310  -11.5160  -28.6410 C   0  0  0  0  0  0  0  0  0  0  0  0
    3.9220  -12.0020  -29.9120 C   0  0  0  0  0  3  0  0  0  0  0  0
    3.7740  -11.1200  -30.9810 C   0  0  0  0  0  3  0  0  0  0  0  0
    3.9600   -9.7480  -30.7900 C   0  0  0  0  0  3  0  0  0  0  0  0
    4.3330   -9.2350  -29.5390 C   0  0  0  0  0  0  0  0  0  0  0  0
    4.4660  -10.1390  -28.4750 C   0  0  0  0  0  3  0  0  0  0  0  0
    1.3050  -12.1760  -25.1550 C   0  0  0  0  0  0  0  0  0  0  0  0
    2.3870  -12.7930  -24.5690 C   0  0  0  0  0  3  0  0  0  0  0  0
    3.4970  -12.9580  -25.3820 N   0  0  0  0  0  0  0  0  0  0  0  0
    3.2870  -12.4040  -26.5580 C   0  0  0  0  0  0  0  0  0  0  0  0
    4.2210  -12.3860  -27.5400 N   0  0  0  0  0  0  0  0  0  0  0  0
    1.6830  -11.7840  -26.7700 S   0  0  0  0  0  0  0  0  0  0  0  0
    4.9970  -13.0320  -27.4700 H   0  0  0  0  0  0  0  0  0  0  0  0
    0.0140  -11.8310  -24.6250 C   0  0  0  0  0  0  0  0  0  0  0  0
   -1.0260  -11.7370  -25.2640 O   0  0  0  0  0  0  0  0  0  0  0  0
    0.1290  -11.5550  -23.2940 O   0  0  0  0  0  0  0  0  0  0  0  0
   -1.2420   -9.7780  -22.3270 C   0  0  0  0  0  1  0  0  0  0  0  0
   -1.1030  -11.2660  -22.6160 C   0  0  0  0  0  2  0  0  0  0  0  0
    4.5020   -7.7430  -29.2930 C   0  0  0  0  0  2  0  0  0  0  0  0
    3.2330   -7.0880  -29.0110 N   0  0  0  0  0  0  0  0  0  0  0  0
    2.5500   -7.0670  -29.7500 H   0  0  0  0  0  0  0  0  0  0  0  0
    2.8120   -7.0430  -27.6860 C   0  0  0  0  0  0  0  0  0  0  0  0
    3.4060   -7.8980  -26.8340 N   0  0  0  0  0  0  0  0  0  0  0  0
    2.7500   -8.1860  -25.7150 C   0  0  0  0  0  3  0  0  0  0  0  0
    1.5090   -7.7930  -25.4350 N   0  0  0  0  0  0  0  0  0  0  0  0
    0.9500   -6.8820  -26.2560 C   0  0  0  0  0  0  0  0  0  0  0  0
   -0.3780   -6.4810  -26.1080 C   0  0  0  0  0  0  0  0  0  0  0  0
   -0.9470   -5.4120  -26.8150 C   0  0  0  0  0  3  0  0  0  0  0  0
   -0.1940   -4.7720  -27.7830 C   0  0  0  0  0  3  0  0  0  0  0  0
    1.0660   -5.2780  -28.0940 C   0  0  0  0  0  3  0  0  0  0  0  0
    1.6330   -6.3530  -27.3530 C   0  0  0  0  0  0  0  0  0  0  0  0
   -1.3190   -7.4050  -25.4510 C   0  0  0  0  0  0  0  0  0  0  0  0
   -1.2750   -8.6800  -25.9570 N   0  0  0  0  0  0  0  0  0  0  0  0
   -2.1390   -7.0400  -24.6240 O   0  0  0  0  0  0  0  0  0  0  0  0
   -1.9100   -9.3750  -25.5890 H   0  0  0  0  0  0  0  0  0  0  0  0
   -0.6230   -8.9530  -26.6810 H   0  0  0  0  0  0  0  0  0  0  0  0
  1  6  1  0  0  0  0
  1 11  1  0  0  0  0
  2  1  2  0  0  0  0
  3  4  2  0  0  0  0
  3  2  1  0  0  0  0
  4  5  1  0  0  0  0
  5 19  1  0  0  0  0
  5  6  2  0  0  0  0
  7 14  1  0  0  0  0
  7  8  2  0  0  0  0
  9  8  1  0  0  0  0
 10  9  2  0  0  0  0
 11 13  1  0  0  0  0
 11 10  1  0  0  0  0
 12 10  1  0  0  0  0
 12  7  1  0  0  0  0
 14 16  1  0  0  0  0
 15 14  2  0  0  0  0
 16 18  1  0  0  0  0
 18 17  1  0  0  0  0
 19 20  1  0  0  0  0
 20 22  1  0  0  0  0
 21 20  1  0  0  0  0
 22 31  2  0  0  0  0
 22 23  1  0  0  0  0
 23 24  2  0  0  0  0
 24 25  1  0  0  0  0
 26 27  1  0  0  0  0
 26 25  2  0  0  0  0
 27 32  1  0  0  0  0
 28 27  2  0  0  0  0
 29 28  1  0  0  0  0
 30 29  2  0  0  0  0
 30 31  1  0  0  0  0
 31 26  1  0  0  0  0
 32 34  2  0  0  0  0
 33 35  1  0  0  0  0
 33 32  1  0  0  0  0
 36 33  1  0  0  0  0
M  END
>  <minimizedAffinity>
-8.5319643

$$$$
