
 OpenBabel11232419363D

 40 45  0  0  1  0  0  0  0  0999 V2000
   64.5590  -41.6200   16.9870 C   0  0  0  0  0  0  0  0  0  0  0  0
   64.7530  -40.5900   16.0730 C   0  0  0  0  0  3  0  0  0  0  0  0
   63.8460  -39.6220   15.8200 N   0  0  0  0  0  0  0  0  0  0  0  0
   62.6770  -39.6800   16.4970 C   0  0  0  0  0  3  0  0  0  0  0  0
   62.3740  -40.6590   17.4370 C   0  0  0  0  0  0  0  0  0  0  0  0
   63.3430  -41.6490   17.6700 C   0  0  0  0  0  3  0  0  0  0  0  0
   61.1170  -40.6570   18.1860 C   0  0  0  0  0  0  0  0  0  0  0  0
   61.0810  -40.1440   19.5080 C   0  0  0  0  0  3  0  0  0  0  0  0
   59.9080  -40.1630   20.2670 C   0  0  0  0  0  3  0  0  0  0  0  0
   58.7840  -40.6970   19.6790 C   0  0  0  0  0  0  0  0  0  0  0  0
   58.7870  -41.2060   18.3820 C   0  0  0  0  0  0  0  0  0  0  0  0
   59.9440  -41.1850   17.6190 C   0  0  0  0  0  3  0  0  0  0  0  0
   57.3980  -41.6900   18.0300 C   0  0  2  0  0  3  0  0  0  0  0  0
   56.6250  -41.3840   19.3360 C   0  0  0  0  0  0  0  0  0  0  0  0
   55.4420  -41.5800   19.5670 O   0  0  0  0  0  0  0  0  0  0  0  0
   57.5210  -40.8070   20.2320 N   0  0  0  0  0  0  0  0  0  0  0  0
   57.2440  -40.5140   21.1570 H   0  0  0  0  0  0  0  0  0  0  0  0
   57.2600  -43.1370   17.6990 C   0  0  0  0  0  0  0  0  0  0  0  0
   57.8760  -44.2660   18.2050 C   0  0  0  0  0  3  0  0  0  0  0  0
   57.3260  -45.3730   17.5190 C   0  0  0  0  0  3  0  0  0  0  0  0
   56.4040  -44.8570   16.6400 C   0  0  0  0  0  3  0  0  0  0  0  0
   56.3530  -43.5040   16.7420 O   0  0  0  0  0  0  0  0  0  0  0  0
   65.6190  -42.4630   17.1850 O   0  0  0  0  0  0  0  0  0  0  0  0
   65.4440  -43.8480   16.8620 C   0  0  0  0  0  2  0  0  0  0  0  0
   65.4180  -44.0660   15.3300 C   0  0  1  0  0  3  0  0  0  0  0  0
   66.4810  -45.0510   14.9240 N   0  0  0  0  0  4  0  0  0  0  0  0
   66.2690  -46.0130   15.2120 H   0  0  0  0  0  0  0  0  0  0  0  0
   67.3670  -44.7970   15.3910 H   0  0  0  0  0  0  0  0  0  0  0  0
   66.6510  -45.0420   13.9100 H   0  0  0  0  0  0  0  0  0  0  0  0
   64.0500  -44.5530   14.8260 C   0  0  0  0  0  2  0  0  0  0  0  0
   63.2390  -43.4650   14.2050 C   0  0  0  0  0  0  0  0  0  0  0  0
   63.6980  -42.4300   13.4120 C   0  0  0  0  0  3  0  0  0  0  0  0
   62.6250  -41.6530   13.0510 N   0  0  0  0  0  0  0  0  0  0  0  0
   61.4720  -42.1510   13.6070 C   0  0  0  0  0  0  0  0  0  0  0  0
   60.1590  -41.6780   13.5210 C   0  0  0  0  0  3  0  0  0  0  0  0
   59.1710  -42.3740   14.2210 C   0  0  0  0  0  3  0  0  0  0  0  0
   59.4860  -43.5010   14.9750 C   0  0  0  0  0  3  0  0  0  0  0  0
   60.8050  -43.9650   15.0440 C   0  0  0  0  0  3  0  0  0  0  0  0
   61.8230  -43.2810   14.3460 C   0  0  0  0  0  0  0  0  0  0  0  0
   62.6670  -40.8200   12.4770 H   0  0  0  0  0  0  0  0  0  0  0  0
  1 23  1  0  0  0  0
  1  6  1  0  0  0  0
  2  1  2  0  0  0  0
  3  2  1  0  0  0  0
  3  4  2  0  0  0  0
  4  5  1  0  0  0  0
  5  6  2  0  0  0  0
  5  7  1  0  0  0  0
  7  8  1  0  0  0  0
  8  9  2  0  0  0  0
 10 16  1  0  0  0  0
 10  9  1  0  0  0  0
 11 10  2  0  0  0  0
 12  7  2  0  0  0  0
 12 11  1  0  0  0  0
 13 18  1  1  0  0  0
 13 11  1  0  0  0  0
 13 14  1  0  0  0  0
 14 15  2  0  0  0  0
 14 16  1  0  0  0  0
 16 17  1  0  0  0  0
 18 19  2  0  0  0  0
 20 19  1  0  0  0  0
 21 22  1  0  0  0  0
 21 20  2  0  0  0  0
 22 18  1  0  0  0  0
 24 23  1  0  0  0  0
 25 30  1  1  0  0  0
 25 24  1  0  0  0  0
 26 27  1  0  0  0  0
 26 25  1  0  0  0  0
 26 28  1  0  0  0  0
 29 26  1  0  0  0  0
 31 39  1  0  0  0  0
 31 30  1  0  0  0  0
 32 31  2  0  0  0  0
 33 32  1  0  0  0  0
 33 34  1  0  0  0  0
 34 39  1  0  0  0  0
 35 34  2  0  0  0  0
 35 36  1  0  0  0  0
 36 37  2  0  0  0  0
 37 38  1  0  0  0  0
 39 38  2  0  0  0  0
 40 33  1  0  0  0  0
M  END
>  <minimizedAffinity>
-5.56974649

$$$$
