
 OpenBabel11232419363D

 40 45  0  0  1  0  0  0  0  0999 V2000
   56.3690  -42.6180   14.2080 C   0  0  0  0  0  0  0  0  0  0  0  0
   55.8830  -43.9200   14.1680 C   0  0  0  0  0  3  0  0  0  0  0  0
   56.5160  -44.9810   14.7160 N   0  0  0  0  0  0  0  0  0  0  0  0
   57.7010  -44.7450   15.3240 C   0  0  0  0  0  3  0  0  0  0  0  0
   58.2800  -43.4860   15.4290 C   0  0  0  0  0  0  0  0  0  0  0  0
   57.5920  -42.4100   14.8450 C   0  0  0  0  0  3  0  0  0  0  0  0
   59.5400  -43.2660   16.1420 C   0  0  0  0  0  0  0  0  0  0  0  0
   60.4180  -44.3540   16.3790 C   0  0  0  0  0  3  0  0  0  0  0  0
   61.6090  -44.1900   17.0920 C   0  0  0  0  0  3  0  0  0  0  0  0
   61.8980  -42.9260   17.5530 C   0  0  0  0  0  0  0  0  0  0  0  0
   61.0570  -41.8370   17.3340 C   0  0  0  0  0  0  0  0  0  0  0  0
   59.8770  -41.9900   16.6220 C   0  0  0  0  0  3  0  0  0  0  0  0
   61.6730  -40.5970   17.9430 C   0  0  2  0  0  3  0  0  0  0  0  0
   62.9800  -41.1670   18.5460 C   0  0  0  0  0  0  0  0  0  0  0  0
   63.8510  -40.5590   19.1480 O   0  0  0  0  0  0  0  0  0  0  0  0
   63.0170  -42.5290   18.2640 N   0  0  0  0  0  0  0  0  0  0  0  0
   63.7830  -43.1190   18.5540 H   0  0  0  0  0  0  0  0  0  0  0  0
   60.8860  -39.9190   19.0130 C   0  0  0  0  0  0  0  0  0  0  0  0
   60.2040  -38.7170   19.0420 C   0  0  0  0  0  3  0  0  0  0  0  0
   59.6220  -38.6090   20.3260 C   0  0  0  0  0  3  0  0  0  0  0  0
   59.9770  -39.7510   21.0020 C   0  0  0  0  0  3  0  0  0  0  0  0
   60.7390  -40.5540   20.2170 O   0  0  0  0  0  0  0  0  0  0  0  0
   55.5560  -41.6510   13.6820 O   0  0  0  0  0  0  0  0  0  0  0  0
   54.2160  -41.5560   14.1830 C   0  0  0  0  0  2  0  0  0  0  0  0
   54.1690  -40.7540   15.5060 C   0  0  1  0  0  3  0  0  0  0  0  0
   53.4750  -39.4350   15.2930 N   0  0  0  0  0  4  0  0  0  0  0  0
   52.4630  -39.5320   15.1440 H   0  0  0  0  0  0  0  0  0  0  0  0
   53.8520  -38.9930   14.4380 H   0  0  0  0  0  0  0  0  0  0  0  0
   53.6310  -38.7840   16.0730 H   0  0  0  0  0  0  0  0  0  0  0  0
   53.4700  -41.5220   16.6380 C   0  0  0  0  0  2  0  0  0  0  0  0
   54.3270  -42.5930   17.2280 C   0  0  0  0  0  0  0  0  0  0  0  0
   54.1050  -43.9560   17.1910 C   0  0  0  0  0  3  0  0  0  0  0  0
   55.1330  -44.5810   17.8520 N   0  0  0  0  0  0  0  0  0  0  0  0
   56.0170  -43.6490   18.3380 C   0  0  0  0  0  0  0  0  0  0  0  0
   57.1910  -43.8280   19.0790 C   0  0  0  0  0  3  0  0  0  0  0  0
   57.8920  -42.6850   19.4710 C   0  0  0  0  0  3  0  0  0  0  0  0
   57.4370  -41.4140   19.1310 C   0  0  0  0  0  3  0  0  0  0  0  0
   56.2650  -41.2530   18.3830 C   0  0  0  0  0  3  0  0  0  0  0  0
   55.5370  -42.3910   17.9730 C   0  0  0  0  0  0  0  0  0  0  0  0
   55.2260  -45.5800   17.9890 H   0  0  0  0  0  0  0  0  0  0  0  0
  1  6  1  0  0  0  0
  2  1  2  0  0  0  0
  2  3  1  0  0  0  0
  3  4  2  0  0  0  0
  4  5  1  0  0  0  0
  5  7  1  0  0  0  0
  6  5  2  0  0  0  0
  7  8  2  0  0  0  0
  7 12  1  0  0  0  0
  8  9  1  0  0  0  0
  9 10  2  0  0  0  0
 10 16  1  0  0  0  0
 11 10  1  0  0  0  0
 11 13  1  0  0  0  0
 12 11  2  0  0  0  0
 13 14  1  0  0  0  0
 13 18  1  1  0  0  0
 14 15  2  0  0  0  0
 16 14  1  0  0  0  0
 16 17  1  0  0  0  0
 18 19  2  0  0  0  0
 18 22  1  0  0  0  0
 19 20  1  0  0  0  0
 20 21  2  0  0  0  0
 22 21  1  0  0  0  0
 23 24  1  0  0  0  0
 23  1  1  0  0  0  0
 25 24  1  6  0  0  0
 25 30  1  0  0  0  0
 26 25  1  0  0  0  0
 26 29  1  0  0  0  0
 27 26  1  0  0  0  0
 28 26  1  0  0  0  0
 30 31  1  0  0  0  0
 31 39  1  0  0  0  0
 32 31  2  0  0  0  0
 32 33  1  0  0  0  0
 33 40  1  0  0  0  0
 33 34  1  0  0  0  0
 34 35  1  0  0  0  0
 35 36  2  0  0  0  0
 37 36  1  0  0  0  0
 38 37  2  0  0  0  0
 39 34  2  0  0  0  0
 39 38  1  0  0  0  0
M  END
>  <minimizedAffinity>
-5.60048676

$$$$
