
 OpenBabel11232419363D

 40 45  0  0  1  0  0  0  0  0999 V2000
   62.6390  -40.0000   18.9180 C   0  0  0  0  0  0  0  0  0  0  0  0
   62.5590  -38.6230   19.0890 C   0  0  0  0  0  3  0  0  0  0  0  0
   61.4080  -37.9180   19.0290 N   0  0  0  0  0  0  0  0  0  0  0  0
   60.2740  -38.6100   18.7720 C   0  0  0  0  0  3  0  0  0  0  0  0
   60.2330  -39.9880   18.5890 C   0  0  0  0  0  0  0  0  0  0  0  0
   61.4520  -40.6830   18.6570 C   0  0  0  0  0  3  0  0  0  0  0  0
   58.9770  -40.7050   18.3650 C   0  0  0  0  0  0  0  0  0  0  0  0
   58.9980  -42.0270   17.8510 C   0  0  0  0  0  3  0  0  0  0  0  0
   57.8180  -42.7280   17.5870 C   0  0  0  0  0  3  0  0  0  0  0  0
   56.6310  -42.0830   17.8480 C   0  0  0  0  0  0  0  0  0  0  0  0
   56.5760  -40.7860   18.3550 C   0  0  0  0  0  0  0  0  0  0  0  0
   57.7420  -40.0870   18.6270 C   0  0  0  0  0  3  0  0  0  0  0  0
   55.1320  -40.3850   18.5520 C   0  0  2  0  0  3  0  0  0  0  0  0
   54.3900  -41.6530   18.0640 C   0  0  0  0  0  0  0  0  0  0  0  0
   53.1850  -41.8460   18.0300 O   0  0  0  0  0  0  0  0  0  0  0  0
   55.3520  -42.5820   17.6770 N   0  0  0  0  0  0  0  0  0  0  0  0
   55.1070  -43.4960   17.3260 H   0  0  0  0  0  0  0  0  0  0  0  0
   54.6580  -39.2020   17.7770 C   0  0  0  0  0  0  0  0  0  0  0  0
   54.6090  -37.8550   18.0800 C   0  0  0  0  0  3  0  0  0  0  0  0
   54.0800  -37.2000   16.9430 C   0  0  0  0  0  3  0  0  0  0  0  0
   53.8440  -38.1830   16.0140 C   0  0  0  0  0  3  0  0  0  0  0  0
   54.1920  -39.4000   16.5050 O   0  0  0  0  0  0  0  0  0  0  0  0
   63.8730  -40.5630   19.1010 O   0  0  0  0  0  0  0  0  0  0  0  0
   64.0380  -41.9440   18.7550 C   0  0  0  0  0  2  0  0  0  0  0  0
   64.7980  -42.0990   17.4160 C   0  0  1  0  0  3  0  0  0  0  0  0
   66.1820  -42.6390   17.6590 N   0  0  0  0  0  4  0  0  0  0  0  0
   66.1840  -43.6260   17.9430 H   0  0  0  0  0  0  0  0  0  0  0  0
   66.6140  -42.1130   18.4370 H   0  0  0  0  0  0  0  0  0  0  0  0
   66.7900  -42.5330   16.8370 H   0  0  0  0  0  0  0  0  0  0  0  0
   64.0620  -43.0080   16.4200 C   0  0  0  0  0  2  0  0  0  0  0  0
   62.9760  -42.2980   15.6800 C   0  0  0  0  0  0  0  0  0  0  0  0
   62.9690  -40.9780   15.2720 C   0  0  0  0  0  3  0  0  0  0  0  0
   61.7840  -40.7310   14.6240 N   0  0  0  0  0  0  0  0  0  0  0  0
   61.0060  -41.8630   14.6160 C   0  0  0  0  0  0  0  0  0  0  0  0
   59.7270  -42.0680   14.0860 C   0  0  0  0  0  3  0  0  0  0  0  0
   59.1530  -43.3310   14.2470 C   0  0  0  0  0  3  0  0  0  0  0  0
   59.8330  -44.3480   14.9100 C   0  0  0  0  0  3  0  0  0  0  0  0
   61.1150  -44.1280   15.4280 C   0  0  0  0  0  3  0  0  0  0  0  0
   61.7190  -42.8610   15.2790 C   0  0  0  0  0  0  0  0  0  0  0  0
   61.5020  -39.8440   14.2270 H   0  0  0  0  0  0  0  0  0  0  0  0
  1  2  1  0  0  0  0
  1 23  1  0  0  0  0
  3  2  2  0  0  0  0
  4  3  1  0  0  0  0
  5  6  1  0  0  0  0
  5  4  2  0  0  0  0
  6  1  2  0  0  0  0
  7  5  1  0  0  0  0
  7 12  1  0  0  0  0
  8  7  2  0  0  0  0
  9 10  2  0  0  0  0
  9  8  1  0  0  0  0
 10 11  1  0  0  0  0
 11 13  1  0  0  0  0
 11 12  2  0  0  0  0
 13 18  1  6  0  0  0
 14 13  1  0  0  0  0
 15 14  2  0  0  0  0
 16 10  1  0  0  0  0
 16 14  1  0  0  0  0
 17 16  1  0  0  0  0
 18 19  2  0  0  0  0
 20 19  1  0  0  0  0
 21 22  1  0  0  0  0
 21 20  2  0  0  0  0
 22 18  1  0  0  0  0
 24 23  1  0  0  0  0
 25 30  1  6  0  0  0
 25 26  1  0  0  0  0
 25 24  1  0  0  0  0
 26 27  1  0  0  0  0
 26 28  1  0  0  0  0
 29 26  1  0  0  0  0
 31 30  1  0  0  0  0
 32 31  2  0  0  0  0
 33 32  1  0  0  0  0
 34 33  1  0  0  0  0
 34 39  1  0  0  0  0
 35 36  1  0  0  0  0
 35 34  2  0  0  0  0
 36 37  2  0  0  0  0
 37 38  1  0  0  0  0
 39 38  2  0  0  0  0
 39 31  1  0  0  0  0
 40 33  1  0  0  0  0
M  END
>  <minimizedAffinity>
-6.44075251

$$$$
