
 OpenBabel11232419363D

 40 45  0  0  1  0  0  0  0  0999 V2000
   59.8070  -39.9030   19.2610 C   0  0  0  0  0  0  0  0  0  0  0  0
   60.2310  -38.5800   19.3130 C   0  0  0  0  0  3  0  0  0  0  0  0
   61.4930  -38.1780   19.0490 N   0  0  0  0  0  0  0  0  0  0  0  0
   62.3910  -39.1380   18.7290 C   0  0  0  0  0  3  0  0  0  0  0  0
   62.0810  -40.4900   18.6420 C   0  0  0  0  0  0  0  0  0  0  0  0
   60.7570  -40.8660   18.9250 C   0  0  0  0  0  3  0  0  0  0  0  0
   63.0710  -41.4920   18.2410 C   0  0  0  0  0  0  0  0  0  0  0  0
   64.0230  -41.9610   19.1810 C   0  0  0  0  0  3  0  0  0  0  0  0
   65.0080  -42.8860   18.8240 C   0  0  0  0  0  3  0  0  0  0  0  0
   65.0160  -43.3260   17.5200 C   0  0  0  0  0  0  0  0  0  0  0  0
   64.0930  -42.8860   16.5740 C   0  0  0  0  0  0  0  0  0  0  0  0
   63.1070  -41.9740   16.9220 C   0  0  0  0  0  3  0  0  0  0  0  0
   64.3570  -43.5770   15.2550 C   0  0  2  0  0  3  0  0  0  0  0  0
   65.5780  -44.4600   15.6100 C   0  0  0  0  0  0  0  0  0  0  0  0
   66.1780  -45.2330   14.8790 O   0  0  0  0  0  0  0  0  0  0  0  0
   65.8820  -44.2420   16.9510 N   0  0  0  0  0  0  0  0  0  0  0  0
   66.6440  -44.7150   17.4140 H   0  0  0  0  0  0  0  0  0  0  0  0
   64.6980  -42.6980   14.0990 C   0  0  0  0  0  0  0  0  0  0  0  0
   63.9200  -41.9060   13.2760 C   0  0  0  0  0  3  0  0  0  0  0  0
   64.7990  -41.2790   12.3640 C   0  0  0  0  0  3  0  0  0  0  0  0
   66.0600  -41.7200   12.6860 C   0  0  0  0  0  3  0  0  0  0  0  0
   66.0120  -42.5770   13.7370 O   0  0  0  0  0  0  0  0  0  0  0  0
   58.4720  -40.1210   19.4680 O   0  0  0  0  0  0  0  0  0  0  0  0
   57.5680  -39.8150   18.3990 C   0  0  0  0  0  2  0  0  0  0  0  0
   56.2890  -40.6830   18.4810 C   0  0  1  0  0  3  0  0  0  0  0  0
   55.0620  -39.8180   18.3670 N   0  0  0  0  0  4  0  0  0  0  0  0
   54.9230  -39.4420   17.4220 H   0  0  0  0  0  0  0  0  0  0  0  0
   55.1700  -39.0020   18.9910 H   0  0  0  0  0  0  0  0  0  0  0  0
   54.2090  -40.3160   18.6510 H   0  0  0  0  0  0  0  0  0  0  0  0
   56.2470  -41.7760   17.4030 C   0  0  0  0  0  2  0  0  0  0  0  0
   57.3310  -42.7910   17.5620 C   0  0  0  0  0  0  0  0  0  0  0  0
   57.4950  -43.6820   18.6050 C   0  0  0  0  0  3  0  0  0  0  0  0
   58.6170  -44.4340   18.3600 N   0  0  0  0  0  0  0  0  0  0  0  0
   59.2010  -44.0400   17.1810 C   0  0  0  0  0  0  0  0  0  0  0  0
   60.3580  -44.5130   16.5520 C   0  0  0  0  0  3  0  0  0  0  0  0
   60.7440  -43.9020   15.3570 C   0  0  0  0  0  3  0  0  0  0  0  0
   59.9980  -42.8600   14.8120 C   0  0  0  0  0  3  0  0  0  0  0  0
   58.8390  -42.4040   15.4510 C   0  0  0  0  0  3  0  0  0  0  0  0
   58.4270  -43.0040   16.6600 C   0  0  0  0  0  0  0  0  0  0  0  0
   58.9830  -45.1610   18.9620 H   0  0  0  0  0  0  0  0  0  0  0  0
  1  2  1  0  0  0  0
  1 23  1  0  0  0  0
  3  2  2  0  0  0  0
  4  3  1  0  0  0  0
  5  4  2  0  0  0  0
  5  6  1  0  0  0  0
  6  1  2  0  0  0  0
  7  5  1  0  0  0  0
  7  8  1  0  0  0  0
  9  8  2  0  0  0  0
 10  9  1  0  0  0  0
 11 12  1  0  0  0  0
 11 10  2  0  0  0  0
 12  7  2  0  0  0  0
 13 18  1  6  0  0  0
 13 14  1  0  0  0  0
 13 11  1  0  0  0  0
 14 16  1  0  0  0  0
 15 14  2  0  0  0  0
 16 17  1  0  0  0  0
 16 10  1  0  0  0  0
 19 18  2  0  0  0  0
 20 21  2  0  0  0  0
 20 19  1  0  0  0  0
 21 22  1  0  0  0  0
 22 18  1  0  0  0  0
 24 23  1  0  0  0  0
 25 24  1  6  0  0  0
 25 30  1  0  0  0  0
 26 25  1  0  0  0  0
 26 29  1  0  0  0  0
 26 28  1  0  0  0  0
 27 26  1  0  0  0  0
 30 31  1  0  0  0  0
 31 32  2  0  0  0  0
 33 32  1  0  0  0  0
 33 40  1  0  0  0  0
 34 33  1  0  0  0  0
 35 34  2  0  0  0  0
 36 35  1  0  0  0  0
 37 36  2  0  0  0  0
 37 38  1  0  0  0  0
 38 39  2  0  0  0  0
 39 34  1  0  0  0  0
 39 31  1  0  0  0  0
M  END
>  <minimizedAffinity>
-5.22391605

$$$$
