
 OpenBabel11232419363D

 40 45  0  0  1  0  0  0  0  0999 V2000
   57.3040  -42.4130   16.1610 C   0  0  0  0  0  0  0  0  0  0  0  0
   56.5370  -43.2790   15.3900 C   0  0  0  0  0  3  0  0  0  0  0  0
   57.0440  -44.1070   14.4500 N   0  0  0  0  0  0  0  0  0  0  0  0
   58.3810  -44.0690   14.2520 C   0  0  0  0  0  3  0  0  0  0  0  0
   59.2460  -43.2480   14.9660 C   0  0  0  0  0  0  0  0  0  0  0  0
   58.6790  -42.4000   15.9320 C   0  0  0  0  0  3  0  0  0  0  0  0
   60.6950  -43.2750   14.7560 C   0  0  0  0  0  0  0  0  0  0  0  0
   61.2240  -43.7730   13.5380 C   0  0  0  0  0  3  0  0  0  0  0  0
   62.6020  -43.8510   13.3190 C   0  0  0  0  0  3  0  0  0  0  0  0
   63.4280  -43.4230   14.3330 C   0  0  0  0  0  0  0  0  0  0  0  0
   62.9380  -42.9260   15.5400 C   0  0  0  0  0  0  0  0  0  0  0  0
   61.5730  -42.8380   15.7630 C   0  0  0  0  0  3  0  0  0  0  0  0
   64.0970  -42.5200   16.4220 C   0  0  2  0  0  3  0  0  0  0  0  0
   65.3070  -42.8800   15.5260 C   0  0  0  0  0  0  0  0  0  0  0  0
   66.4930  -42.7320   15.7790 O   0  0  0  0  0  0  0  0  0  0  0  0
   64.8110  -43.3960   14.3330 N   0  0  0  0  0  0  0  0  0  0  0  0
   65.4160  -43.6980   13.5840 H   0  0  0  0  0  0  0  0  0  0  0  0
   64.2180  -43.2280   17.7290 C   0  0  0  0  0  0  0  0  0  0  0  0
   64.3250  -42.7660   19.0270 C   0  0  0  0  0  3  0  0  0  0  0  0
   64.3850  -43.9050   19.8630 C   0  0  0  0  0  3  0  0  0  0  0  0
   64.3070  -44.9930   19.0280 C   0  0  0  0  0  3  0  0  0  0  0  0
   64.2020  -44.5970   17.7340 O   0  0  0  0  0  0  0  0  0  0  0  0
   56.6380  -41.7120   17.1290 O   0  0  0  0  0  0  0  0  0  0  0  0
   56.4640  -42.3330   18.4090 C   0  0  0  0  0  2  0  0  0  0  0  0
   57.4060  -41.7100   19.4660 C   0  0  1  0  0  3  0  0  0  0  0  0
   58.5810  -42.6160   19.7190 N   0  0  0  0  0  4  0  0  0  0  0  0
   59.2420  -42.6460   18.9340 H   0  0  0  0  0  0  0  0  0  0  0  0
   58.2360  -43.5820   19.8450 H   0  0  0  0  0  0  0  0  0  0  0  0
   59.0950  -42.3570   20.5710 H   0  0  0  0  0  0  0  0  0  0  0  0
   57.9130  -40.3170   19.0590 C   0  0  0  0  0  2  0  0  0  0  0  0
   59.2420  -39.9860   19.6520 C   0  0  0  0  0  0  0  0  0  0  0  0
   59.5330  -39.7800   20.9870 C   0  0  0  0  0  3  0  0  0  0  0  0
   60.8720  -39.5000   21.1010 N   0  0  0  0  0  0  0  0  0  0  0  0
   61.4620  -39.5040   19.8600 C   0  0  0  0  0  0  0  0  0  0  0  0
   62.7910  -39.2580   19.5000 C   0  0  0  0  0  3  0  0  0  0  0  0
   63.1140  -39.3000   18.1410 C   0  0  0  0  0  3  0  0  0  0  0  0
   62.1440  -39.5800   17.1830 C   0  0  0  0  0  3  0  0  0  0  0  0
   60.8200  -39.8300   17.5620 C   0  0  0  0  0  3  0  0  0  0  0  0
   60.4660  -39.7950   18.9280 C   0  0  0  0  0  0  0  0  0  0  0  0
   61.3610  -39.2970   21.9640 H   0  0  0  0  0  0  0  0  0  0  0  0
  1 23  1  0  0  0  0
  2  1  2  0  0  0  0
  3  2  1  0  0  0  0
  4  3  2  0  0  0  0
  4  5  1  0  0  0  0
  5  6  2  0  0  0  0
  6  1  1  0  0  0  0
  7  5  1  0  0  0  0
  7 12  1  0  0  0  0
  8  7  2  0  0  0  0
  9  8  1  0  0  0  0
  9 10  2  0  0  0  0
 10 11  1  0  0  0  0
 11 12  2  0  0  0  0
 11 13  1  0  0  0  0
 13 18  1  1  0  0  0
 14 15  2  0  0  0  0
 14 13  1  0  0  0  0
 16 10  1  0  0  0  0
 16 14  1  0  0  0  0
 17 16  1  0  0  0  0
 18 22  1  0  0  0  0
 18 19  2  0  0  0  0
 19 20  1  0  0  0  0
 21 20  2  0  0  0  0
 22 21  1  0  0  0  0
 23 24  1  0  0  0  0
 25 24  1  6  0  0  0
 25 26  1  0  0  0  0
 26 28  1  0  0  0  0
 26 29  1  0  0  0  0
 27 26  1  0  0  0  0
 30 25  1  0  0  0  0
 30 31  1  0  0  0  0
 31 32  2  0  0  0  0
 32 33  1  0  0  0  0
 33 40  1  0  0  0  0
 34 33  1  0  0  0  0
 35 34  1  0  0  0  0
 36 35  2  0  0  0  0
 37 38  2  0  0  0  0
 37 36  1  0  0  0  0
 38 39  1  0  0  0  0
 39 31  1  0  0  0  0
 39 34  2  0  0  0  0
M  END
>  <minimizedAffinity>
-5.85996151

$$$$
