
 OpenBabel11232419363D

 40 45  0  0  1  0  0  0  0  0999 V2000
   61.0550  -41.8020   14.4000 C   0  0  0  0  0  0  0  0  0  0  0  0
   60.2910  -41.8850   13.2410 C   0  0  0  0  0  3  0  0  0  0  0  0
   58.9760  -42.1930   13.2220 N   0  0  0  0  0  0  0  0  0  0  0  0
   58.3840  -42.4450   14.4110 C   0  0  0  0  0  3  0  0  0  0  0  0
   59.0460  -42.3880   15.6330 C   0  0  0  0  0  0  0  0  0  0  0  0
   60.4130  -42.0660   15.6090 C   0  0  0  0  0  3  0  0  0  0  0  0
   58.3560  -42.6170   16.9030 C   0  0  0  0  0  0  0  0  0  0  0  0
   58.5230  -43.8490   17.5870 C   0  0  0  0  0  3  0  0  0  0  0  0
   57.8480  -44.1190   18.7800 C   0  0  0  0  0  3  0  0  0  0  0  0
   57.0150  -43.1390   19.2690 C   0  0  0  0  0  0  0  0  0  0  0  0
   56.8320  -41.9180   18.6220 C   0  0  0  0  0  0  0  0  0  0  0  0
   57.5030  -41.6390   17.4410 C   0  0  0  0  0  3  0  0  0  0  0  0
   55.8810  -41.0610   19.4270 C   0  0  2  0  0  3  0  0  0  0  0  0
   55.5530  -41.9980   20.6150 C   0  0  0  0  0  0  0  0  0  0  0  0
   54.8250  -41.7680   21.5690 O   0  0  0  0  0  0  0  0  0  0  0  0
   56.2630  -43.1810   20.4300 N   0  0  0  0  0  0  0  0  0  0  0  0
   56.2140  -43.9470   21.0850 H   0  0  0  0  0  0  0  0  0  0  0  0
   54.6160  -40.6540   18.7510 C   0  0  0  0  0  0  0  0  0  0  0  0
   54.0920  -39.4160   18.4310 C   0  0  0  0  0  3  0  0  0  0  0  0
   52.8650  -39.6500   17.7700 C   0  0  0  0  0  3  0  0  0  0  0  0
   52.7130  -41.0140   17.7200 C   0  0  0  0  0  3  0  0  0  0  0  0
   53.7690  -41.6340   18.3080 O   0  0  0  0  0  0  0  0  0  0  0  0
   62.3500  -41.3900   14.2440 O   0  0  0  0  0  0  0  0  0  0  0  0
   62.8980  -40.5080   15.2330 C   0  0  0  0  0  2  0  0  0  0  0  0
   63.9920  -41.2140   16.0680 C   0  0  1  0  0  3  0  0  0  0  0  0
   65.3460  -40.9920   15.4510 N   0  0  0  0  0  4  0  0  0  0  0  0
   65.6830  -40.0280   15.5540 H   0  0  0  0  0  0  0  0  0  0  0  0
   65.2830  -41.1690   14.4340 H   0  0  0  0  0  0  0  0  0  0  0  0
   66.0570  -41.6310   15.8320 H   0  0  0  0  0  0  0  0  0  0  0  0
   64.0140  -40.7450   17.5310 C   0  0  0  0  0  2  0  0  0  0  0  0
   62.8160  -41.1910   18.3020 C   0  0  0  0  0  0  0  0  0  0  0  0
   62.4730  -42.4880   18.6360 C   0  0  0  0  0  3  0  0  0  0  0  0
   61.2990  -42.4560   19.3470 N   0  0  0  0  0  0  0  0  0  0  0  0
   60.8560  -41.1610   19.4700 C   0  0  0  0  0  0  0  0  0  0  0  0
   59.7080  -40.6630   20.0940 C   0  0  0  0  0  3  0  0  0  0  0  0
   59.4880  -39.2840   20.0430 C   0  0  0  0  0  3  0  0  0  0  0  0
   60.3830  -38.4400   19.3930 C   0  0  0  0  0  3  0  0  0  0  0  0
   61.5310  -38.9550   18.7790 C   0  0  0  0  0  3  0  0  0  0  0  0
   61.7790  -40.3440   18.8170 C   0  0  0  0  0  0  0  0  0  0  0  0
   60.8090  -43.2630   19.7120 H   0  0  0  0  0  0  0  0  0  0  0  0
  1  6  1  0  0  0  0
  2  1  2  0  0  0  0
  3  2  1  0  0  0  0
  3  4  2  0  0  0  0
  4  5  1  0  0  0  0
  5  7  1  0  0  0  0
  6  5  2  0  0  0  0
  7 12  2  0  0  0  0
  7  8  1  0  0  0  0
  8  9  2  0  0  0  0
  9 10  1  0  0  0  0
 10 16  1  0  0  0  0
 11 10  2  0  0  0  0
 11 13  1  0  0  0  0
 12 11  1  0  0  0  0
 13 18  1  6  0  0  0
 13 14  1  0  0  0  0
 14 15  2  0  0  0  0
 16 14  1  0  0  0  0
 16 17  1  0  0  0  0
 19 18  2  0  0  0  0
 20 19  1  0  0  0  0
 21 20  2  0  0  0  0
 21 22  1  0  0  0  0
 22 18  1  0  0  0  0
 23  1  1  0  0  0  0
 23 24  1  0  0  0  0
 25 24  1  6  0  0  0
 25 30  1  0  0  0  0
 26 27  1  0  0  0  0
 26 29  1  0  0  0  0
 26 25  1  0  0  0  0
 28 26  1  0  0  0  0
 30 31  1  0  0  0  0
 31 32  2  0  0  0  0
 31 39  1  0  0  0  0
 32 33  1  0  0  0  0
 33 34  1  0  0  0  0
 33 40  1  0  0  0  0
 34 35  1  0  0  0  0
 36 35  2  0  0  0  0
 37 36  1  0  0  0  0
 38 39  1  0  0  0  0
 38 37  2  0  0  0  0
 39 34  2  0  0  0  0
M  END
>  <minimizedAffinity>
-6.32107162

$$$$
