
 OpenBabel10152418453D

 38 41  0  0  1  0  0  0  0  0999 V2000
    3.4340  -14.4700   13.3790 C   0  0  0  0  0  1  0  0  0  0  0  0
    4.1900  -14.1400   12.0880 C   0  0  2  0  0  3  0  0  0  0  0  0
    5.6580  -14.5330   12.2370 C   0  0  0  0  0  0  0  0  0  0  0  0
    6.1890  -15.0830   13.4060 C   0  0  0  0  0  3  0  0  0  0  0  0
    7.5480  -14.9750   13.6570 C   0  0  0  0  0  3  0  0  0  0  0  0
    8.4000  -14.5380   12.6520 C   0  0  0  0  0  3  0  0  0  0  0  0
    7.9390  -14.4110   11.3510 C   0  0  0  0  0  0  0  0  0  0  0  0
    6.5530  -14.3040   11.1710 C   0  0  0  0  0  3  0  0  0  0  0  0
    8.7560  -14.4270   10.2020 N   0  0  0  0  0  0  0  0  0  0  0  0
    9.8180  -13.6490    9.7840 C   0  0  0  0  0  0  0  0  0  0  0  0
   10.4120  -13.9370    8.7460 O   0  0  0  0  0  0  0  0  0  0  0  0
    8.6270  -15.2110    9.5720 H   0  0  0  0  0  0  0  0  0  0  0  0
   10.2490  -12.4370   10.5060 C   0  0  0  0  0  0  0  0  0  0  0  0
   10.3360  -11.2490    9.7680 C   0  0  0  0  0  3  0  0  0  0  0  0
   10.5550  -10.0410   10.4270 C   0  0  0  0  0  3  0  0  0  0  0  0
   10.6780  -10.0300   11.8140 C   0  0  0  0  0  0  0  0  0  0  0  0
   10.7890   -8.8520   12.4440 F   0  0  0  0  0  0  0  0  0  0  0  0
   10.6380  -11.2200   12.5420 C   0  0  0  0  0  0  0  0  0  0  0  0
   10.4820  -12.4430   11.8890 C   0  0  0  0  0  3  0  0  0  0  0  0
   10.6750  -11.1600   13.9080 O   0  0  0  0  0  0  0  0  0  0  0  0
   10.3730  -12.0060   14.2760 H   0  0  0  0  0  0  0  0  0  0  0  0
    3.8740  -12.7510   11.6970 N   0  0  0  0  0  0  0  0  0  0  0  0
    2.9870  -12.4200   12.0680 H   0  0  0  0  0  0  0  0  0  0  0  0
    4.7210  -11.6660   11.6420 C   0  0  0  0  0  0  0  0  0  0  0  0
    5.2640  -11.4090   12.8440 N   0  0  0  0  0  0  0  0  0  0  0  0
    6.3250  -10.6060   12.8580 C   0  0  0  0  0  3  0  0  0  0  0  0
    6.9150  -10.0720   11.7850 N   0  0  0  0  0  0  0  0  0  0  0  0
    6.3220  -10.2510   10.5830 C   0  0  0  0  0  0  0  0  0  0  0  0
    6.8850   -9.7570    9.3910 C   0  0  0  0  0  0  0  0  0  0  0  0
    6.2160   -9.8810    8.1580 C   0  0  0  0  0  3  0  0  0  0  0  0
    4.9920  -10.5270    8.0830 C   0  0  0  0  0  3  0  0  0  0  0  0
    4.4600  -11.0970    9.2320 C   0  0  0  0  0  3  0  0  0  0  0  0
    5.1300  -10.9960   10.4760 C   0  0  0  0  0  0  0  0  0  0  0  0
    8.2520   -9.1480    9.3260 C   0  0  0  0  0  0  0  0  0  0  0  0
    8.8360   -8.9880    8.1050 N   0  0  0  0  0  0  0  0  0  0  0  0
    8.8270   -8.7510   10.3360 O   0  0  0  0  0  0  0  0  0  0  0  0
    9.7430   -8.5480    8.0490 H   0  0  0  0  0  0  0  0  0  0  0  0
    8.3960   -9.3470    7.2640 H   0  0  0  0  0  0  0  0  0  0  0  0
  2  3  1  0  0  0  0
  2  1  1  1  0  0  0
  3  4  1  0  0  0  0
  4  5  2  0  0  0  0
  6  5  1  0  0  0  0
  7  6  2  0  0  0  0
  8  7  1  0  0  0  0
  8  3  2  0  0  0  0
  9  7  1  0  0  0  0
 10  9  1  0  0  0  0
 10 13  1  0  0  0  0
 11 10  2  0  0  0  0
 12  9  1  0  0  0  0
 13 19  1  0  0  0  0
 14 15  1  0  0  0  0
 14 13  2  0  0  0  0
 15 16  2  0  0  0  0
 16 17  1  0  0  0  0
 16 18  1  0  0  0  0
 18 20  1  0  0  0  0
 19 18  2  0  0  0  0
 20 21  1  0  0  0  0
 22 23  1  0  0  0  0
 22  2  1  0  0  0  0
 24 22  1  0  0  0  0
 24 25  1  0  0  0  0
 25 26  2  0  0  0  0
 27 26  1  0  0  0  0
 28 27  2  0  0  0  0
 29 28  1  0  0  0  0
 30 29  2  0  0  0  0
 31 30  1  0  0  0  0
 31 32  2  0  0  0  0
 32 33  1  0  0  0  0
 33 28  1  0  0  0  0
 33 24  2  0  0  0  0
 34 29  1  0  0  0  0
 34 36  2  0  0  0  0
 35 34  1  0  0  0  0
 37 35  1  0  0  0  0
 38 35  1  0  0  0  0
M  END
>  <minimizedAffinity>
19.7837715

$$$$

 OpenBabel10152418453D

 38 42  0  0  1  0  0  0  0  0999 V2000
    3.5150  -14.7270   11.3160 C   0  0  0  0  0  1  0  0  0  0  0  0
    4.2130  -13.8130   12.3300 C   0  0  2  0  0  3  0  0  0  0  0  0
    4.4790  -12.4510   11.6940 C   0  0  0  0  0  0  0  0  0  0  0  0
    4.4570  -11.2520   12.4110 C   0  0  0  0  0  0  0  0  0  0  0  0
    4.2300  -10.0590   11.7430 C   0  0  0  0  0  3  0  0  0  0  0  0
    4.2620  -10.0320   10.3560 C   0  0  0  0  0  3  0  0  0  0  0  0
    4.7210  -11.1290    9.6450 C   0  0  0  0  0  0  0  0  0  0  0  0
    4.7250  -12.3650   10.3070 C   0  0  0  0  0  3  0  0  0  0  0  0
    5.2230  -11.0830    8.3290 N   0  0  0  0  0  0  0  0  0  0  0  0
    6.4960  -10.9640    7.8040 C   0  0  0  0  0  0  0  0  0  0  0  0
    6.6600  -11.0270    6.5860 O   0  0  0  0  0  0  0  0  0  0  0  0
    4.5540  -11.2610    7.5880 H   0  0  0  0  0  0  0  0  0  0  0  0
    7.6810  -10.7060    8.6430 C   0  0  0  0  0  0  0  0  0  0  0  0
    8.0500   -9.3670    8.8350 C   0  0  0  0  0  3  0  0  0  0  0  0
    9.0410   -9.0510    9.7620 C   0  0  0  0  0  3  0  0  0  0  0  0
    9.6470  -10.0700   10.4910 C   0  0  0  0  0  0  0  0  0  0  0  0
   10.5270   -9.7450   11.4490 F   0  0  0  0  0  0  0  0  0  0  0  0
    9.3120  -11.4060   10.2640 C   0  0  0  0  0  0  0  0  0  0  0  0
    8.3670  -11.7410    9.2940 C   0  0  0  0  0  3  0  0  0  0  0  0
    9.8660  -12.3710   11.0590 O   0  0  0  0  0  0  0  0  0  0  0  0
    9.3530  -13.1910   10.9740 H   0  0  0  0  0  0  0  0  0  0  0  0
    5.3520  -14.5440   12.9200 N   0  0  0  0  0  0  0  0  0  0  0  0
    5.6290  -15.3610   12.3820 H   0  0  0  0  0  0  0  0  0  0  0  0
    6.4950  -14.0280   13.4900 C   0  0  0  0  0  0  0  0  0  0  0  0
    7.4400  -14.9720   13.6310 N   0  0  0  0  0  0  0  0  0  0  0  0
    8.6780  -14.5450   13.8630 C   0  0  0  0  0  3  0  0  0  0  0  0
    9.0650  -13.2680   13.9260 N   0  0  0  0  0  0  0  0  0  0  0  0
    8.1070  -12.3140   13.8760 C   0  0  0  0  0  0  0  0  0  0  0  0
    8.4180  -10.9410   13.9010 C   0  0  0  0  0  0  0  0  0  0  0  0
    7.4070   -9.9620   13.9290 C   0  0  0  0  0  3  0  0  0  0  0  0
    6.0700  -10.3290   13.9010 C   0  0  0  0  0  3  0  0  0  0  0  0
    5.7430  -11.6740   13.7900 C   0  0  0  0  0  0  0  0  0  0  0  0
    6.7490  -12.6690   13.7410 C   0  0  0  0  0  0  0  0  0  0  0  0
    9.8190  -10.4210   13.8130 C   0  0  0  0  0  0  0  0  0  0  0  0
   10.0090   -9.0770   13.6880 N   0  0  0  0  0  0  0  0  0  0  0  0
   10.7890  -11.1690   13.9010 O   0  0  0  0  0  0  0  0  0  0  0  0
   10.9500   -8.7140   13.6610 H   0  0  0  0  0  0  0  0  0  0  0  0
    9.2210   -8.4470   13.5710 H   0  0  0  0  0  0  0  0  0  0  0  0
  2  1  1  6  0  0  0
  2 22  1  0  0  0  0
  3  2  1  0  0  0  0
  3  4  1  0  0  0  0
  4 32  1  0  0  0  0
  5  4  2  0  0  0  0
  6  5  1  0  0  0  0
  7  8  1  0  0  0  0
  7  6  2  0  0  0  0
  8  3  2  0  0  0  0
  9  7  1  0  0  0  0
 10  9  1  0  0  0  0
 10 13  1  0  0  0  0
 11 10  2  0  0  0  0
 12  9  1  0  0  0  0
 13 14  2  0  0  0  0
 13 19  1  0  0  0  0
 14 15  1  0  0  0  0
 15 16  2  0  0  0  0
 16 17  1  0  0  0  0
 18 16  1  0  0  0  0
 18 20  1  0  0  0  0
 19 18  2  0  0  0  0
 21 20  1  0  0  0  0
 22 24  1  0  0  0  0
 23 22  1  0  0  0  0
 24 25  2  0  0  0  0
 24 33  1  0  0  0  0
 25 26  1  0  0  0  0
 26 27  2  0  0  0  0
 28 29  1  0  0  0  0
 28 27  1  0  0  0  0
 29 30  2  0  0  0  0
 31 30  1  0  0  0  0
 32 31  2  0  0  0  0
 33 32  1  0  0  0  0
 33 28  2  0  0  0  0
 34 29  1  0  0  0  0
 34 36  2  0  0  0  0
 35 34  1  0  0  0  0
 37 35  1  0  0  0  0
 38 35  1  0  0  0  0
M  END
>  <minimizedAffinity>
20.6554642

$$$$
