
 OpenBabel10152418543D

 37 40  0  0  1  0  0  0  0  0999 V2000
    5.6750  -13.5440    9.1500 C   0  0  2  0  0  3  0  0  0  0  0  0
    6.8960  -14.3170    9.6560 C   0  0  0  0  0  1  0  0  0  0  0  0
    7.6020  -10.2760    8.5620 C   0  0  0  0  0  0  0  0  0  0  0  0
    6.7540   -9.6100    7.6760 C   0  0  0  0  0  3  0  0  0  0  0  0
    5.6240  -10.2500    7.1680 C   0  0  0  0  0  3  0  0  0  0  0  0
    5.2920  -11.5330    7.6060 C   0  0  0  0  0  3  0  0  0  0  0  0
    6.0880  -12.1930    8.5560 C   0  0  0  0  0  0  0  0  0  0  0  0
    7.2790  -11.5710    8.9840 C   0  0  0  0  0  3  0  0  0  0  0  0
    9.2940   -9.7140   10.3210 C   0  0  0  0  0  0  0  0  0  0  0  0
    9.6990   -8.7440   10.9570 O   0  0  0  0  0  0  0  0  0  0  0  0
    8.6770   -9.5520    9.1030 N   0  0  0  0  0  0  0  0  0  0  0  0
    8.9350   -8.6950    8.6250 H   0  0  0  0  0  0  0  0  0  0  0  0
   10.0150  -13.6130   11.7790 C   0  0  0  0  0  0  0  0  0  0  0  0
   10.7550  -12.5680   12.3160 C   0  0  0  0  0  3  0  0  0  0  0  0
   10.5860  -11.2830   11.7960 C   0  0  0  0  0  3  0  0  0  0  0  0
    9.6660  -11.0740   10.7680 C   0  0  0  0  0  0  0  0  0  0  0  0
    8.9500  -12.1680   10.3120 C   0  0  0  0  0  3  0  0  0  0  0  0
    9.1230  -13.4320   10.7790 N   0  0  0  0  0  0  0  0  0  0  0  0
   10.7360  -15.0760   13.4810 C   0  0  0  0  0  1  0  0  0  0  0  0
   10.0560  -14.8970   12.2430 O   0  0  0  0  0  0  0  0  0  0  0  0
    4.7270  -13.3690   10.2450 N   0  0  0  0  0  0  0  0  0  0  0  0
    4.1660  -14.1450   10.5490 H   0  0  0  0  0  0  0  0  0  0  0  0
    4.9590  -12.2910   11.0930 C   0  0  0  0  0  0  0  0  0  0  0  0
    4.4620  -11.1060   10.7000 N   0  0  0  0  0  0  0  0  0  0  0  0
    4.9890  -10.0210   11.2560 C   0  0  0  0  0  3  0  0  0  0  0  0
    6.0240  -10.0140   12.0970 N   0  0  0  0  0  0  0  0  0  0  0  0
    6.4850  -11.2020   12.5270 C   0  0  0  0  0  0  0  0  0  0  0  0
    7.6150  -11.2940   13.3430 C   0  0  0  0  0  0  0  0  0  0  0  0
    8.0670  -12.4980   13.9030 C   0  0  0  0  0  3  0  0  0  0  0  0
    7.4030  -13.6740   13.6040 C   0  0  0  0  0  3  0  0  0  0  0  0
    6.3550  -13.6370   12.6870 C   0  0  0  0  0  3  0  0  0  0  0  0
    5.9060  -12.4080   12.1260 C   0  0  0  0  0  0  0  0  0  0  0  0
    8.5130  -10.1320   13.4360 C   0  0  0  0  0  0  0  0  0  0  0  0
    7.8670   -8.9280   13.3380 N   0  0  0  0  0  0  0  0  0  0  0  0
    9.7250  -10.2310   13.5410 O   0  0  0  0  0  0  0  0  0  0  0  0
    8.4140   -8.0800   13.3650 H   0  0  0  0  0  0  0  0  0  0  0  0
    6.8590   -8.8570   13.2660 H   0  0  0  0  0  0  0  0  0  0  0  0
  1  2  1  1  0  0  0
  1 21  1  0  0  0  0
  3  8  1  0  0  0  0
  3 11  1  0  0  0  0
  4  3  2  0  0  0  0
  5  6  2  0  0  0  0
  5  4  1  0  0  0  0
  6  7  1  0  0  0  0
  7  8  2  0  0  0  0
  7  1  1  0  0  0  0
  9 16  1  0  0  0  0
  9 10  2  0  0  0  0
 11  9  1  0  0  0  0
 12 11  1  0  0  0  0
 13 20  1  0  0  0  0
 13 14  1  0  0  0  0
 15 14  2  0  0  0  0
 16 15  1  0  0  0  0
 17 16  2  0  0  0  0
 17 18  1  0  0  0  0
 18 13  2  0  0  0  0
 20 19  1  0  0  0  0
 21 22  1  0  0  0  0
 21 23  1  0  0  0  0
 23 32  1  0  0  0  0
 24 23  2  0  0  0  0
 24 25  1  0  0  0  0
 25 26  2  0  0  0  0
 26 27  1  0  0  0  0
 27 28  1  0  0  0  0
 28 33  1  0  0  0  0
 28 29  2  0  0  0  0
 30 29  1  0  0  0  0
 31 30  2  0  0  0  0
 32 27  2  0  0  0  0
 32 31  1  0  0  0  0
 33 35  2  0  0  0  0
 34 36  1  0  0  0  0
 34 33  1  0  0  0  0
 37 34  1  0  0  0  0
M  END
>  <minimizedAffinity>
11.8669891

$$$$
