
 OpenBabel11232418543D

 39 44  0  0  1  0  0  0  0  0999 V2000
    8.3850  -11.4090   13.9840 C   0  0  0  0  0  0  0  0  0  0  0  0
    7.6690  -12.3160   13.2690 N   0  0  0  0  0  0  0  0  0  0  0  0
    7.7440  -13.6130   13.6370 C   0  0  0  0  0  0  0  0  0  0  0  0
    6.9570  -14.5420   12.8270 C   0  0  0  0  0  3  0  0  0  0  0  0
    6.9660  -15.8530   13.1000 C   0  0  0  0  0  3  0  0  0  0  0  0
    7.7430  -16.3490   14.1730 C   0  0  0  0  0  0  0  0  0  0  0  0
    7.9020  -17.5780   14.6040 N   0  0  0  0  0  0  0  0  0  0  0  0
    8.7610  -17.5430   15.6630 N   0  0  0  0  0  0  0  0  0  0  0  0
    9.1230  -16.2890   15.8740 C   0  0  0  0  0  0  0  0  0  0  0  0
    8.4950  -15.4720   14.9520 N   0  0  0  0  0  0  0  0  0  0  0  0
    8.5130  -14.0720   14.7090 C   0  0  0  0  0  0  0  0  0  0  0  0
    9.2230  -13.1310   15.4470 C   0  0  0  0  0  3  0  0  0  0  0  0
    9.1700  -11.7670   15.0980 C   0  0  0  0  0  0  0  0  0  0  0  0
    9.9070  -10.7880   15.9170 C   0  0  0  0  0  0  0  0  0  0  0  0
    9.2430   -9.7020   16.5100 C   0  0  0  0  0  3  0  0  0  0  0  0
    9.9400   -8.7710   17.2820 C   0  0  0  0  0  3  0  0  0  0  0  0
   11.3140   -8.9070   17.4680 C   0  0  0  0  0  3  0  0  0  0  0  0
   11.9920   -9.9720   16.8800 C   0  0  0  0  0  3  0  0  0  0  0  0
   11.2950  -10.9040   16.1080 C   0  0  0  0  0  3  0  0  0  0  0  0
    8.0540   -7.3250   12.4720 C   0  0  0  0  0  0  0  0  0  0  0  0
    7.0210   -7.9600   13.1980 C   0  0  0  0  0  3  0  0  0  0  0  0
    7.1210   -9.2750   13.6750 C   0  0  0  0  0  3  0  0  0  0  0  0
    8.2750  -10.0340   13.4650 C   0  0  0  0  0  0  0  0  0  0  0  0
    9.3070   -9.4400   12.7320 C   0  0  0  0  0  3  0  0  0  0  0  0
    9.2000   -8.1240   12.2560 C   0  0  0  0  0  3  0  0  0  0  0  0
    8.3780   -2.5500   12.8440 C   0  0  0  0  0  1  0  0  0  0  0  0
    8.4250   -4.0420   13.1450 C   0  0  2  0  0  0  0  0  0  0  0  0
    9.1300   -4.8730   12.0430 C   0  0  0  0  0  2  0  0  0  0  0  0
    7.8930   -5.8070   11.9570 C   0  0  2  0  0  0  0  0  0  0  0  0
    7.1100   -4.8020   12.8500 C   0  0  0  0  0  2  0  0  0  0  0  0
    7.3420   -5.7980   10.5760 N   0  0  0  0  0  4  0  0  0  0  0  0
    6.4270   -6.2660   10.5420 H   0  0  0  0  0  0  0  0  0  0  0  0
    7.2100   -4.8500   10.2060 H   0  0  0  0  0  0  0  0  0  0  0  0
    7.9720   -6.2880    9.9270 H   0  0  0  0  0  0  0  0  0  0  0  0
    8.9590   -4.2560   14.4640 O   0  0  0  0  0  0  0  0  0  0  0  0
    8.4800   -3.6570   15.0670 H   0  0  0  0  0  0  0  0  0  0  0  0
   10.0660  -15.8780   16.9310 C   0  0  0  0  0  3  0  0  0  0  0  0
    9.9160  -16.6330   18.0540 F   0  0  0  0  0  0  0  0  0  0  0  0
   11.3580  -16.0300   16.5330 F   0  0  0  0  0  0  0  0  0  0  0  0
  1 13  1  0  0  0  0
  2  3  1  0  0  0  0
  2  1  2  0  0  0  0
  3 11  2  0  0  0  0
  4  5  2  0  0  0  0
  4  3  1  0  0  0  0
  5  6  1  0  0  0  0
  6  7  2  0  0  0  0
  6 10  1  0  0  0  0
  7  8  1  0  0  0  0
  8  9  2  0  0  0  0
  9 37  1  0  0  0  0
 10  9  1  0  0  0  0
 11 10  1  0  0  0  0
 11 12  1  0  0  0  0
 13 12  2  0  0  0  0
 13 14  1  0  0  0  0
 14 19  2  0  0  0  0
 14 15  1  0  0  0  0
 15 16  2  0  0  0  0
 16 17  1  0  0  0  0
 18 17  2  0  0  0  0
 19 18  1  0  0  0  0
 20 21  1  0  0  0  0
 21 22  2  0  0  0  0
 23 22  1  0  0  0  0
 23  1  1  0  0  0  0
 24 23  2  0  0  0  0
 25 20  2  0  0  0  0
 25 24  1  0  0  0  0
 27 26  1  6  0  0  0
 27 35  1  0  0  0  0
 28 27  1  0  0  0  0
 29 31  1  6  0  0  0
 29 28  1  0  0  0  0
 29 20  1  0  0  0  0
 29 30  1  0  0  0  0
 30 27  1  0  0  0  0
 32 31  1  0  0  0  0
 33 31  1  0  0  0  0
 34 31  1  0  0  0  0
 35 36  1  0  0  0  0
 37 38  1  0  0  0  0
 39 37  1  0  0  0  0
M  END
>  <minimizedAffinity>
-11.5308666

$$$$
