
 OpenBabel11232418543D

 39 44  0  0  1  0  0  0  0  0999 V2000
    8.0370   -6.7970   12.9160 C   0  0  0  0  0  0  0  0  0  0  0  0
    7.3580   -6.5300   11.7700 N   0  0  0  0  0  0  0  0  0  0  0  0
    7.2610   -5.2400   11.3800 C   0  0  0  0  0  0  0  0  0  0  0  0
    6.5140   -5.0140   10.1430 C   0  0  0  0  0  3  0  0  0  0  0  0
    6.3490   -3.7730    9.6690 C   0  0  0  0  0  3  0  0  0  0  0  0
    6.8950   -2.6690   10.3670 C   0  0  0  0  0  0  0  0  0  0  0  0
    6.8470   -1.3870   10.0900 N   0  0  0  0  0  0  0  0  0  0  0  0
    7.5170   -0.7210   11.0740 N   0  0  0  0  0  0  0  0  0  0  0  0
    7.9710   -1.6020   11.9490 C   0  0  0  0  0  0  0  0  0  0  0  0
    7.6100   -2.8740   11.5450 N   0  0  0  0  0  0  0  0  0  0  0  0
    7.8190   -4.1720   12.0840 C   0  0  0  0  0  0  0  0  0  0  0  0
    8.5320   -4.4620   13.2430 C   0  0  0  0  0  3  0  0  0  0  0  0
    8.6590   -5.7930   13.6850 C   0  0  0  0  0  0  0  0  0  0  0  0
    9.4460   -6.0750   14.8990 C   0  0  0  0  0  0  0  0  0  0  0  0
    9.5650   -5.1140   15.9170 C   0  0  0  0  0  3  0  0  0  0  0  0
   10.3150   -5.3780   17.0650 C   0  0  0  0  0  3  0  0  0  0  0  0
   10.9610   -6.6030   17.2120 C   0  0  0  0  0  3  0  0  0  0  0  0
   10.8620   -7.5640   16.2090 C   0  0  0  0  0  3  0  0  0  0  0  0
   10.1120   -7.3020   15.0600 C   0  0  0  0  0  3  0  0  0  0  0  0
    8.0070  -11.0330   13.9810 C   0  0  0  0  0  0  0  0  0  0  0  0
    7.0270  -10.1210   14.4350 C   0  0  0  0  0  3  0  0  0  0  0  0
    7.0410   -8.7580   14.1030 C   0  0  0  0  0  3  0  0  0  0  0  0
    8.0350   -8.2260   13.2790 C   0  0  0  0  0  0  0  0  0  0  0  0
    9.0300   -9.0990   12.8300 C   0  0  0  0  0  3  0  0  0  0  0  0
    9.0120  -10.4620   13.1670 C   0  0  0  0  0  3  0  0  0  0  0  0
    7.0710  -15.6790   13.2230 C   0  0  0  0  0  1  0  0  0  0  0  0
    7.1940  -14.1720   13.0540 C   0  0  2  0  0  0  0  0  0  0  0  0
    8.5950  -13.6210   13.4230 C   0  0  0  0  0  2  0  0  0  0  0  0
    7.9380  -12.5920   14.3820 C   0  0  2  0  0  0  0  0  0  0  0  0
    6.5850  -13.3410   14.2090 C   0  0  0  0  0  2  0  0  0  0  0  0
    8.4520  -12.7810   15.7640 N   0  0  0  0  0  4  0  0  0  0  0  0
    7.9030  -12.2330   16.4390 H   0  0  0  0  0  0  0  0  0  0  0  0
    8.4190  -13.7610   16.0710 H   0  0  0  0  0  0  0  0  0  0  0  0
    9.4330  -12.4790   15.8350 H   0  0  0  0  0  0  0  0  0  0  0  0
    6.7480  -13.7900   11.7410 O   0  0  0  0  0  0  0  0  0  0  0  0
    5.8860  -14.2230   11.5950 H   0  0  0  0  0  0  0  0  0  0  0  0
    8.7270   -1.2340   13.1610 C   0  0  0  0  0  3  0  0  0  0  0  0
    9.1380    0.0630   13.1180 F   0  0  0  0  0  0  0  0  0  0  0  0
    7.9650   -1.3610   14.2810 F   0  0  0  0  0  0  0  0  0  0  0  0
  1 23  1  0  0  0  0
  1 13  1  0  0  0  0
  2  1  2  0  0  0  0
  3  2  1  0  0  0  0
  3 11  2  0  0  0  0
  4  3  1  0  0  0  0
  5  4  2  0  0  0  0
  5  6  1  0  0  0  0
  6 10  1  0  0  0  0
  7  6  2  0  0  0  0
  7  8  1  0  0  0  0
  8  9  2  0  0  0  0
  9 37  1  0  0  0  0
 10  9  1  0  0  0  0
 10 11  1  0  0  0  0
 11 12  1  0  0  0  0
 12 13  2  0  0  0  0
 13 14  1  0  0  0  0
 14 19  2  0  0  0  0
 14 15  1  0  0  0  0
 15 16  2  0  0  0  0
 16 17  1  0  0  0  0
 18 17  2  0  0  0  0
 19 18  1  0  0  0  0
 20 29  1  0  0  0  0
 20 21  1  0  0  0  0
 22 21  2  0  0  0  0
 23 22  1  0  0  0  0
 24 25  1  0  0  0  0
 24 23  2  0  0  0  0
 25 20  2  0  0  0  0
 27 26  1  1  0  0  0
 27 28  1  0  0  0  0
 27 30  1  0  0  0  0
 28 29  1  0  0  0  0
 29 31  1  1  0  0  0
 30 29  1  0  0  0  0
 31 34  1  0  0  0  0
 31 33  1  0  0  0  0
 31 32  1  0  0  0  0
 35 27  1  0  0  0  0
 36 35  1  0  0  0  0
 37 39  1  0  0  0  0
 38 37  1  0  0  0  0
M  END
>  <minimizedAffinity>
-11.1133261

$$$$
