
 OpenBabel11232418543D

 39 44  0  0  1  0  0  0  0  0999 V2000
    8.5900  -11.3030   14.0030 C   0  0  0  0  0  0  0  0  0  0  0  0
    7.7680  -12.0500   13.2200 N   0  0  0  0  0  0  0  0  0  0  0  0
    7.6860  -13.3740   13.4730 C   0  0  0  0  0  0  0  0  0  0  0  0
    6.7910  -14.1260   12.5940 C   0  0  0  0  0  3  0  0  0  0  0  0
    6.6410  -15.4470   12.7520 C   0  0  0  0  0  3  0  0  0  0  0  0
    7.3520  -16.1260   13.7690 C   0  0  0  0  0  0  0  0  0  0  0  0
    7.3600  -17.3990   14.0900 N   0  0  0  0  0  0  0  0  0  0  0  0
    8.2170  -17.5600   15.1390 N   0  0  0  0  0  0  0  0  0  0  0  0
    8.7290  -16.3830   15.4540 C   0  0  0  0  0  0  0  0  0  0  0  0
    8.2050  -15.4180   14.6130 N   0  0  0  0  0  0  0  0  0  0  0  0
    8.3930  -14.0150   14.4930 C   0  0  0  0  0  0  0  0  0  0  0  0
    9.2130  -13.2350   15.3020 C   0  0  0  0  0  3  0  0  0  0  0  0
    9.3260  -11.8490   15.0730 C   0  0  0  0  0  0  0  0  0  0  0  0
   10.1770  -11.0420   15.9660 C   0  0  0  0  0  0  0  0  0  0  0  0
   11.5550  -11.2940   16.0670 C   0  0  0  0  0  3  0  0  0  0  0  0
   12.3610  -10.5330   16.9160 C   0  0  0  0  0  3  0  0  0  0  0  0
   11.8020   -9.5120   17.6810 C   0  0  0  0  0  3  0  0  0  0  0  0
   10.4360   -9.2540   17.6000 C   0  0  0  0  0  3  0  0  0  0  0  0
    9.6290  -10.0140   16.7510 C   0  0  0  0  0  3  0  0  0  0  0  0
    8.7610   -7.0930   12.8560 C   0  0  0  0  0  0  0  0  0  0  0  0
    7.7280   -7.6270   13.6580 C   0  0  0  0  0  3  0  0  0  0  0  0
    7.6650   -8.9810   14.0190 C   0  0  0  0  0  3  0  0  0  0  0  0
    8.6480   -9.8840   13.6070 C   0  0  0  0  0  0  0  0  0  0  0  0
    9.6730   -9.3890   12.7950 C   0  0  0  0  0  3  0  0  0  0  0  0
    9.7290   -8.0330   12.4350 C   0  0  0  0  0  3  0  0  0  0  0  0
    6.8580   -2.7270   12.2540 C   0  0  0  0  0  1  0  0  0  0  0  0
    7.0370   -4.2120   12.5380 C   0  0  2  0  0  0  0  0  0  0  0  0
    8.2070   -4.5190   13.5060 C   0  0  0  0  0  2  0  0  0  0  0  0
    8.7930   -5.5250   12.4800 C   0  0  2  0  0  0  0  0  0  0  0  0
    7.7770   -4.9970   11.4280 C   0  0  0  0  0  2  0  0  0  0  0  0
   10.1740   -5.1250   12.1020 N   0  0  0  0  0  4  0  0  0  0  0  0
   10.5090   -5.6720   11.2980 H   0  0  0  0  0  0  0  0  0  0  0  0
   10.2440   -4.1340   11.8430 H   0  0  0  0  0  0  0  0  0  0  0  0
   10.8270   -5.2770   12.8830 H   0  0  0  0  0  0  0  0  0  0  0  0
    5.7820   -4.7850   12.9440 O   0  0  0  0  0  0  0  0  0  0  0  0
    5.1120   -4.4960   12.2960 H   0  0  0  0  0  0  0  0  0  0  0  0
    9.7150  -16.1840   16.5320 C   0  0  0  0  0  3  0  0  0  0  0  0
    9.2610  -16.6710   17.7200 F   0  0  0  0  0  0  0  0  0  0  0  0
   10.8810  -16.8340   16.2680 F   0  0  0  0  0  0  0  0  0  0  0  0
  1 13  1  0  0  0  0
  2  3  1  0  0  0  0
  2  1  2  0  0  0  0
  3 11  2  0  0  0  0
  4  5  2  0  0  0  0
  4  3  1  0  0  0  0
  5  6  1  0  0  0  0
  6  7  2  0  0  0  0
  6 10  1  0  0  0  0
  7  8  1  0  0  0  0
  8  9  2  0  0  0  0
  9 37  1  0  0  0  0
 10  9  1  0  0  0  0
 11 10  1  0  0  0  0
 11 12  1  0  0  0  0
 13 12  2  0  0  0  0
 13 14  1  0  0  0  0
 14 15  2  0  0  0  0
 14 19  1  0  0  0  0
 15 16  1  0  0  0  0
 16 17  2  0  0  0  0
 18 17  1  0  0  0  0
 19 18  2  0  0  0  0
 20 21  1  0  0  0  0
 21 22  2  0  0  0  0
 23  1  1  0  0  0  0
 23 22  1  0  0  0  0
 24 23  2  0  0  0  0
 25 24  1  0  0  0  0
 25 20  2  0  0  0  0
 27 26  1  6  0  0  0
 27 35  1  0  0  0  0
 27 28  1  0  0  0  0
 29 31  1  6  0  0  0
 29 20  1  0  0  0  0
 29 28  1  0  0  0  0
 30 29  1  0  0  0  0
 30 27  1  0  0  0  0
 31 34  1  0  0  0  0
 32 31  1  0  0  0  0
 33 31  1  0  0  0  0
 36 35  1  0  0  0  0
 37 38  1  0  0  0  0
 39 37  1  0  0  0  0
M  END
>  <minimizedAffinity>
-11.7955599

$$$$
