
 OpenBabel11232418543D

 39 44  0  0  1  0  0  0  0  0999 V2000
    7.6810   -6.4280   12.0870 C   0  0  0  0  0  0  0  0  0  0  0  0
    7.8980   -5.3910   12.9380 N   0  0  0  0  0  0  0  0  0  0  0  0
    7.7180   -4.1380   12.4650 C   0  0  0  0  0  0  0  0  0  0  0  0
    7.9720   -3.0640   13.4240 C   0  0  0  0  0  3  0  0  0  0  0  0
    7.8320   -1.7840   13.0600 C   0  0  0  0  0  3  0  0  0  0  0  0
    7.4410   -1.4610   11.7390 C   0  0  0  0  0  0  0  0  0  0  0  0
    7.2540   -0.2910   11.1740 N   0  0  0  0  0  0  0  0  0  0  0  0
    6.8910   -0.5050    9.8770 N   0  0  0  0  0  0  0  0  0  0  0  0
    6.8570   -1.8080    9.6550 C   0  0  0  0  0  0  0  0  0  0  0  0
    7.1940   -2.4770   10.8180 N   0  0  0  0  0  0  0  0  0  0  0  0
    7.3200   -3.8510   11.1580 C   0  0  0  0  0  0  0  0  0  0  0  0
    7.0780   -4.9220   10.3040 C   0  0  0  0  0  3  0  0  0  0  0  0
    7.2520   -6.2450   10.7570 C   0  0  0  0  0  0  0  0  0  0  0  0
    6.9590   -7.3610    9.8410 C   0  0  0  0  0  0  0  0  0  0  0  0
    7.4260   -7.3460    8.5160 C   0  0  0  0  0  3  0  0  0  0  0  0
    7.1440   -8.4010    7.6450 C   0  0  0  0  0  3  0  0  0  0  0  0
    6.3860   -9.4840    8.0830 C   0  0  0  0  0  3  0  0  0  0  0  0
    5.9070   -9.5130    9.3900 C   0  0  0  0  0  3  0  0  0  0  0  0
    6.1880   -8.4590   10.2620 C   0  0  0  0  0  3  0  0  0  0  0  0
    8.4800  -10.3420   13.8510 C   0  0  0  0  0  0  0  0  0  0  0  0
    7.3050   -9.6050   14.1220 C   0  0  0  0  0  3  0  0  0  0  0  0
    7.0510   -8.3420   13.5650 C   0  0  0  0  0  3  0  0  0  0  0  0
    7.9580   -7.7460   12.6850 C   0  0  0  0  0  0  0  0  0  0  0  0
    9.1390   -8.4430   12.4130 C   0  0  0  0  0  3  0  0  0  0  0  0
    9.3880   -9.7050   12.9760 C   0  0  0  0  0  3  0  0  0  0  0  0
    7.3000  -14.8660   14.9400 C   0  0  0  0  0  1  0  0  0  0  0  0
    7.2640  -13.4360   14.4190 C   0  0  2  0  0  0  0  0  0  0  0  0
    8.5230  -13.0430   13.6060 C   0  0  0  0  0  2  0  0  0  0  0  0
    8.7170  -11.7950   14.5080 C   0  0  2  0  0  0  0  0  0  0  0  0
    7.6300  -12.3580   15.4680 C   0  0  0  0  0  2  0  0  0  0  0  0
   10.0500  -11.8400   15.1640 N   0  0  0  0  0  4  0  0  0  0  0  0
   10.1250  -11.1210   15.8960 H   0  0  0  0  0  0  0  0  0  0  0  0
   10.2440  -12.7450   15.6090 H   0  0  0  0  0  0  0  0  0  0  0  0
   10.8010  -11.6750   14.4810 H   0  0  0  0  0  0  0  0  0  0  0  0
    6.0270  -13.2010   13.7240 O   0  0  0  0  0  0  0  0  0  0  0  0
    5.3090  -13.5230   14.3010 H   0  0  0  0  0  0  0  0  0  0  0  0
    6.5220   -2.4060    8.3500 C   0  0  0  0  0  3  0  0  0  0  0  0
    5.2930   -2.9910    8.3700 F   0  0  0  0  0  0  0  0  0  0  0  0
    6.4870   -1.4670    7.3660 F   0  0  0  0  0  0  0  0  0  0  0  0
  1 23  1  0  0  0  0
  1  2  1  0  0  0  0
  3  2  2  0  0  0  0
  3  4  1  0  0  0  0
  5  4  2  0  0  0  0
  6  5  1  0  0  0  0
  7  6  2  0  0  0  0
  8  7  1  0  0  0  0
  9  8  2  0  0  0  0
  9 10  1  0  0  0  0
 10 11  1  0  0  0  0
 10  6  1  0  0  0  0
 11  3  1  0  0  0  0
 12 13  1  0  0  0  0
 12 11  2  0  0  0  0
 13  1  2  0  0  0  0
 14 19  1  0  0  0  0
 14 13  1  0  0  0  0
 15 14  2  0  0  0  0
 16 17  2  0  0  0  0
 16 15  1  0  0  0  0
 17 18  1  0  0  0  0
 18 19  2  0  0  0  0
 20 21  1  0  0  0  0
 20 29  1  0  0  0  0
 22 21  2  0  0  0  0
 23 22  1  0  0  0  0
 24 23  2  0  0  0  0
 24 25  1  0  0  0  0
 25 20  2  0  0  0  0
 27 26  1  1  0  0  0
 27 30  1  0  0  0  0
 28 27  1  0  0  0  0
 28 29  1  0  0  0  0
 29 31  1  1  0  0  0
 29 30  1  0  0  0  0
 31 33  1  0  0  0  0
 31 32  1  0  0  0  0
 34 31  1  0  0  0  0
 35 36  1  0  0  0  0
 35 27  1  0  0  0  0
 37 38  1  0  0  0  0
 37  9  1  0  0  0  0
 39 37  1  0  0  0  0
M  END
>  <minimizedAffinity>
-12.6293736

$$$$
