
 OpenBabel11232418543D

 39 44  0  0  1  0  0  0  0  0999 V2000
    8.0590   -7.4040   13.9510 C   0  0  0  0  0  0  0  0  0  0  0  0
    8.4630   -7.6010   15.2340 N   0  0  0  0  0  0  0  0  0  0  0  0
    8.6840   -8.8710   15.6370 C   0  0  0  0  0  0  0  0  0  0  0  0
    9.1100   -9.0220   17.0280 C   0  0  0  0  0  3  0  0  0  0  0  0
    9.3490  -10.2380   17.5350 C   0  0  0  0  0  3  0  0  0  0  0  0
    9.1850  -11.3880   16.7270 C   0  0  0  0  0  0  0  0  0  0  0  0
    9.3540  -12.6570   17.0170 N   0  0  0  0  0  0  0  0  0  0  0  0
    9.0600  -13.3850   15.9020 N   0  0  0  0  0  0  0  0  0  0  0  0
    8.7130  -12.5550   14.9340 C   0  0  0  0  0  0  0  0  0  0  0  0
    8.7810  -11.2550   15.4000 N   0  0  0  0  0  0  0  0  0  0  0  0
    8.5230   -9.9870   14.8130 C   0  0  0  0  0  0  0  0  0  0  0  0
    8.1320   -9.7690   13.4960 C   0  0  0  0  0  3  0  0  0  0  0  0
    7.8930   -8.4600   13.0330 C   0  0  0  0  0  0  0  0  0  0  0  0
    7.5110   -8.2550   11.6250 C   0  0  0  0  0  0  0  0  0  0  0  0
    6.3860   -8.9000   11.0840 C   0  0  0  0  0  3  0  0  0  0  0  0
    6.0250   -8.7110    9.7490 C   0  0  0  0  0  3  0  0  0  0  0  0
    6.7860   -7.8780    8.9310 C   0  0  0  0  0  3  0  0  0  0  0  0
    7.9100   -7.2380    9.4470 C   0  0  0  0  0  3  0  0  0  0  0  0
    8.2710   -7.4260   10.7830 C   0  0  0  0  0  3  0  0  0  0  0  0
    7.2940   -3.2140   12.9860 C   0  0  0  0  0  0  0  0  0  0  0  0
    8.5580   -3.6840   13.4080 C   0  0  0  0  0  3  0  0  0  0  0  0
    8.8030   -5.0280   13.7290 C   0  0  0  0  0  3  0  0  0  0  0  0
    7.7940   -5.9890   13.6320 C   0  0  0  0  0  0  0  0  0  0  0  0
    6.5270   -5.5500   13.2360 C   0  0  0  0  0  3  0  0  0  0  0  0
    6.2870   -4.2040   12.9180 C   0  0  0  0  0  3  0  0  0  0  0  0
    6.8380    0.5270   10.0120 C   0  0  0  0  0  1  0  0  0  0  0  0
    7.0550   -0.8720   10.5700 C   0  0  2  0  0  0  0  0  0  0  0  0
    5.9660   -1.3100   11.5820 C   0  0  0  0  0  2  0  0  0  0  0  0
    7.0680   -1.6610   12.6170 C   0  0  2  0  0  0  0  0  0  0  0  0
    8.1110   -0.9600   11.6990 C   0  0  0  0  0  2  0  0  0  0  0  0
    6.8710   -0.8700   13.8610 N   0  0  0  0  0  4  0  0  0  0  0  0
    7.6850   -0.9560   14.4840 H   0  0  0  0  0  0  0  0  0  0  0  0
    6.7340    0.1310   13.6790 H   0  0  0  0  0  0  0  0  0  0  0  0
    6.0430   -1.1970   14.3760 H   0  0  0  0  0  0  0  0  0  0  0  0
    7.2530   -1.8020    9.4910 O   0  0  0  0  0  0  0  0  0  0  0  0
    7.9200   -1.4120    8.8950 H   0  0  0  0  0  0  0  0  0  0  0  0
    8.3080  -12.9970   13.5860 C   0  0  0  0  0  3  0  0  0  0  0  0
    8.4770  -14.3390   13.4290 F   0  0  0  0  0  0  0  0  0  0  0  0
    6.9910  -12.7440   13.3530 F   0  0  0  0  0  0  0  0  0  0  0  0
  1  2  1  0  0  0  0
  2  3  2  0  0  0  0
  3  4  1  0  0  0  0
  4  5  2  0  0  0  0
  6  7  2  0  0  0  0
  6  5  1  0  0  0  0
  8  7  1  0  0  0  0
  9 10  1  0  0  0  0
  9  8  2  0  0  0  0
 10  6  1  0  0  0  0
 11 10  1  0  0  0  0
 11  3  1  0  0  0  0
 12 11  2  0  0  0  0
 13 12  1  0  0  0  0
 13  1  2  0  0  0  0
 14 13  1  0  0  0  0
 15 14  1  0  0  0  0
 16 15  2  0  0  0  0
 17 18  2  0  0  0  0
 17 16  1  0  0  0  0
 18 19  1  0  0  0  0
 19 14  2  0  0  0  0
 20 21  1  0  0  0  0
 21 22  2  0  0  0  0
 23 22  1  0  0  0  0
 23  1  1  0  0  0  0
 24 23  2  0  0  0  0
 25 20  2  0  0  0  0
 25 24  1  0  0  0  0
 27 26  1  6  0  0  0
 27 28  1  0  0  0  0
 27 30  1  0  0  0  0
 28 29  1  0  0  0  0
 29 20  1  0  0  0  0
 29 31  1  1  0  0  0
 30 29  1  0  0  0  0
 31 34  1  0  0  0  0
 31 32  1  0  0  0  0
 33 31  1  0  0  0  0
 35 27  1  0  0  0  0
 36 35  1  0  0  0  0
 37  9  1  0  0  0  0
 38 37  1  0  0  0  0
 39 37  1  0  0  0  0
M  END
>  <minimizedAffinity>
-11.1209955

$$$$
