
 OpenBabel11232418543D

 39 44  0  0  1  0  0  0  0  0999 V2000
    8.1410   -5.0280   12.7380 C   0  0  0  0  0  0  0  0  0  0  0  0
    8.4340   -3.8420   13.3330 N   0  0  0  0  0  0  0  0  0  0  0  0
    8.0830   -2.7080   12.6880 C   0  0  0  0  0  0  0  0  0  0  0  0
    8.4290   -1.4640   13.3740 C   0  0  0  0  0  3  0  0  0  0  0  0
    8.1350   -0.2810   12.8200 C   0  0  0  0  0  3  0  0  0  0  0  0
    7.4900   -0.2280   11.5620 C   0  0  0  0  0  0  0  0  0  0  0  0
    7.1220    0.8070   10.8430 N   0  0  0  0  0  0  0  0  0  0  0  0
    6.5470    0.3390    9.6980 N   0  0  0  0  0  0  0  0  0  0  0  0
    6.5670   -0.9830    9.7230 C   0  0  0  0  0  0  0  0  0  0  0  0
    7.1550   -1.4080   10.9010 N   0  0  0  0  0  0  0  0  0  0  0  0
    7.4370   -2.6870   11.4500 C   0  0  0  0  0  0  0  0  0  0  0  0
    7.1220   -3.9090   10.8630 C   0  0  0  0  0  3  0  0  0  0  0  0
    7.4690   -5.1150   11.5030 C   0  0  0  0  0  0  0  0  0  0  0  0
    7.0950   -6.3940   10.8740 C   0  0  0  0  0  0  0  0  0  0  0  0
    6.3370   -7.3460   11.5750 C   0  0  0  0  0  3  0  0  0  0  0  0
    5.9860   -8.5600   10.9820 C   0  0  0  0  0  3  0  0  0  0  0  0
    6.3910   -8.8450    9.6800 C   0  0  0  0  0  3  0  0  0  0  0  0
    7.1510   -7.9170    8.9720 C   0  0  0  0  0  3  0  0  0  0  0  0
    7.5020   -6.7020    9.5650 C   0  0  0  0  0  3  0  0  0  0  0  0
    9.5190   -8.5040   14.9950 C   0  0  0  0  0  0  0  0  0  0  0  0
    8.5830   -7.5780   15.5090 C   0  0  0  0  0  3  0  0  0  0  0  0
    8.1470   -6.4550   14.7900 C   0  0  0  0  0  3  0  0  0  0  0  0
    8.6150   -6.1980   13.4990 C   0  0  0  0  0  0  0  0  0  0  0  0
    9.5580   -7.0860   12.9710 C   0  0  0  0  0  3  0  0  0  0  0  0
    9.9920   -8.2070   13.6960 C   0  0  0  0  0  3  0  0  0  0  0  0
   11.5040  -10.7270   18.7590 C   0  0  0  0  0  1  0  0  0  0  0  0
   11.0160   -9.6620   17.7870 C   0  0  2  0  0  0  0  0  0  0  0  0
    9.5430   -9.8540   17.3470 C   0  0  0  0  0  2  0  0  0  0  0  0
    9.9780   -9.7850   15.8580 C   0  0  2  0  0  0  0  0  0  0  0  0
   11.4610   -9.8740   16.3190 C   0  0  0  0  0  2  0  0  0  0  0  0
    9.5870  -11.0350   15.1530 N   0  0  0  0  0  4  0  0  0  0  0  0
   10.0200  -11.0820   14.2210 H   0  0  0  0  0  0  0  0  0  0  0  0
    9.8680  -11.8820   15.6600 H   0  0  0  0  0  0  0  0  0  0  0  0
    8.5670  -11.0830   15.0310 H   0  0  0  0  0  0  0  0  0  0  0  0
   11.2970   -8.3540   18.3150 O   0  0  0  0  0  0  0  0  0  0  0  0
   12.2300   -8.3550   18.6000 H   0  0  0  0  0  0  0  0  0  0  0  0
    6.0460   -1.8280    8.6330 C   0  0  0  0  0  3  0  0  0  0  0  0
    5.5780   -1.0760    7.5990 F   0  0  0  0  0  0  0  0  0  0  0  0
    7.0160   -2.6320    8.1190 F   0  0  0  0  0  0  0  0  0  0  0  0
  1  2  1  0  0  0  0
  1 23  1  0  0  0  0
  3  2  2  0  0  0  0
  3  4  1  0  0  0  0
  5  4  2  0  0  0  0
  6  5  1  0  0  0  0
  7  6  2  0  0  0  0
  8  9  2  0  0  0  0
  8  7  1  0  0  0  0
  9 10  1  0  0  0  0
 10 11  1  0  0  0  0
 10  6  1  0  0  0  0
 11  3  1  0  0  0  0
 12 11  2  0  0  0  0
 12 13  1  0  0  0  0
 13  1  2  0  0  0  0
 14 13  1  0  0  0  0
 14 15  1  0  0  0  0
 16 15  2  0  0  0  0
 17 16  1  0  0  0  0
 18 19  1  0  0  0  0
 18 17  2  0  0  0  0
 19 14  2  0  0  0  0
 20 21  1  0  0  0  0
 20 29  1  0  0  0  0
 22 21  2  0  0  0  0
 23 22  1  0  0  0  0
 24 23  2  0  0  0  0
 24 25  1  0  0  0  0
 25 20  2  0  0  0  0
 27 35  1  0  0  0  0
 27 26  1  1  0  0  0
 28 27  1  0  0  0  0
 29 31  1  6  0  0  0
 29 30  1  0  0  0  0
 29 28  1  0  0  0  0
 30 27  1  0  0  0  0
 31 33  1  0  0  0  0
 32 31  1  0  0  0  0
 34 31  1  0  0  0  0
 35 36  1  0  0  0  0
 37  9  1  0  0  0  0
 38 37  1  0  0  0  0
 39 37  1  0  0  0  0
M  END
>  <minimizedAffinity>
-12.781888

$$$$
