
 OpenBabel11232418543D

 39 44  0  0  1  0  0  0  0  0999 V2000
    7.4700   -7.0140    9.9090 C   0  0  0  0  0  0  0  0  0  0  0  0
    7.6450   -7.9230    8.9140 N   0  0  0  0  0  0  0  0  0  0  0  0
    7.3020   -7.5600    7.6600 C   0  0  0  0  0  0  0  0  0  0  0  0
    7.5070   -8.5820    6.6330 C   0  0  0  0  0  3  0  0  0  0  0  0
    7.1920   -8.3320    5.3570 C   0  0  0  0  0  3  0  0  0  0  0  0
    6.6530   -7.0750    4.9920 C   0  0  0  0  0  0  0  0  0  0  0  0
    6.2720   -6.6270    3.8190 N   0  0  0  0  0  0  0  0  0  0  0  0
    5.8110   -5.3540    3.9860 N   0  0  0  0  0  0  0  0  0  0  0  0
    5.9130   -5.0310    5.2640 C   0  0  0  0  0  0  0  0  0  0  0  0
    6.4550   -6.0950    5.9620 N   0  0  0  0  0  0  0  0  0  0  0  0
    6.7810   -6.3080    7.3280 C   0  0  0  0  0  0  0  0  0  0  0  0
    6.6290   -5.3780    8.3520 C   0  0  0  0  0  3  0  0  0  0  0  0
    6.9760   -5.7150    9.6750 C   0  0  0  0  0  0  0  0  0  0  0  0
    6.8340   -4.7000   10.7340 C   0  0  0  0  0  0  0  0  0  0  0  0
    6.1670   -5.0010   11.9330 C   0  0  0  0  0  3  0  0  0  0  0  0
    6.0270   -4.0400   12.9360 C   0  0  0  0  0  3  0  0  0  0  0  0
    6.5470   -2.7600   12.7540 C   0  0  0  0  0  3  0  0  0  0  0  0
    7.2040   -2.4410   11.5680 C   0  0  0  0  0  3  0  0  0  0  0  0
    7.3440   -3.4020   10.5650 C   0  0  0  0  0  3  0  0  0  0  0  0
    8.5230   -8.5150   13.8720 C   0  0  0  0  0  0  0  0  0  0  0  0
    9.3960   -7.7170   13.0980 C   0  0  0  0  0  3  0  0  0  0  0  0
    9.0640   -7.2430   11.8210 C   0  0  0  0  0  3  0  0  0  0  0  0
    7.8240   -7.5290   11.2440 C   0  0  0  0  0  0  0  0  0  0  0  0
    6.9470   -8.3330   11.9780 C   0  0  0  0  0  3  0  0  0  0  0  0
    7.2850   -8.8070   13.2550 C   0  0  0  0  0  3  0  0  0  0  0  0
   11.3320   -8.7120   17.7610 C   0  0  0  0  0  1  0  0  0  0  0  0
   10.7670   -8.3800   16.3860 C   0  0  2  0  0  0  0  0  0  0  0  0
    9.2780   -7.9540   16.4160 C   0  0  0  0  0  2  0  0  0  0  0  0
    8.9490   -9.0240   15.3410 C   0  0  2  0  0  0  0  0  0  0  0  0
   10.3760   -9.6120   15.5350 C   0  0  0  0  0  2  0  0  0  0  0  0
    7.9310   -9.9750   15.8610 N   0  0  0  0  0  4  0  0  0  0  0  0
    7.8330  -10.7860   15.2370 H   0  0  0  0  0  0  0  0  0  0  0  0
    8.1640  -10.3370   16.7930 H   0  0  0  0  0  0  0  0  0  0  0  0
    7.0110   -9.5210   15.9370 H   0  0  0  0  0  0  0  0  0  0  0  0
   11.6270   -7.4390   15.7200 O   0  0  0  0  0  0  0  0  0  0  0  0
   12.5380   -7.7790   15.7980 H   0  0  0  0  0  0  0  0  0  0  0  0
    5.4850   -3.7310    5.8140 C   0  0  0  0  0  3  0  0  0  0  0  0
    6.4990   -3.1160    6.4830 F   0  0  0  0  0  0  0  0  0  0  0  0
    5.0980   -2.8760    4.8290 F   0  0  0  0  0  0  0  0  0  0  0  0
  1 23  1  0  0  0  0
  2  1  2  0  0  0  0
  3  2  1  0  0  0  0
  4  3  1  0  0  0  0
  5  4  2  0  0  0  0
  6  5  1  0  0  0  0
  6 10  1  0  0  0  0
  7  8  1  0  0  0  0
  7  6  2  0  0  0  0
  8  9  2  0  0  0  0
  9 37  1  0  0  0  0
  9 10  1  0  0  0  0
 10 11  1  0  0  0  0
 11  3  2  0  0  0  0
 11 12  1  0  0  0  0
 12 13  2  0  0  0  0
 13  1  1  0  0  0  0
 13 14  1  0  0  0  0
 14 15  1  0  0  0  0
 15 16  2  0  0  0  0
 17 16  1  0  0  0  0
 18 17  2  0  0  0  0
 19 14  2  0  0  0  0
 19 18  1  0  0  0  0
 20 29  1  0  0  0  0
 21 20  2  0  0  0  0
 22 21  1  0  0  0  0
 23 22  2  0  0  0  0
 23 24  1  0  0  0  0
 24 25  2  0  0  0  0
 25 20  1  0  0  0  0
 27 28  1  0  0  0  0
 27 26  1  1  0  0  0
 29 30  1  0  0  0  0
 29 31  1  1  0  0  0
 29 28  1  0  0  0  0
 30 27  1  0  0  0  0
 31 34  1  0  0  0  0
 31 33  1  0  0  0  0
 32 31  1  0  0  0  0
 35 36  1  0  0  0  0
 35 27  1  0  0  0  0
 37 38  1  0  0  0  0
 39 37  1  0  0  0  0
M  END
>  <minimizedAffinity>
-12.8094854

$$$$

 OpenBabel11232418543D

 39 44  0  0  1  0  0  0  0  0999 V2000
    8.1410   -5.0280   12.7380 C   0  0  0  0  0  0  0  0  0  0  0  0
    8.4340   -3.8420   13.3330 N   0  0  0  0  0  0  0  0  0  0  0  0
    8.0830   -2.7080   12.6880 C   0  0  0  0  0  0  0  0  0  0  0  0
    8.4290   -1.4640   13.3740 C   0  0  0  0  0  3  0  0  0  0  0  0
    8.1350   -0.2810   12.8200 C   0  0  0  0  0  3  0  0  0  0  0  0
    7.4900   -0.2280   11.5620 C   0  0  0  0  0  0  0  0  0  0  0  0
    7.1220    0.8070   10.8430 N   0  0  0  0  0  0  0  0  0  0  0  0
    6.5470    0.3390    9.6980 N   0  0  0  0  0  0  0  0  0  0  0  0
    6.5670   -0.9830    9.7230 C   0  0  0  0  0  0  0  0  0  0  0  0
    7.1550   -1.4080   10.9010 N   0  0  0  0  0  0  0  0  0  0  0  0
    7.4370   -2.6870   11.4500 C   0  0  0  0  0  0  0  0  0  0  0  0
    7.1220   -3.9090   10.8630 C   0  0  0  0  0  3  0  0  0  0  0  0
    7.4690   -5.1150   11.5030 C   0  0  0  0  0  0  0  0  0  0  0  0
    7.0950   -6.3940   10.8740 C   0  0  0  0  0  0  0  0  0  0  0  0
    6.3370   -7.3460   11.5750 C   0  0  0  0  0  3  0  0  0  0  0  0
    5.9860   -8.5600   10.9820 C   0  0  0  0  0  3  0  0  0  0  0  0
    6.3910   -8.8450    9.6800 C   0  0  0  0  0  3  0  0  0  0  0  0
    7.1510   -7.9170    8.9720 C   0  0  0  0  0  3  0  0  0  0  0  0
    7.5020   -6.7020    9.5650 C   0  0  0  0  0  3  0  0  0  0  0  0
    9.5190   -8.5040   14.9950 C   0  0  0  0  0  0  0  0  0  0  0  0
    8.5830   -7.5780   15.5090 C   0  0  0  0  0  3  0  0  0  0  0  0
    8.1470   -6.4550   14.7900 C   0  0  0  0  0  3  0  0  0  0  0  0
    8.6150   -6.1980   13.4990 C   0  0  0  0  0  0  0  0  0  0  0  0
    9.5580   -7.0860   12.9710 C   0  0  0  0  0  3  0  0  0  0  0  0
    9.9920   -8.2070   13.6960 C   0  0  0  0  0  3  0  0  0  0  0  0
   11.5040  -10.7270   18.7590 C   0  0  0  0  0  1  0  0  0  0  0  0
   11.0160   -9.6620   17.7870 C   0  0  2  0  0  0  0  0  0  0  0  0
    9.5430   -9.8540   17.3470 C   0  0  0  0  0  2  0  0  0  0  0  0
    9.9780   -9.7850   15.8580 C   0  0  2  0  0  0  0  0  0  0  0  0
   11.4610   -9.8740   16.3190 C   0  0  0  0  0  2  0  0  0  0  0  0
    9.5870  -11.0350   15.1530 N   0  0  0  0  0  4  0  0  0  0  0  0
   10.0200  -11.0820   14.2210 H   0  0  0  0  0  0  0  0  0  0  0  0
    9.8680  -11.8820   15.6600 H   0  0  0  0  0  0  0  0  0  0  0  0
    8.5670  -11.0830   15.0310 H   0  0  0  0  0  0  0  0  0  0  0  0
   11.2970   -8.3540   18.3150 O   0  0  0  0  0  0  0  0  0  0  0  0
   12.2300   -8.3550   18.6000 H   0  0  0  0  0  0  0  0  0  0  0  0
    6.0460   -1.8280    8.6330 C   0  0  0  0  0  3  0  0  0  0  0  0
    5.5780   -1.0760    7.5990 F   0  0  0  0  0  0  0  0  0  0  0  0
    7.0160   -2.6320    8.1190 F   0  0  0  0  0  0  0  0  0  0  0  0
  1  2  1  0  0  0  0
  1 23  1  0  0  0  0
  3  2  2  0  0  0  0
  3  4  1  0  0  0  0
  5  4  2  0  0  0  0
  6  5  1  0  0  0  0
  7  6  2  0  0  0  0
  8  9  2  0  0  0  0
  8  7  1  0  0  0  0
  9 10  1  0  0  0  0
 10 11  1  0  0  0  0
 10  6  1  0  0  0  0
 11  3  1  0  0  0  0
 12 11  2  0  0  0  0
 12 13  1  0  0  0  0
 13  1  2  0  0  0  0
 14 13  1  0  0  0  0
 14 15  1  0  0  0  0
 16 15  2  0  0  0  0
 17 16  1  0  0  0  0
 18 19  1  0  0  0  0
 18 17  2  0  0  0  0
 19 14  2  0  0  0  0
 20 21  1  0  0  0  0
 20 29  1  0  0  0  0
 22 21  2  0  0  0  0
 23 22  1  0  0  0  0
 24 23  2  0  0  0  0
 24 25  1  0  0  0  0
 25 20  2  0  0  0  0
 27 35  1  0  0  0  0
 27 26  1  1  0  0  0
 28 27  1  0  0  0  0
 29 31  1  6  0  0  0
 29 30  1  0  0  0  0
 29 28  1  0  0  0  0
 30 27  1  0  0  0  0
 31 33  1  0  0  0  0
 32 31  1  0  0  0  0
 34 31  1  0  0  0  0
 35 36  1  0  0  0  0
 37  9  1  0  0  0  0
 38 37  1  0  0  0  0
 39 37  1  0  0  0  0
M  END
>  <minimizedAffinity>
-12.781888

$$$$

 OpenBabel11232418543D

 39 44  0  0  1  0  0  0  0  0999 V2000
    7.6810   -6.4280   12.0870 C   0  0  0  0  0  0  0  0  0  0  0  0
    7.8980   -5.3910   12.9380 N   0  0  0  0  0  0  0  0  0  0  0  0
    7.7180   -4.1380   12.4650 C   0  0  0  0  0  0  0  0  0  0  0  0
    7.9720   -3.0640   13.4240 C   0  0  0  0  0  3  0  0  0  0  0  0
    7.8320   -1.7840   13.0600 C   0  0  0  0  0  3  0  0  0  0  0  0
    7.4410   -1.4610   11.7390 C   0  0  0  0  0  0  0  0  0  0  0  0
    7.2540   -0.2910   11.1740 N   0  0  0  0  0  0  0  0  0  0  0  0
    6.8910   -0.5050    9.8770 N   0  0  0  0  0  0  0  0  0  0  0  0
    6.8570   -1.8080    9.6550 C   0  0  0  0  0  0  0  0  0  0  0  0
    7.1940   -2.4770   10.8180 N   0  0  0  0  0  0  0  0  0  0  0  0
    7.3200   -3.8510   11.1580 C   0  0  0  0  0  0  0  0  0  0  0  0
    7.0780   -4.9220   10.3040 C   0  0  0  0  0  3  0  0  0  0  0  0
    7.2520   -6.2450   10.7570 C   0  0  0  0  0  0  0  0  0  0  0  0
    6.9590   -7.3610    9.8410 C   0  0  0  0  0  0  0  0  0  0  0  0
    7.4260   -7.3460    8.5160 C   0  0  0  0  0  3  0  0  0  0  0  0
    7.1440   -8.4010    7.6450 C   0  0  0  0  0  3  0  0  0  0  0  0
    6.3860   -9.4840    8.0830 C   0  0  0  0  0  3  0  0  0  0  0  0
    5.9070   -9.5130    9.3900 C   0  0  0  0  0  3  0  0  0  0  0  0
    6.1880   -8.4590   10.2620 C   0  0  0  0  0  3  0  0  0  0  0  0
    8.4800  -10.3420   13.8510 C   0  0  0  0  0  0  0  0  0  0  0  0
    7.3050   -9.6050   14.1220 C   0  0  0  0  0  3  0  0  0  0  0  0
    7.0510   -8.3420   13.5650 C   0  0  0  0  0  3  0  0  0  0  0  0
    7.9580   -7.7460   12.6850 C   0  0  0  0  0  0  0  0  0  0  0  0
    9.1390   -8.4430   12.4130 C   0  0  0  0  0  3  0  0  0  0  0  0
    9.3880   -9.7050   12.9760 C   0  0  0  0  0  3  0  0  0  0  0  0
    7.3000  -14.8660   14.9400 C   0  0  0  0  0  1  0  0  0  0  0  0
    7.2640  -13.4360   14.4190 C   0  0  2  0  0  0  0  0  0  0  0  0
    8.5230  -13.0430   13.6060 C   0  0  0  0  0  2  0  0  0  0  0  0
    8.7170  -11.7950   14.5080 C   0  0  2  0  0  0  0  0  0  0  0  0
    7.6300  -12.3580   15.4680 C   0  0  0  0  0  2  0  0  0  0  0  0
   10.0500  -11.8400   15.1640 N   0  0  0  0  0  4  0  0  0  0  0  0
   10.1250  -11.1210   15.8960 H   0  0  0  0  0  0  0  0  0  0  0  0
   10.2440  -12.7450   15.6090 H   0  0  0  0  0  0  0  0  0  0  0  0
   10.8010  -11.6750   14.4810 H   0  0  0  0  0  0  0  0  0  0  0  0
    6.0270  -13.2010   13.7240 O   0  0  0  0  0  0  0  0  0  0  0  0
    5.3090  -13.5230   14.3010 H   0  0  0  0  0  0  0  0  0  0  0  0
    6.5220   -2.4060    8.3500 C   0  0  0  0  0  3  0  0  0  0  0  0
    5.2930   -2.9910    8.3700 F   0  0  0  0  0  0  0  0  0  0  0  0
    6.4870   -1.4670    7.3660 F   0  0  0  0  0  0  0  0  0  0  0  0
  1 23  1  0  0  0  0
  1  2  1  0  0  0  0
  3  2  2  0  0  0  0
  3  4  1  0  0  0  0
  5  4  2  0  0  0  0
  6  5  1  0  0  0  0
  7  6  2  0  0  0  0
  8  7  1  0  0  0  0
  9  8  2  0  0  0  0
  9 10  1  0  0  0  0
 10 11  1  0  0  0  0
 10  6  1  0  0  0  0
 11  3  1  0  0  0  0
 12 13  1  0  0  0  0
 12 11  2  0  0  0  0
 13  1  2  0  0  0  0
 14 19  1  0  0  0  0
 14 13  1  0  0  0  0
 15 14  2  0  0  0  0
 16 17  2  0  0  0  0
 16 15  1  0  0  0  0
 17 18  1  0  0  0  0
 18 19  2  0  0  0  0
 20 21  1  0  0  0  0
 20 29  1  0  0  0  0
 22 21  2  0  0  0  0
 23 22  1  0  0  0  0
 24 23  2  0  0  0  0
 24 25  1  0  0  0  0
 25 20  2  0  0  0  0
 27 26  1  1  0  0  0
 27 30  1  0  0  0  0
 28 27  1  0  0  0  0
 28 29  1  0  0  0  0
 29 31  1  1  0  0  0
 29 30  1  0  0  0  0
 31 33  1  0  0  0  0
 31 32  1  0  0  0  0
 34 31  1  0  0  0  0
 35 36  1  0  0  0  0
 35 27  1  0  0  0  0
 37 38  1  0  0  0  0
 37  9  1  0  0  0  0
 39 37  1  0  0  0  0
M  END
>  <minimizedAffinity>
-12.6293736

$$$$

 OpenBabel11232418543D

 39 44  0  0  1  0  0  0  0  0999 V2000
    8.5900  -11.3030   14.0030 C   0  0  0  0  0  0  0  0  0  0  0  0
    7.7680  -12.0500   13.2200 N   0  0  0  0  0  0  0  0  0  0  0  0
    7.6860  -13.3740   13.4730 C   0  0  0  0  0  0  0  0  0  0  0  0
    6.7910  -14.1260   12.5940 C   0  0  0  0  0  3  0  0  0  0  0  0
    6.6410  -15.4470   12.7520 C   0  0  0  0  0  3  0  0  0  0  0  0
    7.3520  -16.1260   13.7690 C   0  0  0  0  0  0  0  0  0  0  0  0
    7.3600  -17.3990   14.0900 N   0  0  0  0  0  0  0  0  0  0  0  0
    8.2170  -17.5600   15.1390 N   0  0  0  0  0  0  0  0  0  0  0  0
    8.7290  -16.3830   15.4540 C   0  0  0  0  0  0  0  0  0  0  0  0
    8.2050  -15.4180   14.6130 N   0  0  0  0  0  0  0  0  0  0  0  0
    8.3930  -14.0150   14.4930 C   0  0  0  0  0  0  0  0  0  0  0  0
    9.2130  -13.2350   15.3020 C   0  0  0  0  0  3  0  0  0  0  0  0
    9.3260  -11.8490   15.0730 C   0  0  0  0  0  0  0  0  0  0  0  0
   10.1770  -11.0420   15.9660 C   0  0  0  0  0  0  0  0  0  0  0  0
   11.5550  -11.2940   16.0670 C   0  0  0  0  0  3  0  0  0  0  0  0
   12.3610  -10.5330   16.9160 C   0  0  0  0  0  3  0  0  0  0  0  0
   11.8020   -9.5120   17.6810 C   0  0  0  0  0  3  0  0  0  0  0  0
   10.4360   -9.2540   17.6000 C   0  0  0  0  0  3  0  0  0  0  0  0
    9.6290  -10.0140   16.7510 C   0  0  0  0  0  3  0  0  0  0  0  0
    8.7610   -7.0930   12.8560 C   0  0  0  0  0  0  0  0  0  0  0  0
    7.7280   -7.6270   13.6580 C   0  0  0  0  0  3  0  0  0  0  0  0
    7.6650   -8.9810   14.0190 C   0  0  0  0  0  3  0  0  0  0  0  0
    8.6480   -9.8840   13.6070 C   0  0  0  0  0  0  0  0  0  0  0  0
    9.6730   -9.3890   12.7950 C   0  0  0  0  0  3  0  0  0  0  0  0
    9.7290   -8.0330   12.4350 C   0  0  0  0  0  3  0  0  0  0  0  0
    6.8580   -2.7270   12.2540 C   0  0  0  0  0  1  0  0  0  0  0  0
    7.0370   -4.2120   12.5380 C   0  0  2  0  0  0  0  0  0  0  0  0
    8.2070   -4.5190   13.5060 C   0  0  0  0  0  2  0  0  0  0  0  0
    8.7930   -5.5250   12.4800 C   0  0  2  0  0  0  0  0  0  0  0  0
    7.7770   -4.9970   11.4280 C   0  0  0  0  0  2  0  0  0  0  0  0
   10.1740   -5.1250   12.1020 N   0  0  0  0  0  4  0  0  0  0  0  0
   10.5090   -5.6720   11.2980 H   0  0  0  0  0  0  0  0  0  0  0  0
   10.2440   -4.1340   11.8430 H   0  0  0  0  0  0  0  0  0  0  0  0
   10.8270   -5.2770   12.8830 H   0  0  0  0  0  0  0  0  0  0  0  0
    5.7820   -4.7850   12.9440 O   0  0  0  0  0  0  0  0  0  0  0  0
    5.1120   -4.4960   12.2960 H   0  0  0  0  0  0  0  0  0  0  0  0
    9.7150  -16.1840   16.5320 C   0  0  0  0  0  3  0  0  0  0  0  0
    9.2610  -16.6710   17.7200 F   0  0  0  0  0  0  0  0  0  0  0  0
   10.8810  -16.8340   16.2680 F   0  0  0  0  0  0  0  0  0  0  0  0
  1 13  1  0  0  0  0
  2  3  1  0  0  0  0
  2  1  2  0  0  0  0
  3 11  2  0  0  0  0
  4  5  2  0  0  0  0
  4  3  1  0  0  0  0
  5  6  1  0  0  0  0
  6  7  2  0  0  0  0
  6 10  1  0  0  0  0
  7  8  1  0  0  0  0
  8  9  2  0  0  0  0
  9 37  1  0  0  0  0
 10  9  1  0  0  0  0
 11 10  1  0  0  0  0
 11 12  1  0  0  0  0
 13 12  2  0  0  0  0
 13 14  1  0  0  0  0
 14 15  2  0  0  0  0
 14 19  1  0  0  0  0
 15 16  1  0  0  0  0
 16 17  2  0  0  0  0
 18 17  1  0  0  0  0
 19 18  2  0  0  0  0
 20 21  1  0  0  0  0
 21 22  2  0  0  0  0
 23  1  1  0  0  0  0
 23 22  1  0  0  0  0
 24 23  2  0  0  0  0
 25 24  1  0  0  0  0
 25 20  2  0  0  0  0
 27 26  1  6  0  0  0
 27 35  1  0  0  0  0
 27 28  1  0  0  0  0
 29 31  1  6  0  0  0
 29 20  1  0  0  0  0
 29 28  1  0  0  0  0
 30 29  1  0  0  0  0
 30 27  1  0  0  0  0
 31 34  1  0  0  0  0
 32 31  1  0  0  0  0
 33 31  1  0  0  0  0
 36 35  1  0  0  0  0
 37 38  1  0  0  0  0
 39 37  1  0  0  0  0
M  END
>  <minimizedAffinity>
-11.7955599

$$$$

 OpenBabel11232418543D

 39 44  0  0  1  0  0  0  0  0999 V2000
    8.3850  -11.4090   13.9840 C   0  0  0  0  0  0  0  0  0  0  0  0
    7.6690  -12.3160   13.2690 N   0  0  0  0  0  0  0  0  0  0  0  0
    7.7440  -13.6130   13.6370 C   0  0  0  0  0  0  0  0  0  0  0  0
    6.9570  -14.5420   12.8270 C   0  0  0  0  0  3  0  0  0  0  0  0
    6.9660  -15.8530   13.1000 C   0  0  0  0  0  3  0  0  0  0  0  0
    7.7430  -16.3490   14.1730 C   0  0  0  0  0  0  0  0  0  0  0  0
    7.9020  -17.5780   14.6040 N   0  0  0  0  0  0  0  0  0  0  0  0
    8.7610  -17.5430   15.6630 N   0  0  0  0  0  0  0  0  0  0  0  0
    9.1230  -16.2890   15.8740 C   0  0  0  0  0  0  0  0  0  0  0  0
    8.4950  -15.4720   14.9520 N   0  0  0  0  0  0  0  0  0  0  0  0
    8.5130  -14.0720   14.7090 C   0  0  0  0  0  0  0  0  0  0  0  0
    9.2230  -13.1310   15.4470 C   0  0  0  0  0  3  0  0  0  0  0  0
    9.1700  -11.7670   15.0980 C   0  0  0  0  0  0  0  0  0  0  0  0
    9.9070  -10.7880   15.9170 C   0  0  0  0  0  0  0  0  0  0  0  0
    9.2430   -9.7020   16.5100 C   0  0  0  0  0  3  0  0  0  0  0  0
    9.9400   -8.7710   17.2820 C   0  0  0  0  0  3  0  0  0  0  0  0
   11.3140   -8.9070   17.4680 C   0  0  0  0  0  3  0  0  0  0  0  0
   11.9920   -9.9720   16.8800 C   0  0  0  0  0  3  0  0  0  0  0  0
   11.2950  -10.9040   16.1080 C   0  0  0  0  0  3  0  0  0  0  0  0
    8.0540   -7.3250   12.4720 C   0  0  0  0  0  0  0  0  0  0  0  0
    7.0210   -7.9600   13.1980 C   0  0  0  0  0  3  0  0  0  0  0  0
    7.1210   -9.2750   13.6750 C   0  0  0  0  0  3  0  0  0  0  0  0
    8.2750  -10.0340   13.4650 C   0  0  0  0  0  0  0  0  0  0  0  0
    9.3070   -9.4400   12.7320 C   0  0  0  0  0  3  0  0  0  0  0  0
    9.2000   -8.1240   12.2560 C   0  0  0  0  0  3  0  0  0  0  0  0
    8.3780   -2.5500   12.8440 C   0  0  0  0  0  1  0  0  0  0  0  0
    8.4250   -4.0420   13.1450 C   0  0  2  0  0  0  0  0  0  0  0  0
    9.1300   -4.8730   12.0430 C   0  0  0  0  0  2  0  0  0  0  0  0
    7.8930   -5.8070   11.9570 C   0  0  2  0  0  0  0  0  0  0  0  0
    7.1100   -4.8020   12.8500 C   0  0  0  0  0  2  0  0  0  0  0  0
    7.3420   -5.7980   10.5760 N   0  0  0  0  0  4  0  0  0  0  0  0
    6.4270   -6.2660   10.5420 H   0  0  0  0  0  0  0  0  0  0  0  0
    7.2100   -4.8500   10.2060 H   0  0  0  0  0  0  0  0  0  0  0  0
    7.9720   -6.2880    9.9270 H   0  0  0  0  0  0  0  0  0  0  0  0
    8.9590   -4.2560   14.4640 O   0  0  0  0  0  0  0  0  0  0  0  0
    8.4800   -3.6570   15.0670 H   0  0  0  0  0  0  0  0  0  0  0  0
   10.0660  -15.8780   16.9310 C   0  0  0  0  0  3  0  0  0  0  0  0
    9.9160  -16.6330   18.0540 F   0  0  0  0  0  0  0  0  0  0  0  0
   11.3580  -16.0300   16.5330 F   0  0  0  0  0  0  0  0  0  0  0  0
  1 13  1  0  0  0  0
  2  3  1  0  0  0  0
  2  1  2  0  0  0  0
  3 11  2  0  0  0  0
  4  5  2  0  0  0  0
  4  3  1  0  0  0  0
  5  6  1  0  0  0  0
  6  7  2  0  0  0  0
  6 10  1  0  0  0  0
  7  8  1  0  0  0  0
  8  9  2  0  0  0  0
  9 37  1  0  0  0  0
 10  9  1  0  0  0  0
 11 10  1  0  0  0  0
 11 12  1  0  0  0  0
 13 12  2  0  0  0  0
 13 14  1  0  0  0  0
 14 19  2  0  0  0  0
 14 15  1  0  0  0  0
 15 16  2  0  0  0  0
 16 17  1  0  0  0  0
 18 17  2  0  0  0  0
 19 18  1  0  0  0  0
 20 21  1  0  0  0  0
 21 22  2  0  0  0  0
 23 22  1  0  0  0  0
 23  1  1  0  0  0  0
 24 23  2  0  0  0  0
 25 20  2  0  0  0  0
 25 24  1  0  0  0  0
 27 26  1  6  0  0  0
 27 35  1  0  0  0  0
 28 27  1  0  0  0  0
 29 31  1  6  0  0  0
 29 28  1  0  0  0  0
 29 20  1  0  0  0  0
 29 30  1  0  0  0  0
 30 27  1  0  0  0  0
 32 31  1  0  0  0  0
 33 31  1  0  0  0  0
 34 31  1  0  0  0  0
 35 36  1  0  0  0  0
 37 38  1  0  0  0  0
 39 37  1  0  0  0  0
M  END
>  <minimizedAffinity>
-11.5308666

$$$$

 OpenBabel11232418543D

 39 44  0  0  1  0  0  0  0  0999 V2000
    8.0590   -7.4040   13.9510 C   0  0  0  0  0  0  0  0  0  0  0  0
    8.4630   -7.6010   15.2340 N   0  0  0  0  0  0  0  0  0  0  0  0
    8.6840   -8.8710   15.6370 C   0  0  0  0  0  0  0  0  0  0  0  0
    9.1100   -9.0220   17.0280 C   0  0  0  0  0  3  0  0  0  0  0  0
    9.3490  -10.2380   17.5350 C   0  0  0  0  0  3  0  0  0  0  0  0
    9.1850  -11.3880   16.7270 C   0  0  0  0  0  0  0  0  0  0  0  0
    9.3540  -12.6570   17.0170 N   0  0  0  0  0  0  0  0  0  0  0  0
    9.0600  -13.3850   15.9020 N   0  0  0  0  0  0  0  0  0  0  0  0
    8.7130  -12.5550   14.9340 C   0  0  0  0  0  0  0  0  0  0  0  0
    8.7810  -11.2550   15.4000 N   0  0  0  0  0  0  0  0  0  0  0  0
    8.5230   -9.9870   14.8130 C   0  0  0  0  0  0  0  0  0  0  0  0
    8.1320   -9.7690   13.4960 C   0  0  0  0  0  3  0  0  0  0  0  0
    7.8930   -8.4600   13.0330 C   0  0  0  0  0  0  0  0  0  0  0  0
    7.5110   -8.2550   11.6250 C   0  0  0  0  0  0  0  0  0  0  0  0
    6.3860   -8.9000   11.0840 C   0  0  0  0  0  3  0  0  0  0  0  0
    6.0250   -8.7110    9.7490 C   0  0  0  0  0  3  0  0  0  0  0  0
    6.7860   -7.8780    8.9310 C   0  0  0  0  0  3  0  0  0  0  0  0
    7.9100   -7.2380    9.4470 C   0  0  0  0  0  3  0  0  0  0  0  0
    8.2710   -7.4260   10.7830 C   0  0  0  0  0  3  0  0  0  0  0  0
    7.2940   -3.2140   12.9860 C   0  0  0  0  0  0  0  0  0  0  0  0
    8.5580   -3.6840   13.4080 C   0  0  0  0  0  3  0  0  0  0  0  0
    8.8030   -5.0280   13.7290 C   0  0  0  0  0  3  0  0  0  0  0  0
    7.7940   -5.9890   13.6320 C   0  0  0  0  0  0  0  0  0  0  0  0
    6.5270   -5.5500   13.2360 C   0  0  0  0  0  3  0  0  0  0  0  0
    6.2870   -4.2040   12.9180 C   0  0  0  0  0  3  0  0  0  0  0  0
    6.8380    0.5270   10.0120 C   0  0  0  0  0  1  0  0  0  0  0  0
    7.0550   -0.8720   10.5700 C   0  0  2  0  0  0  0  0  0  0  0  0
    5.9660   -1.3100   11.5820 C   0  0  0  0  0  2  0  0  0  0  0  0
    7.0680   -1.6610   12.6170 C   0  0  2  0  0  0  0  0  0  0  0  0
    8.1110   -0.9600   11.6990 C   0  0  0  0  0  2  0  0  0  0  0  0
    6.8710   -0.8700   13.8610 N   0  0  0  0  0  4  0  0  0  0  0  0
    7.6850   -0.9560   14.4840 H   0  0  0  0  0  0  0  0  0  0  0  0
    6.7340    0.1310   13.6790 H   0  0  0  0  0  0  0  0  0  0  0  0
    6.0430   -1.1970   14.3760 H   0  0  0  0  0  0  0  0  0  0  0  0
    7.2530   -1.8020    9.4910 O   0  0  0  0  0  0  0  0  0  0  0  0
    7.9200   -1.4120    8.8950 H   0  0  0  0  0  0  0  0  0  0  0  0
    8.3080  -12.9970   13.5860 C   0  0  0  0  0  3  0  0  0  0  0  0
    8.4770  -14.3390   13.4290 F   0  0  0  0  0  0  0  0  0  0  0  0
    6.9910  -12.7440   13.3530 F   0  0  0  0  0  0  0  0  0  0  0  0
  1  2  1  0  0  0  0
  2  3  2  0  0  0  0
  3  4  1  0  0  0  0
  4  5  2  0  0  0  0
  6  7  2  0  0  0  0
  6  5  1  0  0  0  0
  8  7  1  0  0  0  0
  9 10  1  0  0  0  0
  9  8  2  0  0  0  0
 10  6  1  0  0  0  0
 11 10  1  0  0  0  0
 11  3  1  0  0  0  0
 12 11  2  0  0  0  0
 13 12  1  0  0  0  0
 13  1  2  0  0  0  0
 14 13  1  0  0  0  0
 15 14  1  0  0  0  0
 16 15  2  0  0  0  0
 17 18  2  0  0  0  0
 17 16  1  0  0  0  0
 18 19  1  0  0  0  0
 19 14  2  0  0  0  0
 20 21  1  0  0  0  0
 21 22  2  0  0  0  0
 23 22  1  0  0  0  0
 23  1  1  0  0  0  0
 24 23  2  0  0  0  0
 25 20  2  0  0  0  0
 25 24  1  0  0  0  0
 27 26  1  6  0  0  0
 27 28  1  0  0  0  0
 27 30  1  0  0  0  0
 28 29  1  0  0  0  0
 29 20  1  0  0  0  0
 29 31  1  1  0  0  0
 30 29  1  0  0  0  0
 31 34  1  0  0  0  0
 31 32  1  0  0  0  0
 33 31  1  0  0  0  0
 35 27  1  0  0  0  0
 36 35  1  0  0  0  0
 37  9  1  0  0  0  0
 38 37  1  0  0  0  0
 39 37  1  0  0  0  0
M  END
>  <minimizedAffinity>
-11.1209955

$$$$

 OpenBabel11232418543D

 39 44  0  0  1  0  0  0  0  0999 V2000
    8.0370   -6.7970   12.9160 C   0  0  0  0  0  0  0  0  0  0  0  0
    7.3580   -6.5300   11.7700 N   0  0  0  0  0  0  0  0  0  0  0  0
    7.2610   -5.2400   11.3800 C   0  0  0  0  0  0  0  0  0  0  0  0
    6.5140   -5.0140   10.1430 C   0  0  0  0  0  3  0  0  0  0  0  0
    6.3490   -3.7730    9.6690 C   0  0  0  0  0  3  0  0  0  0  0  0
    6.8950   -2.6690   10.3670 C   0  0  0  0  0  0  0  0  0  0  0  0
    6.8470   -1.3870   10.0900 N   0  0  0  0  0  0  0  0  0  0  0  0
    7.5170   -0.7210   11.0740 N   0  0  0  0  0  0  0  0  0  0  0  0
    7.9710   -1.6020   11.9490 C   0  0  0  0  0  0  0  0  0  0  0  0
    7.6100   -2.8740   11.5450 N   0  0  0  0  0  0  0  0  0  0  0  0
    7.8190   -4.1720   12.0840 C   0  0  0  0  0  0  0  0  0  0  0  0
    8.5320   -4.4620   13.2430 C   0  0  0  0  0  3  0  0  0  0  0  0
    8.6590   -5.7930   13.6850 C   0  0  0  0  0  0  0  0  0  0  0  0
    9.4460   -6.0750   14.8990 C   0  0  0  0  0  0  0  0  0  0  0  0
    9.5650   -5.1140   15.9170 C   0  0  0  0  0  3  0  0  0  0  0  0
   10.3150   -5.3780   17.0650 C   0  0  0  0  0  3  0  0  0  0  0  0
   10.9610   -6.6030   17.2120 C   0  0  0  0  0  3  0  0  0  0  0  0
   10.8620   -7.5640   16.2090 C   0  0  0  0  0  3  0  0  0  0  0  0
   10.1120   -7.3020   15.0600 C   0  0  0  0  0  3  0  0  0  0  0  0
    8.0070  -11.0330   13.9810 C   0  0  0  0  0  0  0  0  0  0  0  0
    7.0270  -10.1210   14.4350 C   0  0  0  0  0  3  0  0  0  0  0  0
    7.0410   -8.7580   14.1030 C   0  0  0  0  0  3  0  0  0  0  0  0
    8.0350   -8.2260   13.2790 C   0  0  0  0  0  0  0  0  0  0  0  0
    9.0300   -9.0990   12.8300 C   0  0  0  0  0  3  0  0  0  0  0  0
    9.0120  -10.4620   13.1670 C   0  0  0  0  0  3  0  0  0  0  0  0
    7.0710  -15.6790   13.2230 C   0  0  0  0  0  1  0  0  0  0  0  0
    7.1940  -14.1720   13.0540 C   0  0  2  0  0  0  0  0  0  0  0  0
    8.5950  -13.6210   13.4230 C   0  0  0  0  0  2  0  0  0  0  0  0
    7.9380  -12.5920   14.3820 C   0  0  2  0  0  0  0  0  0  0  0  0
    6.5850  -13.3410   14.2090 C   0  0  0  0  0  2  0  0  0  0  0  0
    8.4520  -12.7810   15.7640 N   0  0  0  0  0  4  0  0  0  0  0  0
    7.9030  -12.2330   16.4390 H   0  0  0  0  0  0  0  0  0  0  0  0
    8.4190  -13.7610   16.0710 H   0  0  0  0  0  0  0  0  0  0  0  0
    9.4330  -12.4790   15.8350 H   0  0  0  0  0  0  0  0  0  0  0  0
    6.7480  -13.7900   11.7410 O   0  0  0  0  0  0  0  0  0  0  0  0
    5.8860  -14.2230   11.5950 H   0  0  0  0  0  0  0  0  0  0  0  0
    8.7270   -1.2340   13.1610 C   0  0  0  0  0  3  0  0  0  0  0  0
    9.1380    0.0630   13.1180 F   0  0  0  0  0  0  0  0  0  0  0  0
    7.9650   -1.3610   14.2810 F   0  0  0  0  0  0  0  0  0  0  0  0
  1 23  1  0  0  0  0
  1 13  1  0  0  0  0
  2  1  2  0  0  0  0
  3  2  1  0  0  0  0
  3 11  2  0  0  0  0
  4  3  1  0  0  0  0
  5  4  2  0  0  0  0
  5  6  1  0  0  0  0
  6 10  1  0  0  0  0
  7  6  2  0  0  0  0
  7  8  1  0  0  0  0
  8  9  2  0  0  0  0
  9 37  1  0  0  0  0
 10  9  1  0  0  0  0
 10 11  1  0  0  0  0
 11 12  1  0  0  0  0
 12 13  2  0  0  0  0
 13 14  1  0  0  0  0
 14 19  2  0  0  0  0
 14 15  1  0  0  0  0
 15 16  2  0  0  0  0
 16 17  1  0  0  0  0
 18 17  2  0  0  0  0
 19 18  1  0  0  0  0
 20 29  1  0  0  0  0
 20 21  1  0  0  0  0
 22 21  2  0  0  0  0
 23 22  1  0  0  0  0
 24 25  1  0  0  0  0
 24 23  2  0  0  0  0
 25 20  2  0  0  0  0
 27 26  1  1  0  0  0
 27 28  1  0  0  0  0
 27 30  1  0  0  0  0
 28 29  1  0  0  0  0
 29 31  1  1  0  0  0
 30 29  1  0  0  0  0
 31 34  1  0  0  0  0
 31 33  1  0  0  0  0
 31 32  1  0  0  0  0
 35 27  1  0  0  0  0
 36 35  1  0  0  0  0
 37 39  1  0  0  0  0
 38 37  1  0  0  0  0
M  END
>  <minimizedAffinity>
-11.1133261

$$$$

 OpenBabel11232418543D

 39 44  0  0  1  0  0  0  0  0999 V2000
    6.8320   -5.5210    8.5730 C   0  0  0  0  0  0  0  0  0  0  0  0
    6.5400   -4.9430    7.3780 N   0  0  0  0  0  0  0  0  0  0  0  0
    6.5540   -5.7260    6.2780 C   0  0  0  0  0  0  0  0  0  0  0  0
    6.2380   -5.0480    5.0220 C   0  0  0  0  0  3  0  0  0  0  0  0
    6.2310   -5.7280    3.8680 C   0  0  0  0  0  3  0  0  0  0  0  0
    6.5340   -7.1100    3.8580 C   0  0  0  0  0  0  0  0  0  0  0  0
    6.5920   -7.9560    2.8560 N   0  0  0  0  0  0  0  0  0  0  0  0
    6.9360   -9.1770    3.3570 N   0  0  0  0  0  0  0  0  0  0  0  0
    7.0870   -9.0710    4.6660 C   0  0  0  0  0  0  0  0  0  0  0  0
    6.8340   -7.7660    5.0500 N   0  0  0  0  0  0  0  0  0  0  0  0
    6.8460   -7.0920    6.3010 C   0  0  0  0  0  0  0  0  0  0  0  0
    7.1200   -7.6750    7.5340 C   0  0  0  0  0  3  0  0  0  0  0  0
    7.1150   -6.8950    8.7060 C   0  0  0  0  0  0  0  0  0  0  0  0
    7.3770   -7.5450   10.0020 C   0  0  0  0  0  0  0  0  0  0  0  0
    6.3640   -8.2550   10.6680 C   0  0  0  0  0  3  0  0  0  0  0  0
    6.6100   -8.8680   11.8980 C   0  0  0  0  0  3  0  0  0  0  0  0
    7.8690   -8.7760   12.4850 C   0  0  0  0  0  3  0  0  0  0  0  0
    8.8830   -8.0680   11.8450 C   0  0  0  0  0  3  0  0  0  0  0  0
    8.6390   -7.4560   10.6140 C   0  0  0  0  0  3  0  0  0  0  0  0
    6.8860   -2.7120   11.9170 C   0  0  0  0  0  0  0  0  0  0  0  0
    6.7200   -4.1050   12.0890 C   0  0  0  0  0  3  0  0  0  0  0  0
    6.6920   -5.0080   11.0150 C   0  0  0  0  0  3  0  0  0  0  0  0
    6.8430   -4.5680    9.6980 C   0  0  0  0  0  0  0  0  0  0  0  0
    6.9900   -3.1920    9.4950 C   0  0  0  0  0  3  0  0  0  0  0  0
    7.0150   -2.2940   10.5730 C   0  0  0  0  0  3  0  0  0  0  0  0
    8.6840    0.8280   14.6160 C   0  0  0  0  0  1  0  0  0  0  0  0
    8.4790   -0.2080   13.5190 C   0  0  2  0  0  0  0  0  0  0  0  0
    7.0520   -0.1960   12.9160 C   0  0  0  0  0  2  0  0  0  0  0  0
    6.9250   -1.7190   13.1860 C   0  0  2  0  0  0  0  0  0  0  0  0
    8.2290   -1.6480   14.0300 C   0  0  0  0  0  2  0  0  0  0  0  0
    5.7590   -1.9850   14.0700 N   0  0  0  0  0  4  0  0  0  0  0  0
    5.7630   -2.9590   14.4020 H   0  0  0  0  0  0  0  0  0  0  0  0
    5.7440   -1.3830   14.9020 H   0  0  0  0  0  0  0  0  0  0  0  0
    4.8750   -1.8260   13.5690 H   0  0  0  0  0  0  0  0  0  0  0  0
    9.5250   -0.0930   12.5380 O   0  0  0  0  0  0  0  0  0  0  0  0
   10.3710   -0.0650   13.0240 H   0  0  0  0  0  0  0  0  0  0  0  0
    7.4800  -10.1940    5.5370 C   0  0  0  0  0  3  0  0  0  0  0  0
    7.1340  -11.3930    4.9910 F   0  0  0  0  0  0  0  0  0  0  0  0
    8.8270  -10.2300    5.7260 F   0  0  0  0  0  0  0  0  0  0  0  0
  1 13  1  0  0  0  0
  1 23  1  0  0  0  0
  2  1  2  0  0  0  0
  3 11  2  0  0  0  0
  3  2  1  0  0  0  0
  4  3  1  0  0  0  0
  5  4  2  0  0  0  0
  6  5  1  0  0  0  0
  6 10  1  0  0  0  0
  7  8  1  0  0  0  0
  7  6  2  0  0  0  0
  8  9  2  0  0  0  0
  9 10  1  0  0  0  0
  9 37  1  0  0  0  0
 10 11  1  0  0  0  0
 11 12  1  0  0  0  0
 12 13  2  0  0  0  0
 13 14  1  0  0  0  0
 14 19  2  0  0  0  0
 14 15  1  0  0  0  0
 15 16  2  0  0  0  0
 16 17  1  0  0  0  0
 18 17  2  0  0  0  0
 19 18  1  0  0  0  0
 20 21  1  0  0  0  0
 20 29  1  0  0  0  0
 22 21  2  0  0  0  0
 23 22  1  0  0  0  0
 24 23  2  0  0  0  0
 24 25  1  0  0  0  0
 25 20  2  0  0  0  0
 27 30  1  0  0  0  0
 27 26  1  1  0  0  0
 28 29  1  0  0  0  0
 28 27  1  0  0  0  0
 29 30  1  0  0  0  0
 29 31  1  1  0  0  0
 31 32  1  0  0  0  0
 31 33  1  0  0  0  0
 34 31  1  0  0  0  0
 35 36  1  0  0  0  0
 35 27  1  0  0  0  0
 37 39  1  0  0  0  0
 38 37  1  0  0  0  0
M  END
>  <minimizedAffinity>
-11.009201

$$$$

 OpenBabel11232418543D

 39 44  0  0  1  0  0  0  0  0999 V2000
    8.4330   -9.3110   14.0880 C   0  0  0  0  0  0  0  0  0  0  0  0
    7.8350  -10.3120   13.3900 N   0  0  0  0  0  0  0  0  0  0  0  0
    8.0880  -11.5840   13.7690 C   0  0  0  0  0  0  0  0  0  0  0  0
    7.4220  -12.6180   12.9790 C   0  0  0  0  0  3  0  0  0  0  0  0
    7.6090  -13.9130   13.2620 C   0  0  0  0  0  3  0  0  0  0  0  0
    8.4590  -14.2890   14.3290 C   0  0  0  0  0  0  0  0  0  0  0  0
    8.7860  -15.4820   14.7690 N   0  0  0  0  0  0  0  0  0  0  0  0
    9.6460  -15.3210   15.8150 N   0  0  0  0  0  0  0  0  0  0  0  0
    9.8400  -14.0280   16.0100 C   0  0  0  0  0  0  0  0  0  0  0  0
    9.0970  -13.3120   15.0890 N   0  0  0  0  0  0  0  0  0  0  0  0
    8.9240  -11.9250   14.8340 C   0  0  0  0  0  0  0  0  0  0  0  0
    9.5110  -10.8890   15.5540 C   0  0  0  0  0  3  0  0  0  0  0  0
    9.2720   -9.5490   15.1940 C   0  0  0  0  0  0  0  0  0  0  0  0
    9.8820   -8.4710   15.9940 C   0  0  0  0  0  0  0  0  0  0  0  0
   11.2230   -8.5500   16.4020 C   0  0  0  0  0  3  0  0  0  0  0  0
   11.8010   -7.5320   17.1640 C   0  0  0  0  0  3  0  0  0  0  0  0
   11.0460   -6.4220   17.5340 C   0  0  0  0  0  3  0  0  0  0  0  0
    9.7110   -6.3310   17.1460 C   0  0  0  0  0  3  0  0  0  0  0  0
    9.1330   -7.3480   16.3840 C   0  0  0  0  0  3  0  0  0  0  0  0
    7.5390   -5.3240   12.5450 C   0  0  0  0  0  0  0  0  0  0  0  0
    6.5960   -6.1000   13.2550 C   0  0  0  0  0  3  0  0  0  0  0  0
    6.8770   -7.3850   13.7430 C   0  0  0  0  0  3  0  0  0  0  0  0
    8.1340   -7.9680   13.5590 C   0  0  0  0  0  0  0  0  0  0  0  0
    9.0820   -7.2320   12.8420 C   0  0  0  0  0  3  0  0  0  0  0  0
    8.7930   -5.9470   12.3550 C   0  0  0  0  0  3  0  0  0  0  0  0
    7.3820   -0.5320   12.7880 C   0  0  0  0  0  1  0  0  0  0  0  0
    7.6180   -2.0000   13.1130 C   0  0  2  0  0  0  0  0  0  0  0  0
    8.3000   -2.7860   11.9650 C   0  0  0  0  0  2  0  0  0  0  0  0
    7.1680   -3.8470   12.0170 C   0  0  2  0  0  0  0  0  0  0  0  0
    6.3690   -2.9030   12.9610 C   0  0  0  0  0  2  0  0  0  0  0  0
    6.4920   -3.9380   10.6960 N   0  0  0  0  0  4  0  0  0  0  0  0
    5.6330   -4.5000   10.7600 H   0  0  0  0  0  0  0  0  0  0  0  0
    6.2250   -3.0200   10.3220 H   0  0  0  0  0  0  0  0  0  0  0  0
    7.1070   -4.3790    9.9990 H   0  0  0  0  0  0  0  0  0  0  0  0
    8.2930   -2.1180   14.3780 O   0  0  0  0  0  0  0  0  0  0  0  0
    7.8110   -1.5540   15.0120 H   0  0  0  0  0  0  0  0  0  0  0  0
   10.7320  -13.4840   17.0500 C   0  0  0  0  0  3  0  0  0  0  0  0
   11.1020  -14.4430   17.9430 F   0  0  0  0  0  0  0  0  0  0  0  0
   11.8820  -12.9930   16.5130 F   0  0  0  0  0  0  0  0  0  0  0  0
  1 13  1  0  0  0  0
  2  3  1  0  0  0  0
  2  1  2  0  0  0  0
  3 11  2  0  0  0  0
  4  5  2  0  0  0  0
  4  3  1  0  0  0  0
  5  6  1  0  0  0  0
  6  7  2  0  0  0  0
  6 10  1  0  0  0  0
  7  8  1  0  0  0  0
  8  9  2  0  0  0  0
  9 37  1  0  0  0  0
 10  9  1  0  0  0  0
 11 10  1  0  0  0  0
 11 12  1  0  0  0  0
 13 12  2  0  0  0  0
 13 14  1  0  0  0  0
 14 19  2  0  0  0  0
 14 15  1  0  0  0  0
 15 16  2  0  0  0  0
 16 17  1  0  0  0  0
 18 17  2  0  0  0  0
 19 18  1  0  0  0  0
 20 21  1  0  0  0  0
 21 22  2  0  0  0  0
 23 22  1  0  0  0  0
 23  1  1  0  0  0  0
 24 23  2  0  0  0  0
 25 20  2  0  0  0  0
 25 24  1  0  0  0  0
 27 26  1  6  0  0  0
 27 35  1  0  0  0  0
 28 29  1  0  0  0  0
 28 27  1  0  0  0  0
 29 31  1  6  0  0  0
 29 20  1  0  0  0  0
 29 30  1  0  0  0  0
 30 27  1  0  0  0  0
 31 32  1  0  0  0  0
 33 31  1  0  0  0  0
 34 31  1  0  0  0  0
 35 36  1  0  0  0  0
 37 38  1  0  0  0  0
 39 37  1  0  0  0  0
M  END
>  <minimizedAffinity>
-10.9952364

$$$$
