
 OpenBabel11232419353D

 37 41  0  0  1  0  0  0  0  0999 V2000
   55.3900  -41.4810   17.1730 C   0  0  0  0  0  0  0  0  0  0  0  0
   55.0450  -41.7080   15.8610 C   0  0  0  0  0  3  0  0  0  0  0  0
   56.1560  -42.2730   15.2870 N   0  0  0  0  0  0  0  0  0  0  0  0
   57.0970  -42.4580   16.2760 C   0  0  0  0  0  0  0  0  0  0  0  0
   56.6830  -41.8860   17.3870 N   0  0  0  0  0  0  0  0  0  0  0  0
   53.4590  -40.9420   20.3510 C   0  0  0  0  0  0  0  0  0  0  0  0
   54.2460  -41.5710   19.3860 C   0  0  0  0  0  3  0  0  0  0  0  0
   54.5620  -40.8870   18.2090 C   0  0  0  0  0  0  0  0  0  0  0  0
   54.0880  -39.5860   18.0430 C   0  0  0  0  0  3  0  0  0  0  0  0
   53.3070  -39.0380   19.0420 C   0  0  0  0  0  3  0  0  0  0  0  0
   52.9800  -39.6880   20.1780 N   0  0  0  0  0  0  0  0  0  0  0  0
   53.9540  -42.8660   21.9140 C   0  0  0  0  0  1  0  0  0  0  0  0
   53.1150  -41.6110   21.6680 C   0  0  0  0  0  3  0  0  0  0  0  0
   53.2350  -40.6290   22.8360 C   0  0  0  0  0  1  0  0  0  0  0  0
   58.3950  -43.2120   16.1260 C   0  0  2  0  0  3  0  0  0  0  0  0
   58.7670  -43.9240   17.4350 C   0  0  0  0  0  2  0  0  0  0  0  0
   59.4060  -42.9850   18.4590 C   0  0  0  0  0  2  0  0  0  0  0  0
   60.4960  -42.2210   17.8600 N   0  0  0  0  0  0  0  0  0  0  0  0
   60.1390  -41.4150   16.6970 C   0  0  0  0  0  2  0  0  0  0  0  0
   59.5310  -42.3100   15.6130 C   0  0  0  0  0  2  0  0  0  0  0  0
   61.7810  -42.7560   17.9060 C   0  0  0  0  0  0  0  0  0  0  0  0
   61.9170  -44.0520   17.5490 N   0  0  0  0  0  0  0  0  0  0  0  0
   63.1540  -44.5620   17.5630 C   0  0  0  0  0  3  0  0  0  0  0  0
   64.2750  -43.9130   17.8890 N   0  0  0  0  0  0  0  0  0  0  0  0
   64.1270  -42.6400   18.2770 C   0  0  0  0  0  0  0  0  0  0  0  0
   65.3090  -41.9880   18.5910 N   0  0  0  0  0  0  0  0  0  0  0  0
   62.8900  -42.0030   18.2980 C   0  0  0  0  0  0  0  0  0  0  0  0
   62.7440  -40.2190   18.9480 Br  0  0  0  0  0  0  0  0  0  0  0  0
   66.1250  -42.5860   18.5460 H   0  0  0  0  0  0  0  0  0  0  0  0
   65.2790  -41.2960   19.3280 H   0  0  0  0  0  0  0  0  0  0  0  0
   56.2980  -42.5120   13.8640 C   0  0  0  0  0  2  0  0  0  0  0  0
   56.1960  -44.0050   13.5190 C   0  0  0  0  0  2  0  0  0  0  0  0
   57.2240  -44.4360   12.5200 N   0  0  0  0  0  4  0  0  0  0  0  0
   58.3290  -43.4690   12.3640 C   0  0  0  0  0  2  0  0  0  0  0  0
   59.2990  -44.6570   12.3920 C   0  0  0  0  0  2  0  0  0  0  0  0
   58.1740  -45.4040   13.1190 C   0  0  0  0  0  2  0  0  0  0  0  0
   56.8330  -44.7850   11.6290 H   0  0  0  0  0  0  0  0  0  0  0  0
  1  5  1  0  0  0  0
  1  8  1  0  0  0  0
  2  1  2  0  0  0  0
  3  2  1  0  0  0  0
  3  4  1  0  0  0  0
  4  5  2  0  0  0  0
  6 13  1  0  0  0  0
  7  6  2  0  0  0  0
  8  7  1  0  0  0  0
  9  8  2  0  0  0  0
  9 10  1  0  0  0  0
 10 11  2  0  0  0  0
 11  6  1  0  0  0  0
 13 12  1  0  0  0  0
 13 14  1  0  0  0  0
 15  4  1  1  0  0  0
 15 16  1  0  0  0  0
 16 17  1  0  0  0  0
 18 21  1  0  0  0  0
 18 17  1  0  0  0  0
 19 18  1  0  0  0  0
 20 15  1  0  0  0  0
 20 19  1  0  0  0  0
 21 27  1  0  0  0  0
 22 23  1  0  0  0  0
 22 21  2  0  0  0  0
 23 24  2  0  0  0  0
 24 25  1  0  0  0  0
 25 27  2  0  0  0  0
 25 26  1  0  0  0  0
 26 30  1  0  0  0  0
 27 28  1  0  0  0  0
 29 26  1  0  0  0  0
 31  3  1  0  0  0  0
 32 31  1  0  0  0  0
 33 36  1  0  0  0  0
 33 32  1  0  0  0  0
 34 35  1  0  0  0  0
 34 33  1  0  0  0  0
 35 36  1  0  0  0  0
 37 33  1  0  0  0  0
M  END
>  <minimizedAffinity>
-3.47411299

$$$$
