
 OpenBabel11232419353D

 37 41  0  0  1  0  0  0  0  0999 V2000
   55.3700  -39.8050   18.3550 C   0  0  0  0  0  0  0  0  0  0  0  0
   54.8390  -40.8280   19.1050 C   0  0  0  0  0  3  0  0  0  0  0  0
   55.9170  -41.5610   19.5340 N   0  0  0  0  0  0  0  0  0  0  0  0
   57.0600  -40.9150   19.1190 C   0  0  0  0  0  0  0  0  0  0  0  0
   56.7360  -39.9200   18.3190 N   0  0  0  0  0  0  0  0  0  0  0  0
   53.4170  -37.8870   15.7810 C   0  0  0  0  0  0  0  0  0  0  0  0
   54.1190  -38.9300   16.3840 C   0  0  0  0  0  3  0  0  0  0  0  0
   54.6430  -38.7520   17.6680 C   0  0  0  0  0  0  0  0  0  0  0  0
   54.4320  -37.5330   18.3120 C   0  0  0  0  0  3  0  0  0  0  0  0
   53.7340  -36.5470   17.6430 C   0  0  0  0  0  3  0  0  0  0  0  0
   53.2340  -36.6970   16.3990 N   0  0  0  0  0  0  0  0  0  0  0  0
   53.0540  -36.8110   13.5230 C   0  0  0  0  0  1  0  0  0  0  0  0
   52.7880  -38.0290   14.4090 C   0  0  0  0  0  3  0  0  0  0  0  0
   53.2400  -39.3200   13.7230 C   0  0  0  0  0  1  0  0  0  0  0  0
   58.4690  -41.2710   19.5240 C   0  0  2  0  0  3  0  0  0  0  0  0
   59.3380  -40.0110   19.6450 C   0  0  0  0  0  2  0  0  0  0  0  0
   59.8330  -39.5000   18.2910 C   0  0  0  0  0  2  0  0  0  0  0  0
   60.4430  -40.5770   17.5170 N   0  0  0  0  0  0  0  0  0  0  0  0
   59.5880  -41.7320   17.2580 C   0  0  0  0  0  2  0  0  0  0  0  0
   59.0930  -42.3180   18.5830 C   0  0  0  0  0  2  0  0  0  0  0  0
   61.8080  -40.8040   17.6610 C   0  0  0  0  0  0  0  0  0  0  0  0
   62.3190  -40.6870   18.9060 N   0  0  0  0  0  0  0  0  0  0  0  0
   63.6270  -40.9330   19.0550 C   0  0  0  0  0  3  0  0  0  0  0  0
   64.4800  -41.2910   18.0920 N   0  0  0  0  0  0  0  0  0  0  0  0
   63.9730  -41.3690   16.8540 C   0  0  0  0  0  0  0  0  0  0  0  0
   64.8780  -41.7610   15.8810 N   0  0  0  0  0  0  0  0  0  0  0  0
   62.6280  -41.1400   16.5810 C   0  0  0  0  0  0  0  0  0  0  0  0
   61.9980  -41.1790   14.7840 Br  0  0  0  0  0  0  0  0  0  0  0  0
   65.8230  -41.8740   16.2280 H   0  0  0  0  0  0  0  0  0  0  0  0
   64.7670  -41.3690   14.9550 H   0  0  0  0  0  0  0  0  0  0  0  0
   55.8090  -42.8390   20.2100 C   0  0  0  0  0  2  0  0  0  0  0  0
   54.8010  -43.7710   19.5210 C   0  0  0  0  0  2  0  0  0  0  0  0
   55.4610  -44.9310   18.8440 N   0  0  0  0  0  4  0  0  0  0  0  0
   56.0670  -44.5820   17.5430 C   0  0  0  0  0  2  0  0  0  0  0  0
   57.2950  -45.4030   17.9590 C   0  0  0  0  0  2  0  0  0  0  0  0
   56.8160  -45.1690   19.3970 C   0  0  0  0  0  2  0  0  0  0  0  0
   54.8940  -45.7970   18.8330 H   0  0  0  0  0  0  0  0  0  0  0  0
  1  2  2  0  0  0  0
  2  3  1  0  0  0  0
  3 31  1  0  0  0  0
  4  3  1  0  0  0  0
  5  1  1  0  0  0  0
  5  4  2  0  0  0  0
  6  7  2  0  0  0  0
  6 11  1  0  0  0  0
  7  8  1  0  0  0  0
  8  9  2  0  0  0  0
  8  1  1  0  0  0  0
 10  9  1  0  0  0  0
 11 10  2  0  0  0  0
 12 13  1  0  0  0  0
 13  6  1  0  0  0  0
 14 13  1  0  0  0  0
 15  4  1  6  0  0  0
 15 16  1  0  0  0  0
 17 16  1  0  0  0  0
 18 21  1  0  0  0  0
 18 17  1  0  0  0  0
 19 18  1  0  0  0  0
 19 20  1  0  0  0  0
 20 15  1  0  0  0  0
 21 22  1  0  0  0  0
 22 23  2  0  0  0  0
 24 23  1  0  0  0  0
 25 24  2  0  0  0  0
 26 29  1  0  0  0  0
 26 25  1  0  0  0  0
 27 25  1  0  0  0  0
 27 21  2  0  0  0  0
 28 27  1  0  0  0  0
 30 26  1  0  0  0  0
 32 31  1  0  0  0  0
 33 36  1  0  0  0  0
 33 32  1  0  0  0  0
 34 35  1  0  0  0  0
 34 33  1  0  0  0  0
 35 36  1  0  0  0  0
 37 33  1  0  0  0  0
M  END
>  <minimizedAffinity>
-4.89197922

$$$$

 OpenBabel11232419353D

 37 41  0  0  1  0  0  0  0  0999 V2000
   55.3380  -39.7160   18.3610 C   0  0  0  0  0  0  0  0  0  0  0  0
   54.7910  -40.7610   19.0680 C   0  0  0  0  0  3  0  0  0  0  0  0
   55.8590  -41.5170   19.4830 N   0  0  0  0  0  0  0  0  0  0  0  0
   57.0120  -40.8650   19.1030 C   0  0  0  0  0  0  0  0  0  0  0  0
   56.7040  -39.8400   18.3360 N   0  0  0  0  0  0  0  0  0  0  0  0
   53.3630  -37.7170   15.8660 C   0  0  0  0  0  0  0  0  0  0  0  0
   54.0470  -38.7880   16.4410 C   0  0  0  0  0  3  0  0  0  0  0  0
   54.6270  -38.6340   17.7030 C   0  0  0  0  0  0  0  0  0  0  0  0
   54.4890  -37.4090   18.3560 C   0  0  0  0  0  3  0  0  0  0  0  0
   53.8040  -36.3950   17.7160 C   0  0  0  0  0  3  0  0  0  0  0  0
   53.2510  -36.5220   16.4920 N   0  0  0  0  0  0  0  0  0  0  0  0
   52.9890  -36.6440   13.6090 C   0  0  0  0  0  1  0  0  0  0  0  0
   52.6750  -37.8320   14.5200 C   0  0  0  0  0  3  0  0  0  0  0  0
   53.0140  -39.1570   13.8360 C   0  0  0  0  0  1  0  0  0  0  0  0
   58.4130  -41.2460   19.5100 C   0  0  2  0  0  3  0  0  0  0  0  0
   59.2910  -39.9980   19.6810 C   0  0  0  0  0  2  0  0  0  0  0  0
   59.8050  -39.4480   18.3500 C   0  0  0  0  0  2  0  0  0  0  0  0
   60.4130  -40.5050   17.5480 N   0  0  0  0  0  0  0  0  0  0  0  0
   59.5520  -41.6430   17.2430 C   0  0  0  0  0  2  0  0  0  0  0  0
   59.0380  -42.2670   18.5430 C   0  0  0  0  0  2  0  0  0  0  0  0
   61.7760  -40.7470   17.6980 C   0  0  0  0  0  0  0  0  0  0  0  0
   62.2930  -40.5840   18.9350 N   0  0  0  0  0  0  0  0  0  0  0  0
   63.5970  -40.8450   19.0920 C   0  0  0  0  0  3  0  0  0  0  0  0
   64.4400  -41.2590   18.1440 N   0  0  0  0  0  0  0  0  0  0  0  0
   63.9280  -41.3840   16.9120 C   0  0  0  0  0  0  0  0  0  0  0  0
   64.8230  -41.8340   15.9550 N   0  0  0  0  0  0  0  0  0  0  0  0
   62.5860  -41.1450   16.6320 C   0  0  0  0  0  0  0  0  0  0  0  0
   61.9500  -41.2540   14.8410 Br  0  0  0  0  0  0  0  0  0  0  0  0
   65.7670  -41.9480   16.3050 H   0  0  0  0  0  0  0  0  0  0  0  0
   64.7150  -41.4830   15.0130 H   0  0  0  0  0  0  0  0  0  0  0  0
   55.7340  -42.8170   20.1120 C   0  0  0  0  0  2  0  0  0  0  0  0
   54.2670  -43.2020   20.3490 C   0  0  0  0  0  2  0  0  0  0  0  0
   53.8720  -43.1020   21.7900 N   0  0  0  0  0  4  0  0  0  0  0  0
   54.7910  -42.2700   22.5920 C   0  0  0  0  0  2  0  0  0  0  0  0
   53.5570  -41.6270   23.2370 C   0  0  0  0  0  2  0  0  0  0  0  0
   52.8080  -42.0860   21.9800 C   0  0  0  0  0  2  0  0  0  0  0  0
   53.6210  -44.0050   22.2270 H   0  0  0  0  0  0  0  0  0  0  0  0
  1  2  2  0  0  0  0
  2  3  1  0  0  0  0
  3 31  1  0  0  0  0
  4  3  1  0  0  0  0
  5  1  1  0  0  0  0
  5  4  2  0  0  0  0
  6  7  2  0  0  0  0
  6 11  1  0  0  0  0
  7  8  1  0  0  0  0
  8  9  2  0  0  0  0
  8  1  1  0  0  0  0
 10  9  1  0  0  0  0
 11 10  2  0  0  0  0
 12 13  1  0  0  0  0
 13  6  1  0  0  0  0
 14 13  1  0  0  0  0
 15  4  1  6  0  0  0
 15 16  1  0  0  0  0
 17 16  1  0  0  0  0
 18 21  1  0  0  0  0
 18 17  1  0  0  0  0
 19 18  1  0  0  0  0
 19 20  1  0  0  0  0
 20 15  1  0  0  0  0
 21 22  1  0  0  0  0
 22 23  2  0  0  0  0
 24 23  1  0  0  0  0
 25 24  2  0  0  0  0
 26 29  1  0  0  0  0
 26 25  1  0  0  0  0
 27 25  1  0  0  0  0
 27 21  2  0  0  0  0
 28 27  1  0  0  0  0
 30 26  1  0  0  0  0
 31 32  1  0  0  0  0
 32 33  1  0  0  0  0
 33 36  1  0  0  0  0
 33 37  1  0  0  0  0
 33 34  1  0  0  0  0
 34 35  1  0  0  0  0
 36 35  1  0  0  0  0
M  END
>  <minimizedAffinity>
-4.80622339

$$$$

 OpenBabel11232419353D

 37 41  0  0  1  0  0  0  0  0999 V2000
   57.0160  -41.1490   17.9980 C   0  0  0  0  0  0  0  0  0  0  0  0
   57.8710  -40.7230   18.9880 C   0  0  0  0  0  3  0  0  0  0  0  0
   59.0390  -41.4130   18.7800 N   0  0  0  0  0  0  0  0  0  0  0  0
   58.8930  -42.1560   17.6300 C   0  0  0  0  0  0  0  0  0  0  0  0
   57.6450  -42.0850   17.2170 N   0  0  0  0  0  0  0  0  0  0  0  0
   53.9040  -39.0570   17.7600 C   0  0  0  0  0  0  0  0  0  0  0  0
   55.2320  -39.4080   18.0010 C   0  0  0  0  0  3  0  0  0  0  0  0
   55.6440  -40.7260   17.7810 C   0  0  0  0  0  0  0  0  0  0  0  0
   54.7090  -41.6490   17.3130 C   0  0  0  0  0  3  0  0  0  0  0  0
   53.4110  -41.2240   17.1070 C   0  0  0  0  0  3  0  0  0  0  0  0
   52.9930  -39.9600   17.3280 N   0  0  0  0  0  0  0  0  0  0  0  0
   53.1450  -37.2950   19.4050 C   0  0  0  0  0  1  0  0  0  0  0  0
   53.4030  -37.6370   17.9370 C   0  0  0  0  0  3  0  0  0  0  0  0
   54.3570  -36.6290   17.2940 C   0  0  0  0  0  1  0  0  0  0  0  0
   59.9900  -42.9210   16.9320 C   0  0  2  0  0  3  0  0  0  0  0  0
   61.3470  -42.2320   17.1290 C   0  0  0  0  0  2  0  0  0  0  0  0
   61.5510  -41.0430   16.1900 C   0  0  0  0  0  2  0  0  0  0  0  0
   61.2610  -41.4120   14.8080 N   0  0  0  0  0  0  0  0  0  0  0  0
   59.9200  -41.9340   14.5610 C   0  0  0  0  0  2  0  0  0  0  0  0
   59.6710  -43.1600   15.4450 C   0  0  0  0  0  2  0  0  0  0  0  0
   62.3000  -41.9020   14.0230 C   0  0  0  0  0  0  0  0  0  0  0  0
   61.9990  -42.9010   13.1640 N   0  0  0  0  0  0  0  0  0  0  0  0
   62.9880  -43.3560   12.3860 C   0  0  0  0  0  3  0  0  0  0  0  0
   64.2480  -42.9140   12.3670 N   0  0  0  0  0  0  0  0  0  0  0  0
   64.5480  -41.9490   13.2460 C   0  0  0  0  0  0  0  0  0  0  0  0
   65.8570  -41.4990   13.1910 N   0  0  0  0  0  0  0  0  0  0  0  0
   63.6000  -41.3960   14.1030 C   0  0  0  0  0  0  0  0  0  0  0  0
   64.1190  -40.0920   15.3890 Br  0  0  0  0  0  0  0  0  0  0  0  0
   66.4320  -42.0080   12.5310 H   0  0  0  0  0  0  0  0  0  0  0  0
   66.2890  -41.2090   14.0580 H   0  0  0  0  0  0  0  0  0  0  0  0
   60.1580  -41.4050   19.7020 C   0  0  0  0  0  2  0  0  0  0  0  0
   60.1150  -40.1940   20.6470 C   0  0  0  0  0  2  0  0  0  0  0  0
   61.2230  -39.2220   20.3850 N   0  0  0  0  0  4  0  0  0  0  0  0
   62.3460  -39.8050   19.6240 C   0  0  0  0  0  2  0  0  0  0  0  0
   62.3610  -38.5270   18.7750 C   0  0  0  0  0  2  0  0  0  0  0  0
   60.9050  -38.3530   19.2260 C   0  0  0  0  0  2  0  0  0  0  0  0
   61.5080  -38.6680   21.2110 H   0  0  0  0  0  0  0  0  0  0  0  0
  1  2  2  0  0  0  0
  3  2  1  0  0  0  0
  3 31  1  0  0  0  0
  4  3  1  0  0  0  0
  5  4  2  0  0  0  0
  5  1  1  0  0  0  0
  6 13  1  0  0  0  0
  6  7  1  0  0  0  0
  8  1  1  0  0  0  0
  8  7  2  0  0  0  0
  9  8  1  0  0  0  0
 10  9  2  0  0  0  0
 10 11  1  0  0  0  0
 11  6  2  0  0  0  0
 13 12  1  0  0  0  0
 14 13  1  0  0  0  0
 15 16  1  0  0  0  0
 15  4  1  6  0  0  0
 17 16  1  0  0  0  0
 18 17  1  0  0  0  0
 19 18  1  0  0  0  0
 19 20  1  0  0  0  0
 20 15  1  0  0  0  0
 21 27  1  0  0  0  0
 21 18  1  0  0  0  0
 22 21  2  0  0  0  0
 23 22  1  0  0  0  0
 24 23  2  0  0  0  0
 24 25  1  0  0  0  0
 25 27  2  0  0  0  0
 26 25  1  0  0  0  0
 26 30  1  0  0  0  0
 27 28  1  0  0  0  0
 29 26  1  0  0  0  0
 31 32  1  0  0  0  0
 33 32  1  0  0  0  0
 33 37  1  0  0  0  0
 34 33  1  0  0  0  0
 35 36  1  0  0  0  0
 35 34  1  0  0  0  0
 36 33  1  0  0  0  0
M  END
>  <minimizedAffinity>
-4.75747871

$$$$

 OpenBabel11232419353D

 37 41  0  0  1  0  0  0  0  0999 V2000
   55.9820  -40.8830   17.8870 C   0  0  0  0  0  0  0  0  0  0  0  0
   55.8090  -41.8600   16.9340 C   0  0  0  0  0  3  0  0  0  0  0  0
   57.0060  -42.5300   16.8810 N   0  0  0  0  0  0  0  0  0  0  0  0
   57.8260  -42.0090   17.8580 C   0  0  0  0  0  0  0  0  0  0  0  0
   57.2560  -40.9500   18.3920 N   0  0  0  0  0  0  0  0  0  0  0  0
   54.1440  -37.6440   18.3920 C   0  0  0  0  0  0  0  0  0  0  0  0
   55.1180  -38.5450   17.9630 C   0  0  0  0  0  3  0  0  0  0  0  0
   55.0080  -39.8930   18.3160 C   0  0  0  0  0  0  0  0  0  0  0  0
   53.9140  -40.2970   19.0800 C   0  0  0  0  0  3  0  0  0  0  0  0
   52.9970  -39.3420   19.4730 C   0  0  0  0  0  3  0  0  0  0  0  0
   53.0950  -38.0350   19.1530 N   0  0  0  0  0  0  0  0  0  0  0  0
   53.1420  -35.8360   16.9380 C   0  0  0  0  0  1  0  0  0  0  0  0
   54.1800  -36.1780   18.0090 C   0  0  0  0  0  3  0  0  0  0  0  0
   54.0220  -35.2800   19.2370 C   0  0  0  0  0  1  0  0  0  0  0  0
   59.1640  -42.5690   18.2730 C   0  0  2  0  0  3  0  0  0  0  0  0
   59.9600  -41.5360   19.0850 C   0  0  0  0  0  2  0  0  0  0  0  0
   60.6460  -40.4910   18.2040 C   0  0  0  0  0  2  0  0  0  0  0  0
   61.4060  -41.1280   17.1330 N   0  0  0  0  0  0  0  0  0  0  0  0
   60.6430  -42.0040   16.2500 C   0  0  0  0  0  2  0  0  0  0  0  0
   59.9640  -43.1040   17.0720 C   0  0  0  0  0  2  0  0  0  0  0  0
   62.7390  -41.4520   17.3710 C   0  0  0  0  0  0  0  0  0  0  0  0
   63.0820  -41.7280   18.6470 N   0  0  0  0  0  0  0  0  0  0  0  0
   64.3560  -42.0690   18.8770 C   0  0  0  0  0  3  0  0  0  0  0  0
   65.3250  -42.1710   17.9640 N   0  0  0  0  0  0  0  0  0  0  0  0
   64.9860  -41.8610   16.7060 C   0  0  0  0  0  0  0  0  0  0  0  0
   66.0070  -41.9940   15.7790 N   0  0  0  0  0  0  0  0  0  0  0  0
   63.6910  -41.4970   16.3490 C   0  0  0  0  0  0  0  0  0  0  0  0
   63.3020  -40.9810   14.5570 Br  0  0  0  0  0  0  0  0  0  0  0  0
   66.8960  -42.2500   16.1910 H   0  0  0  0  0  0  0  0  0  0  0  0
   66.0220  -41.3460   15.0040 H   0  0  0  0  0  0  0  0  0  0  0  0
   57.3300  -43.5280   15.8810 C   0  0  0  0  0  2  0  0  0  0  0  0
   57.2630  -42.9570   14.4570 C   0  0  0  0  0  2  0  0  0  0  0  0
   57.9990  -43.8020   13.4640 N   0  0  0  0  0  4  0  0  0  0  0  0
   59.2470  -43.1800   12.9780 C   0  0  0  0  0  2  0  0  0  0  0  0
   59.9280  -44.5440   13.1510 C   0  0  0  0  0  2  0  0  0  0  0  0
   58.8000  -44.8470   14.1460 C   0  0  0  0  0  2  0  0  0  0  0  0
   57.4020  -44.2020   12.7190 H   0  0  0  0  0  0  0  0  0  0  0  0
  1  8  1  0  0  0  0
  1  5  1  0  0  0  0
  2  1  2  0  0  0  0
  3  2  1  0  0  0  0
  3  4  1  0  0  0  0
  4  5  2  0  0  0  0
  6 11  1  0  0  0  0
  7  8  1  0  0  0  0
  7  6  2  0  0  0  0
  8  9  2  0  0  0  0
  9 10  1  0  0  0  0
 11 10  2  0  0  0  0
 12 13  1  0  0  0  0
 13  6  1  0  0  0  0
 13 14  1  0  0  0  0
 15  4  1  6  0  0  0
 15 16  1  0  0  0  0
 17 16  1  0  0  0  0
 18 21  1  0  0  0  0
 18 17  1  0  0  0  0
 19 20  1  0  0  0  0
 19 18  1  0  0  0  0
 20 15  1  0  0  0  0
 21 22  1  0  0  0  0
 22 23  2  0  0  0  0
 24 23  1  0  0  0  0
 25 24  2  0  0  0  0
 26 29  1  0  0  0  0
 26 25  1  0  0  0  0
 27 25  1  0  0  0  0
 27 21  2  0  0  0  0
 28 27  1  0  0  0  0
 30 26  1  0  0  0  0
 31  3  1  0  0  0  0
 32 31  1  0  0  0  0
 33 36  1  0  0  0  0
 33 32  1  0  0  0  0
 34 35  1  0  0  0  0
 34 33  1  0  0  0  0
 35 36  1  0  0  0  0
 37 33  1  0  0  0  0
M  END
>  <minimizedAffinity>
-4.54917145

$$$$

 OpenBabel11232419353D

 37 41  0  0  1  0  0  0  0  0999 V2000
   55.3860  -40.6910   18.2470 C   0  0  0  0  0  0  0  0  0  0  0  0
   54.9340  -41.9230   18.6580 C   0  0  0  0  0  3  0  0  0  0  0  0
   56.0650  -42.6570   18.9160 N   0  0  0  0  0  0  0  0  0  0  0  0
   57.1530  -41.8290   18.7480 C   0  0  0  0  0  0  0  0  0  0  0  0
   56.7570  -40.6800   18.2430 N   0  0  0  0  0  0  0  0  0  0  0  0
   53.4600  -37.4650   18.3010 C   0  0  0  0  0  0  0  0  0  0  0  0
   54.2220  -38.5440   18.7480 C   0  0  0  0  0  3  0  0  0  0  0  0
   54.5810  -39.5500   17.8460 C   0  0  0  0  0  0  0  0  0  0  0  0
   54.1740  -39.4330   16.5170 C   0  0  0  0  0  3  0  0  0  0  0  0
   53.4150  -38.3370   16.1560 C   0  0  0  0  0  3  0  0  0  0  0  0
   53.0470  -37.3650   17.0160 N   0  0  0  0  0  0  0  0  0  0  0  0
   52.6600  -36.8070   20.6060 C   0  0  0  0  0  1  0  0  0  0  0  0
   53.0730  -36.3200   19.2160 C   0  0  0  0  0  3  0  0  0  0  0  0
   54.1920  -35.2800   19.3060 C   0  0  0  0  0  1  0  0  0  0  0  0
   58.5800  -42.1690   19.1030 C   0  0  2  0  0  3  0  0  0  0  0  0
   59.3600  -40.9070   19.4980 C   0  0  0  0  0  2  0  0  0  0  0  0
   59.8300  -40.0980   18.2880 C   0  0  0  0  0  2  0  0  0  0  0  0
   60.5180  -40.9510   17.3240 N   0  0  0  0  0  0  0  0  0  0  0  0
   59.7460  -42.0800   16.8160 C   0  0  0  0  0  2  0  0  0  0  0  0
   59.2810  -42.9580   17.9820 C   0  0  0  0  0  2  0  0  0  0  0  0
   61.8950  -41.1130   17.4480 C   0  0  0  0  0  0  0  0  0  0  0  0
   62.4090  -41.0360   18.6950 N   0  0  0  0  0  0  0  0  0  0  0  0
   63.7290  -41.2210   18.8230 C   0  0  0  0  0  3  0  0  0  0  0  0
   64.5920  -41.4830   17.8380 N   0  0  0  0  0  0  0  0  0  0  0  0
   64.0800  -41.5220   16.6010 C   0  0  0  0  0  0  0  0  0  0  0  0
   64.9950  -41.8130   15.6030 N   0  0  0  0  0  0  0  0  0  0  0  0
   62.7220  -41.3480   16.3470 C   0  0  0  0  0  0  0  0  0  0  0  0
   62.0800  -41.3260   14.5540 Br  0  0  0  0  0  0  0  0  0  0  0  0
   65.9470  -41.8960   15.9390 H   0  0  0  0  0  0  0  0  0  0  0  0
   64.8560  -41.3800   14.7000 H   0  0  0  0  0  0  0  0  0  0  0  0
   56.0600  -44.0780   19.2050 C   0  0  0  0  0  2  0  0  0  0  0  0
   56.5340  -44.3750   20.6350 C   0  0  0  0  0  2  0  0  0  0  0  0
   55.4060  -44.7370   21.5510 N   0  0  0  0  0  4  0  0  0  0  0  0
   54.7480  -43.5640   22.1590 C   0  0  0  0  0  2  0  0  0  0  0  0
   53.4000  -44.2330   21.8540 C   0  0  0  0  0  2  0  0  0  0  0  0
   54.1690  -45.0190   20.7840 C   0  0  0  0  0  2  0  0  0  0  0  0
   55.6260  -45.4980   22.2170 H   0  0  0  0  0  0  0  0  0  0  0  0
  1  2  2  0  0  0  0
  2  3  1  0  0  0  0
  3 31  1  0  0  0  0
  4  3  1  0  0  0  0
  5  1  1  0  0  0  0
  5  4  2  0  0  0  0
  6  7  1  0  0  0  0
  6 13  1  0  0  0  0
  8  1  1  0  0  0  0
  8  7  2  0  0  0  0
  9  8  1  0  0  0  0
 10  9  2  0  0  0  0
 10 11  1  0  0  0  0
 11  6  2  0  0  0  0
 13 14  1  0  0  0  0
 13 12  1  0  0  0  0
 15  4  1  6  0  0  0
 15 16  1  0  0  0  0
 17 16  1  0  0  0  0
 18 21  1  0  0  0  0
 18 17  1  0  0  0  0
 19 18  1  0  0  0  0
 19 20  1  0  0  0  0
 20 15  1  0  0  0  0
 21 22  1  0  0  0  0
 22 23  2  0  0  0  0
 24 23  1  0  0  0  0
 25 24  2  0  0  0  0
 26 29  1  0  0  0  0
 26 25  1  0  0  0  0
 27 25  1  0  0  0  0
 27 21  2  0  0  0  0
 28 27  1  0  0  0  0
 30 26  1  0  0  0  0
 31 32  1  0  0  0  0
 32 33  1  0  0  0  0
 33 34  1  0  0  0  0
 33 37  1  0  0  0  0
 35 34  1  0  0  0  0
 36 33  1  0  0  0  0
 36 35  1  0  0  0  0
M  END
>  <minimizedAffinity>
-4.5128355

$$$$

 OpenBabel11232419353D

 37 41  0  0  1  0  0  0  0  0999 V2000
   54.7950  -41.2040   17.2490 C   0  0  0  0  0  0  0  0  0  0  0  0
   54.1930  -41.8650   18.2950 C   0  0  0  0  0  3  0  0  0  0  0  0
   55.1570  -42.7020   18.7980 N   0  0  0  0  0  0  0  0  0  0  0  0
   56.3280  -42.4580   18.1150 C   0  0  0  0  0  0  0  0  0  0  0  0
   56.0890  -41.6380   17.1130 N   0  0  0  0  0  0  0  0  0  0  0  0
   53.3310  -38.0010   15.9380 C   0  0  0  0  0  0  0  0  0  0  0  0
   53.8930  -38.9190   16.8260 C   0  0  0  0  0  3  0  0  0  0  0  0
   54.1960  -40.2080   16.3780 C   0  0  0  0  0  0  0  0  0  0  0  0
   53.9370  -40.5320   15.0470 C   0  0  0  0  0  3  0  0  0  0  0  0
   53.3710  -39.5690   14.2330 C   0  0  0  0  0  3  0  0  0  0  0  0
   53.0590  -38.3250   14.6520 N   0  0  0  0  0  0  0  0  0  0  0  0
   54.1120  -35.9770   17.2340 C   0  0  0  0  0  1  0  0  0  0  0  0
   53.0190  -36.5750   16.3470 C   0  0  0  0  0  3  0  0  0  0  0  0
   52.7560  -35.6930   15.1250 C   0  0  0  0  0  1  0  0  0  0  0  0
   57.6840  -43.0230   18.4620 C   0  0  2  0  0  3  0  0  0  0  0  0
   58.4030  -42.1300   19.4820 C   0  0  0  0  0  2  0  0  0  0  0  0
   59.0540  -40.9030   18.8400 C   0  0  0  0  0  2  0  0  0  0  0  0
   59.8740  -41.2860   17.6950 N   0  0  0  0  0  0  0  0  0  0  0  0
   59.1800  -42.0120   16.6360 C   0  0  0  0  0  2  0  0  0  0  0  0
   58.5400  -43.2800   17.2090 C   0  0  0  0  0  2  0  0  0  0  0  0
   61.2150  -41.5870   17.9120 C   0  0  0  0  0  0  0  0  0  0  0  0
   61.7210  -42.6440   17.2420 N   0  0  0  0  0  0  0  0  0  0  0  0
   63.0190  -42.9200   17.4250 C   0  0  0  0  0  3  0  0  0  0  0  0
   63.8690  -42.2460   18.2030 N   0  0  0  0  0  0  0  0  0  0  0  0
   63.3510  -41.2210   18.8930 C   0  0  0  0  0  0  0  0  0  0  0  0
   64.2610  -40.5300   19.6770 N   0  0  0  0  0  0  0  0  0  0  0  0
   62.0180  -40.8400   18.7790 C   0  0  0  0  0  0  0  0  0  0  0  0
   61.3300  -39.4310   19.8590 Br  0  0  0  0  0  0  0  0  0  0  0  0
   65.1900  -40.9360   19.6710 H   0  0  0  0  0  0  0  0  0  0  0  0
   63.9280  -40.1430   20.5490 H   0  0  0  0  0  0  0  0  0  0  0  0
   54.9030  -43.7190   19.8000 C   0  0  0  0  0  2  0  0  0  0  0  0
   53.4950  -43.5940   20.4010 C   0  0  0  0  0  2  0  0  0  0  0  0
   53.5180  -43.1500   21.8310 N   0  0  0  0  0  4  0  0  0  0  0  0
   54.8810  -43.0480   22.3900 C   0  0  0  0  0  2  0  0  0  0  0  0
   54.4630  -41.7120   23.0180 C   0  0  0  0  0  2  0  0  0  0  0  0
   53.3800  -41.6770   21.9320 C   0  0  0  0  0  2  0  0  0  0  0  0
   52.8410  -43.6400   22.4400 H   0  0  0  0  0  0  0  0  0  0  0  0
  1  2  2  0  0  0  0
  2  3  1  0  0  0  0
  3 31  1  0  0  0  0
  4  3  1  0  0  0  0
  5  1  1  0  0  0  0
  5  4  2  0  0  0  0
  6 13  1  0  0  0  0
  6  7  1  0  0  0  0
  8  7  2  0  0  0  0
  8  1  1  0  0  0  0
  9  8  1  0  0  0  0
 10 11  1  0  0  0  0
 10  9  2  0  0  0  0
 11  6  2  0  0  0  0
 13 12  1  0  0  0  0
 14 13  1  0  0  0  0
 15  4  1  6  0  0  0
 15 16  1  0  0  0  0
 17 16  1  0  0  0  0
 18 21  1  0  0  0  0
 18 17  1  0  0  0  0
 19 20  1  0  0  0  0
 19 18  1  0  0  0  0
 20 15  1  0  0  0  0
 21 27  1  0  0  0  0
 22 23  1  0  0  0  0
 22 21  2  0  0  0  0
 23 24  2  0  0  0  0
 24 25  1  0  0  0  0
 25 26  1  0  0  0  0
 26 30  1  0  0  0  0
 27 25  2  0  0  0  0
 27 28  1  0  0  0  0
 29 26  1  0  0  0  0
 31 32  1  0  0  0  0
 32 33  1  0  0  0  0
 33 36  1  0  0  0  0
 33 34  1  0  0  0  0
 33 37  1  0  0  0  0
 34 35  1  0  0  0  0
 36 35  1  0  0  0  0
M  END
>  <minimizedAffinity>
-4.1265707

$$$$

 OpenBabel11232419353D

 37 41  0  0  1  0  0  0  0  0999 V2000
   55.2550  -41.5060   17.0910 C   0  0  0  0  0  0  0  0  0  0  0  0
   54.7280  -41.6380   18.3550 C   0  0  0  0  0  3  0  0  0  0  0  0
   55.7080  -42.2490   19.0950 N   0  0  0  0  0  0  0  0  0  0  0  0
   56.8220  -42.3810   18.2960 C   0  0  0  0  0  0  0  0  0  0  0  0
   56.5200  -42.0360   17.0620 N   0  0  0  0  0  0  0  0  0  0  0  0
   53.3850  -39.1670   14.8210 C   0  0  0  0  0  0  0  0  0  0  0  0
   53.9740  -39.6810   15.9760 C   0  0  0  0  0  3  0  0  0  0  0  0
   54.6100  -40.9250   15.9270 C   0  0  0  0  0  0  0  0  0  0  0  0
   54.6470  -41.6090   14.7120 C   0  0  0  0  0  3  0  0  0  0  0  0
   54.0320  -41.0360   13.6150 C   0  0  0  0  0  3  0  0  0  0  0  0
   53.4020  -39.8440   13.6490 N   0  0  0  0  0  0  0  0  0  0  0  0
   53.2800  -36.8680   15.8650 C   0  0  0  0  0  1  0  0  0  0  0  0
   52.7180  -37.8070   14.7960 C   0  0  0  0  0  3  0  0  0  0  0  0
   52.8030  -37.1730   13.4060 C   0  0  0  0  0  1  0  0  0  0  0  0
   58.1860  -42.8340   18.7550 C   0  0  2  0  0  3  0  0  0  0  0  0
   58.9970  -41.6520   19.3040 C   0  0  0  0  0  2  0  0  0  0  0  0
   59.6280  -40.8020   18.2000 C   0  0  0  0  0  2  0  0  0  0  0  0
   60.3530  -41.6360   17.2470 N   0  0  0  0  0  0  0  0  0  0  0  0
   59.5680  -42.6800   16.5960 C   0  0  0  0  0  2  0  0  0  0  0  0
   58.9430  -43.5960   17.6520 C   0  0  0  0  0  2  0  0  0  0  0  0
   61.7000  -41.8950   17.4860 C   0  0  0  0  0  0  0  0  0  0  0  0
   62.0250  -42.3620   18.7110 N   0  0  0  0  0  0  0  0  0  0  0  0
   63.3150  -42.6400   18.9350 C   0  0  0  0  0  3  0  0  0  0  0  0
   64.3170  -42.5080   18.0630 N   0  0  0  0  0  0  0  0  0  0  0  0
   63.9920  -42.0100   16.8630 C   0  0  0  0  0  0  0  0  0  0  0  0
   65.0490  -41.9020   15.9740 N   0  0  0  0  0  0  0  0  0  0  0  0
   62.6830  -41.6890   16.5150 C   0  0  0  0  0  0  0  0  0  0  0  0
   62.3100  -40.8990   14.8230 Br  0  0  0  0  0  0  0  0  0  0  0  0
   65.9440  -42.1570   16.3750 H   0  0  0  0  0  0  0  0  0  0  0  0
   65.0350  -41.1290   15.3230 H   0  0  0  0  0  0  0  0  0  0  0  0
   55.5130  -42.7430   20.4440 C   0  0  0  0  0  2  0  0  0  0  0  0
   54.5500  -43.9390   20.4840 C   0  0  0  0  0  2  0  0  0  0  0  0
   55.0820  -45.0800   21.2950 N   0  0  0  0  0  4  0  0  0  0  0  0
   56.5530  -45.0650   21.4300 C   0  0  0  0  0  2  0  0  0  0  0  0
   56.3640  -45.3960   22.9160 C   0  0  0  0  0  2  0  0  0  0  0  0
   54.9590  -44.8020   22.7470 C   0  0  0  0  0  2  0  0  0  0  0  0
   54.6840  -46.0010   21.0460 H   0  0  0  0  0  0  0  0  0  0  0  0
  1  2  2  0  0  0  0
  2  3  1  0  0  0  0
  3 31  1  0  0  0  0
  4  3  1  0  0  0  0
  5  1  1  0  0  0  0
  5  4  2  0  0  0  0
  6  7  1  0  0  0  0
  8  7  2  0  0  0  0
  8  1  1  0  0  0  0
  9  8  1  0  0  0  0
 10 11  1  0  0  0  0
 10  9  2  0  0  0  0
 11  6  2  0  0  0  0
 13  6  1  0  0  0  0
 13 12  1  0  0  0  0
 14 13  1  0  0  0  0
 15  4  1  6  0  0  0
 15 16  1  0  0  0  0
 17 16  1  0  0  0  0
 18 21  1  0  0  0  0
 18 17  1  0  0  0  0
 19 18  1  0  0  0  0
 19 20  1  0  0  0  0
 20 15  1  0  0  0  0
 21 22  1  0  0  0  0
 22 23  2  0  0  0  0
 24 23  1  0  0  0  0
 25 24  2  0  0  0  0
 26 29  1  0  0  0  0
 26 25  1  0  0  0  0
 27 25  1  0  0  0  0
 27 21  2  0  0  0  0
 28 27  1  0  0  0  0
 30 26  1  0  0  0  0
 31 32  1  0  0  0  0
 32 33  1  0  0  0  0
 33 34  1  0  0  0  0
 33 36  1  0  0  0  0
 34 35  1  0  0  0  0
 36 35  1  0  0  0  0
 37 33  1  0  0  0  0
M  END
>  <minimizedAffinity>
-4.0009017

$$$$

 OpenBabel11232419353D

 37 41  0  0  1  0  0  0  0  0999 V2000
   57.3770  -41.8480   17.4190 C   0  0  0  0  0  0  0  0  0  0  0  0
   57.9000  -41.0750   18.4290 C   0  0  0  0  0  3  0  0  0  0  0  0
   59.1120  -41.6440   18.7310 N   0  0  0  0  0  0  0  0  0  0  0  0
   59.3290  -42.6740   17.8420 C   0  0  0  0  0  0  0  0  0  0  0  0
   58.2440  -42.8690   17.1230 N   0  0  0  0  0  0  0  0  0  0  0  0
   54.6650  -41.8250   14.8180 C   0  0  0  0  0  0  0  0  0  0  0  0
   55.9180  -42.0050   15.4030 C   0  0  0  0  0  3  0  0  0  0  0  0
   56.1010  -41.6700   16.7480 C   0  0  0  0  0  0  0  0  0  0  0  0
   55.0130  -41.1780   17.4690 C   0  0  0  0  0  3  0  0  0  0  0  0
   53.8070  -41.0220   16.8140 C   0  0  0  0  0  3  0  0  0  0  0  0
   53.6160  -41.3260   15.5130 N   0  0  0  0  0  0  0  0  0  0  0  0
   55.1130  -41.2930   12.3890 C   0  0  0  0  0  1  0  0  0  0  0  0
   54.3880  -42.2080   13.3780 C   0  0  0  0  0  3  0  0  0  0  0  0
   54.7270  -43.6770   13.1190 C   0  0  0  0  0  1  0  0  0  0  0  0
   60.6130  -43.4530   17.6950 C   0  0  2  0  0  3  0  0  0  0  0  0
   61.8310  -42.5400   17.8910 C   0  0  0  0  0  2  0  0  0  0  0  0
   62.1610  -41.7170   16.6440 C   0  0  0  0  0  2  0  0  0  0  0  0
   62.2330  -42.5670   15.4600 N   0  0  0  0  0  0  0  0  0  0  0  0
   61.0310  -43.3400   15.1630 C   0  0  0  0  0  2  0  0  0  0  0  0
   60.6720  -44.2220   16.3620 C   0  0  0  0  0  2  0  0  0  0  0  0
   63.4620  -43.1280   15.1220 C   0  0  0  0  0  0  0  0  0  0  0  0
   64.1300  -43.7720   16.1030 N   0  0  0  0  0  0  0  0  0  0  0  0
   65.2980  -44.3390   15.7760 C   0  0  0  0  0  3  0  0  0  0  0  0
   65.8680  -44.3370   14.5680 N   0  0  0  0  0  0  0  0  0  0  0  0
   65.2170  -43.6650   13.6100 C   0  0  0  0  0  0  0  0  0  0  0  0
   65.8240  -43.6970   12.3640 N   0  0  0  0  0  0  0  0  0  0  0  0
   63.9930  -43.0410   13.8330 C   0  0  0  0  0  0  0  0  0  0  0  0
   63.1700  -42.0270   12.4470 Br  0  0  0  0  0  0  0  0  0  0  0  0
   66.7170  -44.1740   12.3620 H   0  0  0  0  0  0  0  0  0  0  0  0
   65.7320  -42.8780   11.7790 H   0  0  0  0  0  0  0  0  0  0  0  0
   59.9280  -41.2570   19.8650 C   0  0  0  0  0  2  0  0  0  0  0  0
   59.6110  -39.8310   20.3400 C   0  0  0  0  0  2  0  0  0  0  0  0
   60.6770  -38.8490   19.9620 N   0  0  0  0  0  4  0  0  0  0  0  0
   62.0360  -39.4290   19.9720 C   0  0  0  0  0  2  0  0  0  0  0  0
   62.2910  -38.7090   18.6410 C   0  0  0  0  0  2  0  0  0  0  0  0
   60.7650  -38.7010   18.4890 C   0  0  0  0  0  2  0  0  0  0  0  0
   60.5990  -37.9330   20.4350 H   0  0  0  0  0  0  0  0  0  0  0  0
  1  2  2  0  0  0  0
  2  3  1  0  0  0  0
  3 31  1  0  0  0  0
  4  3  1  0  0  0  0
  5  1  1  0  0  0  0
  5  4  2  0  0  0  0
  6  7  2  0  0  0  0
  6 11  1  0  0  0  0
  7  8  1  0  0  0  0
  8  1  1  0  0  0  0
  8  9  2  0  0  0  0
 10  9  1  0  0  0  0
 11 10  2  0  0  0  0
 12 13  1  0  0  0  0
 13  6  1  0  0  0  0
 14 13  1  0  0  0  0
 15  4  1  6  0  0  0
 15 16  1  0  0  0  0
 17 16  1  0  0  0  0
 18 17  1  0  0  0  0
 19 18  1  0  0  0  0
 19 20  1  0  0  0  0
 20 15  1  0  0  0  0
 21 18  1  0  0  0  0
 21 22  1  0  0  0  0
 23 22  2  0  0  0  0
 24 23  1  0  0  0  0
 25 27  1  0  0  0  0
 25 24  2  0  0  0  0
 26 25  1  0  0  0  0
 27 21  2  0  0  0  0
 28 27  1  0  0  0  0
 29 26  1  0  0  0  0
 30 26  1  0  0  0  0
 31 32  1  0  0  0  0
 33 34  1  0  0  0  0
 33 32  1  0  0  0  0
 33 37  1  0  0  0  0
 35 34  1  0  0  0  0
 36 35  1  0  0  0  0
 36 33  1  0  0  0  0
M  END
>  <minimizedAffinity>
-3.92985368

$$$$

 OpenBabel11232419353D

 37 41  0  0  1  0  0  0  0  0999 V2000
   55.3900  -41.4810   17.1730 C   0  0  0  0  0  0  0  0  0  0  0  0
   55.0450  -41.7080   15.8610 C   0  0  0  0  0  3  0  0  0  0  0  0
   56.1560  -42.2730   15.2870 N   0  0  0  0  0  0  0  0  0  0  0  0
   57.0970  -42.4580   16.2760 C   0  0  0  0  0  0  0  0  0  0  0  0
   56.6830  -41.8860   17.3870 N   0  0  0  0  0  0  0  0  0  0  0  0
   53.4590  -40.9420   20.3510 C   0  0  0  0  0  0  0  0  0  0  0  0
   54.2460  -41.5710   19.3860 C   0  0  0  0  0  3  0  0  0  0  0  0
   54.5620  -40.8870   18.2090 C   0  0  0  0  0  0  0  0  0  0  0  0
   54.0880  -39.5860   18.0430 C   0  0  0  0  0  3  0  0  0  0  0  0
   53.3070  -39.0380   19.0420 C   0  0  0  0  0  3  0  0  0  0  0  0
   52.9800  -39.6880   20.1780 N   0  0  0  0  0  0  0  0  0  0  0  0
   53.9540  -42.8660   21.9140 C   0  0  0  0  0  1  0  0  0  0  0  0
   53.1150  -41.6110   21.6680 C   0  0  0  0  0  3  0  0  0  0  0  0
   53.2350  -40.6290   22.8360 C   0  0  0  0  0  1  0  0  0  0  0  0
   58.3950  -43.2120   16.1260 C   0  0  2  0  0  3  0  0  0  0  0  0
   58.7670  -43.9240   17.4350 C   0  0  0  0  0  2  0  0  0  0  0  0
   59.4060  -42.9850   18.4590 C   0  0  0  0  0  2  0  0  0  0  0  0
   60.4960  -42.2210   17.8600 N   0  0  0  0  0  0  0  0  0  0  0  0
   60.1390  -41.4150   16.6970 C   0  0  0  0  0  2  0  0  0  0  0  0
   59.5310  -42.3100   15.6130 C   0  0  0  0  0  2  0  0  0  0  0  0
   61.7810  -42.7560   17.9060 C   0  0  0  0  0  0  0  0  0  0  0  0
   61.9170  -44.0520   17.5490 N   0  0  0  0  0  0  0  0  0  0  0  0
   63.1540  -44.5620   17.5630 C   0  0  0  0  0  3  0  0  0  0  0  0
   64.2750  -43.9130   17.8890 N   0  0  0  0  0  0  0  0  0  0  0  0
   64.1270  -42.6400   18.2770 C   0  0  0  0  0  0  0  0  0  0  0  0
   65.3090  -41.9880   18.5910 N   0  0  0  0  0  0  0  0  0  0  0  0
   62.8900  -42.0030   18.2980 C   0  0  0  0  0  0  0  0  0  0  0  0
   62.7440  -40.2190   18.9480 Br  0  0  0  0  0  0  0  0  0  0  0  0
   66.1250  -42.5860   18.5460 H   0  0  0  0  0  0  0  0  0  0  0  0
   65.2790  -41.2960   19.3280 H   0  0  0  0  0  0  0  0  0  0  0  0
   56.2980  -42.5120   13.8640 C   0  0  0  0  0  2  0  0  0  0  0  0
   56.1960  -44.0050   13.5190 C   0  0  0  0  0  2  0  0  0  0  0  0
   57.2240  -44.4360   12.5200 N   0  0  0  0  0  4  0  0  0  0  0  0
   58.3290  -43.4690   12.3640 C   0  0  0  0  0  2  0  0  0  0  0  0
   59.2990  -44.6570   12.3920 C   0  0  0  0  0  2  0  0  0  0  0  0
   58.1740  -45.4040   13.1190 C   0  0  0  0  0  2  0  0  0  0  0  0
   56.8330  -44.7850   11.6290 H   0  0  0  0  0  0  0  0  0  0  0  0
  1  5  1  0  0  0  0
  1  8  1  0  0  0  0
  2  1  2  0  0  0  0
  3  2  1  0  0  0  0
  3  4  1  0  0  0  0
  4  5  2  0  0  0  0
  6 13  1  0  0  0  0
  7  6  2  0  0  0  0
  8  7  1  0  0  0  0
  9  8  2  0  0  0  0
  9 10  1  0  0  0  0
 10 11  2  0  0  0  0
 11  6  1  0  0  0  0
 13 12  1  0  0  0  0
 13 14  1  0  0  0  0
 15  4  1  1  0  0  0
 15 16  1  0  0  0  0
 16 17  1  0  0  0  0
 18 21  1  0  0  0  0
 18 17  1  0  0  0  0
 19 18  1  0  0  0  0
 20 15  1  0  0  0  0
 20 19  1  0  0  0  0
 21 27  1  0  0  0  0
 22 23  1  0  0  0  0
 22 21  2  0  0  0  0
 23 24  2  0  0  0  0
 24 25  1  0  0  0  0
 25 27  2  0  0  0  0
 25 26  1  0  0  0  0
 26 30  1  0  0  0  0
 27 28  1  0  0  0  0
 29 26  1  0  0  0  0
 31  3  1  0  0  0  0
 32 31  1  0  0  0  0
 33 36  1  0  0  0  0
 33 32  1  0  0  0  0
 34 35  1  0  0  0  0
 34 33  1  0  0  0  0
 35 36  1  0  0  0  0
 37 33  1  0  0  0  0
M  END
>  <minimizedAffinity>
-3.47411299

$$$$
