
 OpenBabel11232419353D

 37 41  0  0  1  0  0  0  0  0999 V2000
   55.3860  -40.6910   18.2470 C   0  0  0  0  0  0  0  0  0  0  0  0
   54.9340  -41.9230   18.6580 C   0  0  0  0  0  3  0  0  0  0  0  0
   56.0650  -42.6570   18.9160 N   0  0  0  0  0  0  0  0  0  0  0  0
   57.1530  -41.8290   18.7480 C   0  0  0  0  0  0  0  0  0  0  0  0
   56.7570  -40.6800   18.2430 N   0  0  0  0  0  0  0  0  0  0  0  0
   53.4600  -37.4650   18.3010 C   0  0  0  0  0  0  0  0  0  0  0  0
   54.2220  -38.5440   18.7480 C   0  0  0  0  0  3  0  0  0  0  0  0
   54.5810  -39.5500   17.8460 C   0  0  0  0  0  0  0  0  0  0  0  0
   54.1740  -39.4330   16.5170 C   0  0  0  0  0  3  0  0  0  0  0  0
   53.4150  -38.3370   16.1560 C   0  0  0  0  0  3  0  0  0  0  0  0
   53.0470  -37.3650   17.0160 N   0  0  0  0  0  0  0  0  0  0  0  0
   52.6600  -36.8070   20.6060 C   0  0  0  0  0  1  0  0  0  0  0  0
   53.0730  -36.3200   19.2160 C   0  0  0  0  0  3  0  0  0  0  0  0
   54.1920  -35.2800   19.3060 C   0  0  0  0  0  1  0  0  0  0  0  0
   58.5800  -42.1690   19.1030 C   0  0  2  0  0  3  0  0  0  0  0  0
   59.3600  -40.9070   19.4980 C   0  0  0  0  0  2  0  0  0  0  0  0
   59.8300  -40.0980   18.2880 C   0  0  0  0  0  2  0  0  0  0  0  0
   60.5180  -40.9510   17.3240 N   0  0  0  0  0  0  0  0  0  0  0  0
   59.7460  -42.0800   16.8160 C   0  0  0  0  0  2  0  0  0  0  0  0
   59.2810  -42.9580   17.9820 C   0  0  0  0  0  2  0  0  0  0  0  0
   61.8950  -41.1130   17.4480 C   0  0  0  0  0  0  0  0  0  0  0  0
   62.4090  -41.0360   18.6950 N   0  0  0  0  0  0  0  0  0  0  0  0
   63.7290  -41.2210   18.8230 C   0  0  0  0  0  3  0  0  0  0  0  0
   64.5920  -41.4830   17.8380 N   0  0  0  0  0  0  0  0  0  0  0  0
   64.0800  -41.5220   16.6010 C   0  0  0  0  0  0  0  0  0  0  0  0
   64.9950  -41.8130   15.6030 N   0  0  0  0  0  0  0  0  0  0  0  0
   62.7220  -41.3480   16.3470 C   0  0  0  0  0  0  0  0  0  0  0  0
   62.0800  -41.3260   14.5540 Br  0  0  0  0  0  0  0  0  0  0  0  0
   65.9470  -41.8960   15.9390 H   0  0  0  0  0  0  0  0  0  0  0  0
   64.8560  -41.3800   14.7000 H   0  0  0  0  0  0  0  0  0  0  0  0
   56.0600  -44.0780   19.2050 C   0  0  0  0  0  2  0  0  0  0  0  0
   56.5340  -44.3750   20.6350 C   0  0  0  0  0  2  0  0  0  0  0  0
   55.4060  -44.7370   21.5510 N   0  0  0  0  0  4  0  0  0  0  0  0
   54.7480  -43.5640   22.1590 C   0  0  0  0  0  2  0  0  0  0  0  0
   53.4000  -44.2330   21.8540 C   0  0  0  0  0  2  0  0  0  0  0  0
   54.1690  -45.0190   20.7840 C   0  0  0  0  0  2  0  0  0  0  0  0
   55.6260  -45.4980   22.2170 H   0  0  0  0  0  0  0  0  0  0  0  0
  1  2  2  0  0  0  0
  2  3  1  0  0  0  0
  3 31  1  0  0  0  0
  4  3  1  0  0  0  0
  5  1  1  0  0  0  0
  5  4  2  0  0  0  0
  6  7  1  0  0  0  0
  6 13  1  0  0  0  0
  8  1  1  0  0  0  0
  8  7  2  0  0  0  0
  9  8  1  0  0  0  0
 10  9  2  0  0  0  0
 10 11  1  0  0  0  0
 11  6  2  0  0  0  0
 13 14  1  0  0  0  0
 13 12  1  0  0  0  0
 15  4  1  6  0  0  0
 15 16  1  0  0  0  0
 17 16  1  0  0  0  0
 18 21  1  0  0  0  0
 18 17  1  0  0  0  0
 19 18  1  0  0  0  0
 19 20  1  0  0  0  0
 20 15  1  0  0  0  0
 21 22  1  0  0  0  0
 22 23  2  0  0  0  0
 24 23  1  0  0  0  0
 25 24  2  0  0  0  0
 26 29  1  0  0  0  0
 26 25  1  0  0  0  0
 27 25  1  0  0  0  0
 27 21  2  0  0  0  0
 28 27  1  0  0  0  0
 30 26  1  0  0  0  0
 31 32  1  0  0  0  0
 32 33  1  0  0  0  0
 33 34  1  0  0  0  0
 33 37  1  0  0  0  0
 35 34  1  0  0  0  0
 36 33  1  0  0  0  0
 36 35  1  0  0  0  0
M  END
>  <minimizedAffinity>
-4.5128355

$$$$
