
 OpenBabel11232419353D

 37 41  0  0  1  0  0  0  0  0999 V2000
   55.2550  -41.5060   17.0910 C   0  0  0  0  0  0  0  0  0  0  0  0
   54.7280  -41.6380   18.3550 C   0  0  0  0  0  3  0  0  0  0  0  0
   55.7080  -42.2490   19.0950 N   0  0  0  0  0  0  0  0  0  0  0  0
   56.8220  -42.3810   18.2960 C   0  0  0  0  0  0  0  0  0  0  0  0
   56.5200  -42.0360   17.0620 N   0  0  0  0  0  0  0  0  0  0  0  0
   53.3850  -39.1670   14.8210 C   0  0  0  0  0  0  0  0  0  0  0  0
   53.9740  -39.6810   15.9760 C   0  0  0  0  0  3  0  0  0  0  0  0
   54.6100  -40.9250   15.9270 C   0  0  0  0  0  0  0  0  0  0  0  0
   54.6470  -41.6090   14.7120 C   0  0  0  0  0  3  0  0  0  0  0  0
   54.0320  -41.0360   13.6150 C   0  0  0  0  0  3  0  0  0  0  0  0
   53.4020  -39.8440   13.6490 N   0  0  0  0  0  0  0  0  0  0  0  0
   53.2800  -36.8680   15.8650 C   0  0  0  0  0  1  0  0  0  0  0  0
   52.7180  -37.8070   14.7960 C   0  0  0  0  0  3  0  0  0  0  0  0
   52.8030  -37.1730   13.4060 C   0  0  0  0  0  1  0  0  0  0  0  0
   58.1860  -42.8340   18.7550 C   0  0  2  0  0  3  0  0  0  0  0  0
   58.9970  -41.6520   19.3040 C   0  0  0  0  0  2  0  0  0  0  0  0
   59.6280  -40.8020   18.2000 C   0  0  0  0  0  2  0  0  0  0  0  0
   60.3530  -41.6360   17.2470 N   0  0  0  0  0  0  0  0  0  0  0  0
   59.5680  -42.6800   16.5960 C   0  0  0  0  0  2  0  0  0  0  0  0
   58.9430  -43.5960   17.6520 C   0  0  0  0  0  2  0  0  0  0  0  0
   61.7000  -41.8950   17.4860 C   0  0  0  0  0  0  0  0  0  0  0  0
   62.0250  -42.3620   18.7110 N   0  0  0  0  0  0  0  0  0  0  0  0
   63.3150  -42.6400   18.9350 C   0  0  0  0  0  3  0  0  0  0  0  0
   64.3170  -42.5080   18.0630 N   0  0  0  0  0  0  0  0  0  0  0  0
   63.9920  -42.0100   16.8630 C   0  0  0  0  0  0  0  0  0  0  0  0
   65.0490  -41.9020   15.9740 N   0  0  0  0  0  0  0  0  0  0  0  0
   62.6830  -41.6890   16.5150 C   0  0  0  0  0  0  0  0  0  0  0  0
   62.3100  -40.8990   14.8230 Br  0  0  0  0  0  0  0  0  0  0  0  0
   65.9440  -42.1570   16.3750 H   0  0  0  0  0  0  0  0  0  0  0  0
   65.0350  -41.1290   15.3230 H   0  0  0  0  0  0  0  0  0  0  0  0
   55.5130  -42.7430   20.4440 C   0  0  0  0  0  2  0  0  0  0  0  0
   54.5500  -43.9390   20.4840 C   0  0  0  0  0  2  0  0  0  0  0  0
   55.0820  -45.0800   21.2950 N   0  0  0  0  0  4  0  0  0  0  0  0
   56.5530  -45.0650   21.4300 C   0  0  0  0  0  2  0  0  0  0  0  0
   56.3640  -45.3960   22.9160 C   0  0  0  0  0  2  0  0  0  0  0  0
   54.9590  -44.8020   22.7470 C   0  0  0  0  0  2  0  0  0  0  0  0
   54.6840  -46.0010   21.0460 H   0  0  0  0  0  0  0  0  0  0  0  0
  1  2  2  0  0  0  0
  2  3  1  0  0  0  0
  3 31  1  0  0  0  0
  4  3  1  0  0  0  0
  5  1  1  0  0  0  0
  5  4  2  0  0  0  0
  6  7  1  0  0  0  0
  8  7  2  0  0  0  0
  8  1  1  0  0  0  0
  9  8  1  0  0  0  0
 10 11  1  0  0  0  0
 10  9  2  0  0  0  0
 11  6  2  0  0  0  0
 13  6  1  0  0  0  0
 13 12  1  0  0  0  0
 14 13  1  0  0  0  0
 15  4  1  6  0  0  0
 15 16  1  0  0  0  0
 17 16  1  0  0  0  0
 18 21  1  0  0  0  0
 18 17  1  0  0  0  0
 19 18  1  0  0  0  0
 19 20  1  0  0  0  0
 20 15  1  0  0  0  0
 21 22  1  0  0  0  0
 22 23  2  0  0  0  0
 24 23  1  0  0  0  0
 25 24  2  0  0  0  0
 26 29  1  0  0  0  0
 26 25  1  0  0  0  0
 27 25  1  0  0  0  0
 27 21  2  0  0  0  0
 28 27  1  0  0  0  0
 30 26  1  0  0  0  0
 31 32  1  0  0  0  0
 32 33  1  0  0  0  0
 33 34  1  0  0  0  0
 33 36  1  0  0  0  0
 34 35  1  0  0  0  0
 36 35  1  0  0  0  0
 37 33  1  0  0  0  0
M  END
>  <minimizedAffinity>
-4.0009017

$$$$
