
 OpenBabel11232419353D

 37 41  0  0  1  0  0  0  0  0999 V2000
   57.3770  -41.8480   17.4190 C   0  0  0  0  0  0  0  0  0  0  0  0
   57.9000  -41.0750   18.4290 C   0  0  0  0  0  3  0  0  0  0  0  0
   59.1120  -41.6440   18.7310 N   0  0  0  0  0  0  0  0  0  0  0  0
   59.3290  -42.6740   17.8420 C   0  0  0  0  0  0  0  0  0  0  0  0
   58.2440  -42.8690   17.1230 N   0  0  0  0  0  0  0  0  0  0  0  0
   54.6650  -41.8250   14.8180 C   0  0  0  0  0  0  0  0  0  0  0  0
   55.9180  -42.0050   15.4030 C   0  0  0  0  0  3  0  0  0  0  0  0
   56.1010  -41.6700   16.7480 C   0  0  0  0  0  0  0  0  0  0  0  0
   55.0130  -41.1780   17.4690 C   0  0  0  0  0  3  0  0  0  0  0  0
   53.8070  -41.0220   16.8140 C   0  0  0  0  0  3  0  0  0  0  0  0
   53.6160  -41.3260   15.5130 N   0  0  0  0  0  0  0  0  0  0  0  0
   55.1130  -41.2930   12.3890 C   0  0  0  0  0  1  0  0  0  0  0  0
   54.3880  -42.2080   13.3780 C   0  0  0  0  0  3  0  0  0  0  0  0
   54.7270  -43.6770   13.1190 C   0  0  0  0  0  1  0  0  0  0  0  0
   60.6130  -43.4530   17.6950 C   0  0  2  0  0  3  0  0  0  0  0  0
   61.8310  -42.5400   17.8910 C   0  0  0  0  0  2  0  0  0  0  0  0
   62.1610  -41.7170   16.6440 C   0  0  0  0  0  2  0  0  0  0  0  0
   62.2330  -42.5670   15.4600 N   0  0  0  0  0  0  0  0  0  0  0  0
   61.0310  -43.3400   15.1630 C   0  0  0  0  0  2  0  0  0  0  0  0
   60.6720  -44.2220   16.3620 C   0  0  0  0  0  2  0  0  0  0  0  0
   63.4620  -43.1280   15.1220 C   0  0  0  0  0  0  0  0  0  0  0  0
   64.1300  -43.7720   16.1030 N   0  0  0  0  0  0  0  0  0  0  0  0
   65.2980  -44.3390   15.7760 C   0  0  0  0  0  3  0  0  0  0  0  0
   65.8680  -44.3370   14.5680 N   0  0  0  0  0  0  0  0  0  0  0  0
   65.2170  -43.6650   13.6100 C   0  0  0  0  0  0  0  0  0  0  0  0
   65.8240  -43.6970   12.3640 N   0  0  0  0  0  0  0  0  0  0  0  0
   63.9930  -43.0410   13.8330 C   0  0  0  0  0  0  0  0  0  0  0  0
   63.1700  -42.0270   12.4470 Br  0  0  0  0  0  0  0  0  0  0  0  0
   66.7170  -44.1740   12.3620 H   0  0  0  0  0  0  0  0  0  0  0  0
   65.7320  -42.8780   11.7790 H   0  0  0  0  0  0  0  0  0  0  0  0
   59.9280  -41.2570   19.8650 C   0  0  0  0  0  2  0  0  0  0  0  0
   59.6110  -39.8310   20.3400 C   0  0  0  0  0  2  0  0  0  0  0  0
   60.6770  -38.8490   19.9620 N   0  0  0  0  0  4  0  0  0  0  0  0
   62.0360  -39.4290   19.9720 C   0  0  0  0  0  2  0  0  0  0  0  0
   62.2910  -38.7090   18.6410 C   0  0  0  0  0  2  0  0  0  0  0  0
   60.7650  -38.7010   18.4890 C   0  0  0  0  0  2  0  0  0  0  0  0
   60.5990  -37.9330   20.4350 H   0  0  0  0  0  0  0  0  0  0  0  0
  1  2  2  0  0  0  0
  2  3  1  0  0  0  0
  3 31  1  0  0  0  0
  4  3  1  0  0  0  0
  5  1  1  0  0  0  0
  5  4  2  0  0  0  0
  6  7  2  0  0  0  0
  6 11  1  0  0  0  0
  7  8  1  0  0  0  0
  8  1  1  0  0  0  0
  8  9  2  0  0  0  0
 10  9  1  0  0  0  0
 11 10  2  0  0  0  0
 12 13  1  0  0  0  0
 13  6  1  0  0  0  0
 14 13  1  0  0  0  0
 15  4  1  6  0  0  0
 15 16  1  0  0  0  0
 17 16  1  0  0  0  0
 18 17  1  0  0  0  0
 19 18  1  0  0  0  0
 19 20  1  0  0  0  0
 20 15  1  0  0  0  0
 21 18  1  0  0  0  0
 21 22  1  0  0  0  0
 23 22  2  0  0  0  0
 24 23  1  0  0  0  0
 25 27  1  0  0  0  0
 25 24  2  0  0  0  0
 26 25  1  0  0  0  0
 27 21  2  0  0  0  0
 28 27  1  0  0  0  0
 29 26  1  0  0  0  0
 30 26  1  0  0  0  0
 31 32  1  0  0  0  0
 33 34  1  0  0  0  0
 33 32  1  0  0  0  0
 33 37  1  0  0  0  0
 35 34  1  0  0  0  0
 36 35  1  0  0  0  0
 36 33  1  0  0  0  0
M  END
>  <minimizedAffinity>
-3.92985368

$$$$
