
 OpenBabel11232419353D

 37 41  0  0  1  0  0  0  0  0999 V2000
   55.3700  -39.8050   18.3550 C   0  0  0  0  0  0  0  0  0  0  0  0
   54.8390  -40.8280   19.1050 C   0  0  0  0  0  3  0  0  0  0  0  0
   55.9170  -41.5610   19.5340 N   0  0  0  0  0  0  0  0  0  0  0  0
   57.0600  -40.9150   19.1190 C   0  0  0  0  0  0  0  0  0  0  0  0
   56.7360  -39.9200   18.3190 N   0  0  0  0  0  0  0  0  0  0  0  0
   53.4170  -37.8870   15.7810 C   0  0  0  0  0  0  0  0  0  0  0  0
   54.1190  -38.9300   16.3840 C   0  0  0  0  0  3  0  0  0  0  0  0
   54.6430  -38.7520   17.6680 C   0  0  0  0  0  0  0  0  0  0  0  0
   54.4320  -37.5330   18.3120 C   0  0  0  0  0  3  0  0  0  0  0  0
   53.7340  -36.5470   17.6430 C   0  0  0  0  0  3  0  0  0  0  0  0
   53.2340  -36.6970   16.3990 N   0  0  0  0  0  0  0  0  0  0  0  0
   53.0540  -36.8110   13.5230 C   0  0  0  0  0  1  0  0  0  0  0  0
   52.7880  -38.0290   14.4090 C   0  0  0  0  0  3  0  0  0  0  0  0
   53.2400  -39.3200   13.7230 C   0  0  0  0  0  1  0  0  0  0  0  0
   58.4690  -41.2710   19.5240 C   0  0  2  0  0  3  0  0  0  0  0  0
   59.3380  -40.0110   19.6450 C   0  0  0  0  0  2  0  0  0  0  0  0
   59.8330  -39.5000   18.2910 C   0  0  0  0  0  2  0  0  0  0  0  0
   60.4430  -40.5770   17.5170 N   0  0  0  0  0  0  0  0  0  0  0  0
   59.5880  -41.7320   17.2580 C   0  0  0  0  0  2  0  0  0  0  0  0
   59.0930  -42.3180   18.5830 C   0  0  0  0  0  2  0  0  0  0  0  0
   61.8080  -40.8040   17.6610 C   0  0  0  0  0  0  0  0  0  0  0  0
   62.3190  -40.6870   18.9060 N   0  0  0  0  0  0  0  0  0  0  0  0
   63.6270  -40.9330   19.0550 C   0  0  0  0  0  3  0  0  0  0  0  0
   64.4800  -41.2910   18.0920 N   0  0  0  0  0  0  0  0  0  0  0  0
   63.9730  -41.3690   16.8540 C   0  0  0  0  0  0  0  0  0  0  0  0
   64.8780  -41.7610   15.8810 N   0  0  0  0  0  0  0  0  0  0  0  0
   62.6280  -41.1400   16.5810 C   0  0  0  0  0  0  0  0  0  0  0  0
   61.9980  -41.1790   14.7840 Br  0  0  0  0  0  0  0  0  0  0  0  0
   65.8230  -41.8740   16.2280 H   0  0  0  0  0  0  0  0  0  0  0  0
   64.7670  -41.3690   14.9550 H   0  0  0  0  0  0  0  0  0  0  0  0
   55.8090  -42.8390   20.2100 C   0  0  0  0  0  2  0  0  0  0  0  0
   54.8010  -43.7710   19.5210 C   0  0  0  0  0  2  0  0  0  0  0  0
   55.4610  -44.9310   18.8440 N   0  0  0  0  0  4  0  0  0  0  0  0
   56.0670  -44.5820   17.5430 C   0  0  0  0  0  2  0  0  0  0  0  0
   57.2950  -45.4030   17.9590 C   0  0  0  0  0  2  0  0  0  0  0  0
   56.8160  -45.1690   19.3970 C   0  0  0  0  0  2  0  0  0  0  0  0
   54.8940  -45.7970   18.8330 H   0  0  0  0  0  0  0  0  0  0  0  0
  1  2  2  0  0  0  0
  2  3  1  0  0  0  0
  3 31  1  0  0  0  0
  4  3  1  0  0  0  0
  5  1  1  0  0  0  0
  5  4  2  0  0  0  0
  6  7  2  0  0  0  0
  6 11  1  0  0  0  0
  7  8  1  0  0  0  0
  8  9  2  0  0  0  0
  8  1  1  0  0  0  0
 10  9  1  0  0  0  0
 11 10  2  0  0  0  0
 12 13  1  0  0  0  0
 13  6  1  0  0  0  0
 14 13  1  0  0  0  0
 15  4  1  6  0  0  0
 15 16  1  0  0  0  0
 17 16  1  0  0  0  0
 18 21  1  0  0  0  0
 18 17  1  0  0  0  0
 19 18  1  0  0  0  0
 19 20  1  0  0  0  0
 20 15  1  0  0  0  0
 21 22  1  0  0  0  0
 22 23  2  0  0  0  0
 24 23  1  0  0  0  0
 25 24  2  0  0  0  0
 26 29  1  0  0  0  0
 26 25  1  0  0  0  0
 27 25  1  0  0  0  0
 27 21  2  0  0  0  0
 28 27  1  0  0  0  0
 30 26  1  0  0  0  0
 32 31  1  0  0  0  0
 33 36  1  0  0  0  0
 33 32  1  0  0  0  0
 34 35  1  0  0  0  0
 34 33  1  0  0  0  0
 35 36  1  0  0  0  0
 37 33  1  0  0  0  0
M  END
>  <minimizedAffinity>
-4.89197922

$$$$
