
 OpenBabel11232420273D

 41 46  0  0  1  0  0  0  0  0999 V2000
   -0.5410    4.7280   -6.6970 C   0  0  0  0  0  0  0  0  0  0  0  0
   -1.2130    3.5650   -7.0290 N   0  0  0  0  0  0  0  0  0  0  0  0
   -2.4150    3.6870   -6.5120 C   0  0  0  0  0  0  0  0  0  0  0  0
   -2.5220    4.8430   -5.7950 N   0  0  0  0  0  0  0  0  0  0  0  0
   -1.3580    5.5650   -5.9410 C   0  0  0  0  0  0  0  0  0  0  0  0
   -3.7870    5.2880   -5.2370 C   0  0  0  0  0  2  0  0  0  0  0  0
   -4.7540    4.2310   -5.0590 O   0  0  0  0  0  0  0  0  0  0  0  0
   -4.7370    3.2100   -5.9750 C   0  0  0  0  0  0  0  0  0  0  0  0
   -5.9230    2.4900   -6.1410 C   0  0  0  0  0  3  0  0  0  0  0  0
   -5.9720    1.4320   -7.0570 C   0  0  0  0  0  0  0  0  0  0  0  0
   -4.8110    1.0850   -7.7690 C   0  0  0  0  0  3  0  0  0  0  0  0
   -3.6210    1.7930   -7.5830 C   0  0  0  0  0  3  0  0  0  0  0  0
   -3.5880    2.8640   -6.6920 C   0  0  0  0  0  0  0  0  0  0  0  0
    3.4800    5.5740   -8.1110 C   0  0  0  0  0  0  0  0  0  0  0  0
    2.7780    6.4170   -7.2190 C   0  0  0  0  0  3  0  0  0  0  0  0
    1.4710    6.1400   -6.7930 C   0  0  0  0  0  3  0  0  0  0  0  0
    0.7830    5.0090   -7.2400 C   0  0  0  0  0  0  0  0  0  0  0  0
    1.4200    4.1980   -8.1750 C   0  0  0  0  0  3  0  0  0  0  0  0
    2.7340    4.4730   -8.5870 C   0  0  0  0  0  3  0  0  0  0  0  0
    7.8750    7.4350   -7.6350 C   0  0  0  0  0  1  0  0  0  0  0  0
    6.4220    7.0330   -7.4200 C   0  0  1  0  0  0  0  0  0  0  0  0
    5.5310    7.2640   -8.6650 C   0  0  0  0  0  2  0  0  0  0  0  0
    5.0110    5.8020   -8.5600 C   0  0  1  0  0  0  0  0  0  0  0  0
    6.1400    5.5140   -7.5320 C   0  0  0  0  0  2  0  0  0  0  0  0
    5.2710    5.0830   -9.8340 N   0  0  0  0  0  4  0  0  0  0  0  0
    5.1630    4.0670   -9.7160 H   0  0  0  0  0  0  0  0  0  0  0  0
    4.6120    5.3860  -10.5640 H   0  0  0  0  0  0  0  0  0  0  0  0
    6.2180    5.2460  -10.1990 H   0  0  0  0  0  0  0  0  0  0  0  0
    5.9210    7.6510   -6.2210 O   0  0  0  0  0  0  0  0  0  0  0  0
    6.5680    7.4650   -5.5140 H   0  0  0  0  0  0  0  0  0  0  0  0
   -1.2280    6.9500   -5.5070 C   0  0  0  0  0  0  0  0  0  0  0  0
   -1.4590    8.0040   -6.3970 C   0  0  0  0  0  3  0  0  0  0  0  0
   -1.3120    9.3250   -5.9690 C   0  0  0  0  0  3  0  0  0  0  0  0
   -0.9320    9.5970   -4.6550 C   0  0  0  0  0  3  0  0  0  0  0  0
   -0.7030    8.5510   -3.7640 C   0  0  0  0  0  3  0  0  0  0  0  0
   -0.8500    7.2300   -4.1880 C   0  0  0  0  0  3  0  0  0  0  0  0
   -7.2150    0.6630   -7.3490 C   0  0  0  0  0  0  0  0  0  0  0  0
   -8.0070    1.0600   -8.3880 N   0  0  0  0  0  0  0  0  0  0  0  0
   -7.5280   -0.3150   -6.6790 O   0  0  0  0  0  0  0  0  0  0  0  0
   -8.8380    0.5060   -8.5600 H   0  0  0  0  0  0  0  0  0  0  0  0
   -7.8550    1.8660   -8.9710 H   0  0  0  0  0  0  0  0  0  0  0  0
  1  5  2  0  0  0  0
  2  1  1  0  0  0  0
  2  3  2  0  0  0  0
  3  4  1  0  0  0  0
  4  6  1  0  0  0  0
  5  4  1  0  0  0  0
  5 31  1  0  0  0  0
  6  7  1  0  0  0  0
  8  7  1  0  0  0  0
  9  8  1  0  0  0  0
 10  9  2  0  0  0  0
 11 12  2  0  0  0  0
 11 10  1  0  0  0  0
 12 13  1  0  0  0  0
 13  3  1  0  0  0  0
 13  8  2  0  0  0  0
 14 15  1  0  0  0  0
 15 16  2  0  0  0  0
 17 16  1  0  0  0  0
 17  1  1  0  0  0  0
 18 17  2  0  0  0  0
 19 18  1  0  0  0  0
 19 14  2  0  0  0  0
 21 20  1  6  0  0  0
 21 29  1  0  0  0  0
 22 23  1  0  0  0  0
 22 21  1  0  0  0  0
 23 25  1  6  0  0  0
 23 14  1  0  0  0  0
 23 24  1  0  0  0  0
 24 21  1  0  0  0  0
 25 26  1  0  0  0  0
 27 25  1  0  0  0  0
 28 25  1  0  0  0  0
 29 30  1  0  0  0  0
 31 36  1  0  0  0  0
 32 33  1  0  0  0  0
 32 31  2  0  0  0  0
 33 34  2  0  0  0  0
 34 35  1  0  0  0  0
 36 35  2  0  0  0  0
 37 10  1  0  0  0  0
 37 39  2  0  0  0  0
 38 37  1  0  0  0  0
 40 38  1  0  0  0  0
 41 38  1  0  0  0  0
M  END
>  <minimizedAffinity>
-10.3062363

$$$$
