
 OpenBabel11232420273D

 41 46  0  0  1  0  0  0  0  0999 V2000
    0.1010    5.2370   -7.5090 C   0  0  0  0  0  0  0  0  0  0  0  0
   -1.2150    5.1350   -7.0930 N   0  0  0  0  0  0  0  0  0  0  0  0
   -1.6770    4.0340   -7.6400 C   0  0  0  0  0  0  0  0  0  0  0  0
   -0.7410    3.4610   -8.4520 N   0  0  0  0  0  0  0  0  0  0  0  0
    0.4340    4.1740   -8.3450 C   0  0  0  0  0  0  0  0  0  0  0  0
   -0.9450    2.1620   -9.0670 C   0  0  0  0  0  2  0  0  0  0  0  0
   -2.3330    1.7760   -9.1740 O   0  0  0  0  0  0  0  0  0  0  0  0
   -3.1760    2.1960   -8.1770 C   0  0  0  0  0  0  0  0  0  0  0  0
   -4.3370    1.4470   -7.9740 C   0  0  0  0  0  3  0  0  0  0  0  0
   -5.2430    1.8250   -6.9750 C   0  0  0  0  0  0  0  0  0  0  0  0
   -4.9870    2.9800   -6.2160 C   0  0  0  0  0  3  0  0  0  0  0  0
   -3.8350    3.7400   -6.4390 C   0  0  0  0  0  3  0  0  0  0  0  0
   -2.9240    3.3400   -7.4140 C   0  0  0  0  0  0  0  0  0  0  0  0
    2.6440    8.2580   -5.6950 C   0  0  0  0  0  0  0  0  0  0  0  0
    1.2400    8.2310   -5.5380 C   0  0  0  0  0  3  0  0  0  0  0  0
    0.4330    7.2620   -6.1510 C   0  0  0  0  0  3  0  0  0  0  0  0
    0.9800    6.2680   -6.9670 C   0  0  0  0  0  0  0  0  0  0  0  0
    2.3510    6.3110   -7.2000 C   0  0  0  0  0  3  0  0  0  0  0  0
    3.1560    7.2760   -6.5720 C   0  0  0  0  0  3  0  0  0  0  0  0
    4.4770   10.4080   -1.8190 C   0  0  0  0  0  1  0  0  0  0  0  0
    3.6950    9.5030   -2.7610 C   0  0  1  0  0  0  0  0  0  0  0  0
    2.9920   10.2720   -3.9080 C   0  0  0  0  0  2  0  0  0  0  0  0
    3.6210    9.2950   -4.9420 C   0  0  1  0  0  0  0  0  0  0  0  0
    4.5510    8.7610   -3.8170 C   0  0  0  0  0  2  0  0  0  0  0  0
    4.4060   10.0630   -5.9450 N   0  0  0  0  0  4  0  0  0  0  0  0
    5.0200    9.4430   -6.4880 H   0  0  0  0  0  0  0  0  0  0  0  0
    3.7800   10.5420   -6.6070 H   0  0  0  0  0  0  0  0  0  0  0  0
    5.0010   10.7840   -5.5200 H   0  0  0  0  0  0  0  0  0  0  0  0
    2.8140    8.6580   -2.0000 O   0  0  0  0  0  0  0  0  0  0  0  0
    3.3510    8.2480   -1.2950 H   0  0  0  0  0  0  0  0  0  0  0  0
    1.6990    3.6970   -8.8890 C   0  0  0  0  0  0  0  0  0  0  0  0
    1.9890    3.8370  -10.2500 C   0  0  0  0  0  3  0  0  0  0  0  0
    3.1980    3.3570  -10.7590 C   0  0  0  0  0  3  0  0  0  0  0  0
    4.1170    2.7370   -9.9130 C   0  0  0  0  0  3  0  0  0  0  0  0
    3.8320    2.5970   -8.5560 C   0  0  0  0  0  3  0  0  0  0  0  0
    2.6260    3.0750   -8.0450 C   0  0  0  0  0  3  0  0  0  0  0  0
   -6.4660    1.0400   -6.6430 C   0  0  0  0  0  0  0  0  0  0  0  0
   -6.7890   -0.0360   -7.4210 N   0  0  0  0  0  0  0  0  0  0  0  0
   -7.1730    1.3400   -5.6880 O   0  0  0  0  0  0  0  0  0  0  0  0
   -7.6220   -0.5500   -7.1570 H   0  0  0  0  0  0  0  0  0  0  0  0
   -6.2930   -0.3400   -8.2420 H   0  0  0  0  0  0  0  0  0  0  0  0
  1  2  1  0  0  0  0
  1 17  1  0  0  0  0
  3 13  1  0  0  0  0
  3  2  2  0  0  0  0
  4  5  1  0  0  0  0
  4  3  1  0  0  0  0
  5  1  2  0  0  0  0
  6  4  1  0  0  0  0
  7  6  1  0  0  0  0
  7  8  1  0  0  0  0
  8  9  2  0  0  0  0
  8 13  1  0  0  0  0
  9 10  1  0  0  0  0
 10 37  1  0  0  0  0
 10 11  2  0  0  0  0
 12 11  1  0  0  0  0
 13 12  2  0  0  0  0
 14 15  1  0  0  0  0
 14 23  1  0  0  0  0
 16 15  2  0  0  0  0
 17 16  1  0  0  0  0
 18 17  2  0  0  0  0
 18 19  1  0  0  0  0
 19 14  2  0  0  0  0
 21 29  1  0  0  0  0
 21 20  1  1  0  0  0
 22 21  1  0  0  0  0
 23 25  1  6  0  0  0
 23 22  1  0  0  0  0
 23 24  1  0  0  0  0
 24 21  1  0  0  0  0
 25 28  1  0  0  0  0
 26 25  1  0  0  0  0
 27 25  1  0  0  0  0
 29 30  1  0  0  0  0
 31  5  1  0  0  0  0
 31 36  1  0  0  0  0
 32 31  2  0  0  0  0
 33 32  1  0  0  0  0
 33 34  2  0  0  0  0
 34 35  1  0  0  0  0
 35 36  2  0  0  0  0
 37 39  2  0  0  0  0
 38 40  1  0  0  0  0
 38 37  1  0  0  0  0
 41 38  1  0  0  0  0
M  END
>  <minimizedAffinity>
-10.342948

$$$$
