
 OpenBabel11232420273D

 41 46  0  0  1  0  0  0  0  0999 V2000
   -0.0500    5.2050   -7.2820 C   0  0  0  0  0  0  0  0  0  0  0  0
    0.8090    4.3400   -7.9370 N   0  0  0  0  0  0  0  0  0  0  0  0
    1.9820    4.9330   -7.9360 C   0  0  0  0  0  0  0  0  0  0  0  0
    1.9000    6.1760   -7.3770 N   0  0  0  0  0  0  0  0  0  0  0  0
    0.6230    6.3600   -6.8910 C   0  0  0  0  0  0  0  0  0  0  0  0
    3.0780    6.9860   -7.1250 C   0  0  0  0  0  2  0  0  0  0  0  0
    4.2200    6.6270   -7.9330 O   0  0  0  0  0  0  0  0  0  0  0  0
    4.3630    5.3020   -8.2560 C   0  0  0  0  0  0  0  0  0  0  0  0
    5.6530    4.8620   -8.5620 C   0  0  0  0  0  3  0  0  0  0  0  0
    5.8680    3.5220   -8.9050 C   0  0  0  0  0  0  0  0  0  0  0  0
    4.7710    2.6460   -8.9740 C   0  0  0  0  0  3  0  0  0  0  0  0
    3.4790    3.0950   -8.6900 C   0  0  0  0  0  3  0  0  0  0  0  0
    3.2770    4.4230   -8.3200 C   0  0  0  0  0  0  0  0  0  0  0  0
   -4.0760    4.0620   -6.1130 C   0  0  0  0  0  0  0  0  0  0  0  0
   -2.9130    3.5080   -5.5310 C   0  0  0  0  0  3  0  0  0  0  0  0
   -1.6210    3.8710   -5.9390 C   0  0  0  0  0  3  0  0  0  0  0  0
   -1.4140    4.8030   -6.9590 C   0  0  0  0  0  0  0  0  0  0  0  0
   -2.5390    5.3130   -7.6010 C   0  0  0  0  0  3  0  0  0  0  0  0
   -3.8300    4.9550   -7.1800 C   0  0  0  0  0  3  0  0  0  0  0  0
   -7.9010    4.6720   -3.2840 C   0  0  0  0  0  1  0  0  0  0  0  0
   -6.5430    4.8000   -3.9610 C   0  0  1  0  0  0  0  0  0  0  0  0
   -5.8030    3.4470   -4.1110 C   0  0  0  0  0  2  0  0  0  0  0  0
   -5.5770    3.7430   -5.6210 C   0  0  1  0  0  0  0  0  0  0  0  0
   -6.5880    4.9160   -5.5050 C   0  0  0  0  0  2  0  0  0  0  0  0
   -6.1490    2.6420   -6.4400 N   0  0  0  0  0  4  0  0  0  0  0  0
   -6.2300    2.9170   -7.4270 H   0  0  0  0  0  0  0  0  0  0  0  0
   -5.5490    1.8070   -6.3960 H   0  0  0  0  0  0  0  0  0  0  0  0
   -7.0850    2.3550   -6.1270 H   0  0  0  0  0  0  0  0  0  0  0  0
   -5.7690    5.8180   -3.3040 O   0  0  0  0  0  0  0  0  0  0  0  0
   -6.3360    6.6100   -3.2400 H   0  0  0  0  0  0  0  0  0  0  0  0
    0.2610    7.4750   -6.0260 C   0  0  0  0  0  0  0  0  0  0  0  0
    0.9160    7.6760   -4.8070 C   0  0  0  0  0  3  0  0  0  0  0  0
    0.5430    8.7390   -3.9810 C   0  0  0  0  0  3  0  0  0  0  0  0
   -0.4830    9.6000   -4.3670 C   0  0  0  0  0  3  0  0  0  0  0  0
   -1.1370    9.4040   -5.5820 C   0  0  0  0  0  3  0  0  0  0  0  0
   -0.7670    8.3450   -6.4100 C   0  0  0  0  0  3  0  0  0  0  0  0
    7.2210    2.9540   -9.1720 C   0  0  0  0  0  0  0  0  0  0  0  0
    7.7600    2.0830   -8.2700 N   0  0  0  0  0  0  0  0  0  0  0  0
    7.8450    3.2530  -10.1840 O   0  0  0  0  0  0  0  0  0  0  0  0
    8.6760    1.7120   -8.4920 H   0  0  0  0  0  0  0  0  0  0  0  0
    7.3420    1.8040   -7.3970 H   0  0  0  0  0  0  0  0  0  0  0  0
  1 17  1  0  0  0  0
  1  5  2  0  0  0  0
  2  3  2  0  0  0  0
  2  1  1  0  0  0  0
  3  4  1  0  0  0  0
  4  6  1  0  0  0  0
  4  5  1  0  0  0  0
  5 31  1  0  0  0  0
  7  6  1  0  0  0  0
  8  7  1  0  0  0  0
  9  8  2  0  0  0  0
 10  9  1  0  0  0  0
 11 10  2  0  0  0  0
 11 12  1  0  0  0  0
 12 13  2  0  0  0  0
 13  8  1  0  0  0  0
 13  3  1  0  0  0  0
 14 23  1  0  0  0  0
 14 15  1  0  0  0  0
 16 15  2  0  0  0  0
 17 16  1  0  0  0  0
 18 19  1  0  0  0  0
 18 17  2  0  0  0  0
 19 14  2  0  0  0  0
 21 29  1  0  0  0  0
 21 20  1  1  0  0  0
 22 21  1  0  0  0  0
 23 25  1  6  0  0  0
 23 24  1  0  0  0  0
 23 22  1  0  0  0  0
 24 21  1  0  0  0  0
 25 27  1  0  0  0  0
 25 28  1  0  0  0  0
 26 25  1  0  0  0  0
 29 30  1  0  0  0  0
 31 32  1  0  0  0  0
 32 33  2  0  0  0  0
 34 33  1  0  0  0  0
 35 34  2  0  0  0  0
 36 31  2  0  0  0  0
 36 35  1  0  0  0  0
 37 10  1  0  0  0  0
 37 38  1  0  0  0  0
 38 41  1  0  0  0  0
 39 37  2  0  0  0  0
 40 38  1  0  0  0  0
M  END
>  <minimizedAffinity>
-11.7505589

$$$$
