
 OpenBabel11232420273D

 41 46  0  0  1  0  0  0  0  0999 V2000
    0.5740    5.0890   -7.5070 C   0  0  0  0  0  0  0  0  0  0  0  0
    1.3900    4.1700   -8.1430 N   0  0  0  0  0  0  0  0  0  0  0  0
    2.6080    4.6570   -8.0610 C   0  0  0  0  0  0  0  0  0  0  0  0
    2.6020    5.8870   -7.4690 N   0  0  0  0  0  0  0  0  0  0  0  0
    1.3220    6.1700   -7.0460 C   0  0  0  0  0  0  0  0  0  0  0  0
    3.8300    6.5830   -7.1300 C   0  0  0  0  0  2  0  0  0  0  0  0
    4.9810    6.1460   -7.8870 O   0  0  0  0  0  0  0  0  0  0  0  0
    5.0260    4.8220   -8.2430 C   0  0  0  0  0  0  0  0  0  0  0  0
    6.2880    4.2790   -8.4940 C   0  0  0  0  0  3  0  0  0  0  0  0
    6.4040    2.9340   -8.8670 C   0  0  0  0  0  0  0  0  0  0  0  0
    5.2410    2.1610   -9.0210 C   0  0  0  0  0  3  0  0  0  0  0  0
    3.9790    2.7140   -8.7910 C   0  0  0  0  0  3  0  0  0  0  0  0
    3.8730    4.0450   -8.3920 C   0  0  0  0  0  0  0  0  0  0  0  0
   -3.6350    4.1370   -6.9970 C   0  0  0  0  0  0  0  0  0  0  0  0
   -3.1390    4.9070   -8.0740 C   0  0  0  0  0  3  0  0  0  0  0  0
   -1.7800    5.2260   -8.2080 C   0  0  0  0  0  3  0  0  0  0  0  0
   -0.8360    4.8010   -7.2700 C   0  0  0  0  0  0  0  0  0  0  0  0
   -1.3030    4.1010   -6.1600 C   0  0  0  0  0  3  0  0  0  0  0  0
   -2.6630    3.7750   -6.0380 C   0  0  0  0  0  3  0  0  0  0  0  0
   -7.2000    0.9320   -7.1610 C   0  0  0  0  0  1  0  0  0  0  0  0
   -5.8390    1.6130   -7.1960 C   0  0  1  0  0  0  0  0  0  0  0  0
   -5.8250    2.9140   -8.0360 C   0  0  0  0  0  2  0  0  0  0  0  0
   -5.1710    3.6720   -6.8470 C   0  0  1  0  0  0  0  0  0  0  0  0
   -5.4940    2.4520   -5.9400 C   0  0  0  0  0  2  0  0  0  0  0  0
   -6.0120    4.8380   -6.4700 N   0  0  0  0  0  4  0  0  0  0  0  0
   -5.7400    5.2100   -5.5510 H   0  0  0  0  0  0  0  0  0  0  0  0
   -5.9100    5.5970   -7.1570 H   0  0  0  0  0  0  0  0  0  0  0  0
   -7.0120    4.6100   -6.4200 H   0  0  0  0  0  0  0  0  0  0  0  0
   -4.8300    0.6610   -7.5780 O   0  0  0  0  0  0  0  0  0  0  0  0
   -4.9470   -0.1220   -7.0070 H   0  0  0  0  0  0  0  0  0  0  0  0
    1.0100    7.2900   -6.1670 C   0  0  0  0  0  0  0  0  0  0  0  0
    1.9320    7.7250   -5.2090 C   0  0  0  0  0  3  0  0  0  0  0  0
    1.6090    8.7870   -4.3620 C   0  0  0  0  0  3  0  0  0  0  0  0
    0.3690    9.4150   -4.4670 C   0  0  0  0  0  3  0  0  0  0  0  0
   -0.5520    8.9860   -5.4210 C   0  0  0  0  0  3  0  0  0  0  0  0
   -0.2330    7.9260   -6.2690 C   0  0  0  0  0  3  0  0  0  0  0  0
    7.7160    2.2570   -9.0800 C   0  0  0  0  0  0  0  0  0  0  0  0
    8.6970    2.9210   -9.7590 N   0  0  0  0  0  0  0  0  0  0  0  0
    7.9230    1.1270   -8.6520 O   0  0  0  0  0  0  0  0  0  0  0  0
    9.5770    2.4310   -9.8740 H   0  0  0  0  0  0  0  0  0  0  0  0
    8.6120    3.8330  -10.1760 H   0  0  0  0  0  0  0  0  0  0  0  0
  1 17  1  0  0  0  0
  1  5  2  0  0  0  0
  2  3  2  0  0  0  0
  2  1  1  0  0  0  0
  3  4  1  0  0  0  0
  4  6  1  0  0  0  0
  4  5  1  0  0  0  0
  5 31  1  0  0  0  0
  7  6  1  0  0  0  0
  8  7  1  0  0  0  0
  9  8  2  0  0  0  0
 10  9  1  0  0  0  0
 11 10  2  0  0  0  0
 11 12  1  0  0  0  0
 12 13  2  0  0  0  0
 13  8  1  0  0  0  0
 13  3  1  0  0  0  0
 14 23  1  0  0  0  0
 14 19  1  0  0  0  0
 15 14  2  0  0  0  0
 16 15  1  0  0  0  0
 16 17  2  0  0  0  0
 17 18  1  0  0  0  0
 18 19  2  0  0  0  0
 21 20  1  1  0  0  0
 21 24  1  0  0  0  0
 22 21  1  0  0  0  0
 22 23  1  0  0  0  0
 23 25  1  1  0  0  0
 23 24  1  0  0  0  0
 25 28  1  0  0  0  0
 25 26  1  0  0  0  0
 27 25  1  0  0  0  0
 29 21  1  0  0  0  0
 29 30  1  0  0  0  0
 31 32  1  0  0  0  0
 32 33  2  0  0  0  0
 34 33  1  0  0  0  0
 35 34  2  0  0  0  0
 36 31  2  0  0  0  0
 36 35  1  0  0  0  0
 37 10  1  0  0  0  0
 37 39  2  0  0  0  0
 38 37  1  0  0  0  0
 40 38  1  0  0  0  0
 41 38  1  0  0  0  0
M  END
>  <minimizedAffinity>
-10.6900253

$$$$
