
 OpenBabel11232420273D

 41 46  0  0  1  0  0  0  0  0999 V2000
   -0.2860    4.9320   -7.5840 C   0  0  0  0  0  0  0  0  0  0  0  0
   -1.6170    4.7990   -7.2260 N   0  0  0  0  0  0  0  0  0  0  0  0
   -2.0500    3.7290   -7.8530 C   0  0  0  0  0  0  0  0  0  0  0  0
   -1.0790    3.2100   -8.6600 N   0  0  0  0  0  0  0  0  0  0  0  0
    0.0860    3.9210   -8.4660 C   0  0  0  0  0  0  0  0  0  0  0  0
   -1.2500    1.9480   -9.3570 C   0  0  0  0  0  2  0  0  0  0  0  0
   -2.6300    1.5620   -9.5400 O   0  0  0  0  0  0  0  0  0  0  0  0
   -3.5130    1.9190   -8.5530 C   0  0  0  0  0  0  0  0  0  0  0  0
   -4.6760    1.1530   -8.4390 C   0  0  0  0  0  3  0  0  0  0  0  0
   -5.6220    1.4670   -7.4550 C   0  0  0  0  0  0  0  0  0  0  0  0
   -5.4030    2.5770   -6.6220 C   0  0  0  0  0  3  0  0  0  0  0  0
   -4.2500    3.3550   -6.7550 C   0  0  0  0  0  3  0  0  0  0  0  0
   -3.2990    3.0180   -7.7160 C   0  0  0  0  0  0  0  0  0  0  0  0
    2.1810    7.8390   -5.5000 C   0  0  0  0  0  0  0  0  0  0  0  0
    0.7870    7.7210   -5.3000 C   0  0  0  0  0  3  0  0  0  0  0  0
    0.0020    6.7930   -6.0010 C   0  0  0  0  0  3  0  0  0  0  0  0
    0.5630    5.9340   -6.9490 C   0  0  0  0  0  0  0  0  0  0  0  0
    1.9210    6.0750   -7.2210 C   0  0  0  0  0  3  0  0  0  0  0  0
    2.7030    6.9980   -6.5070 C   0  0  0  0  0  3  0  0  0  0  0  0
    5.8110   10.9360   -5.0130 C   0  0  0  0  0  1  0  0  0  0  0  0
    4.7620    9.9840   -5.5690 C   0  0  1  0  0  0  0  0  0  0  0  0
    4.6750    8.6460   -4.7930 C   0  0  0  0  0  2  0  0  0  0  0  0
    3.1370    8.8270   -4.6590 C   0  0  1  0  0  0  0  0  0  0  0  0
    3.3050   10.2940   -5.1450 C   0  0  0  0  0  2  0  0  0  0  0  0
    2.7510    8.7960   -3.2230 N   0  0  0  0  0  4  0  0  0  0  0  0
    1.7940    9.1490   -3.0890 H   0  0  0  0  0  0  0  0  0  0  0  0
    2.7840    7.8340   -2.8590 H   0  0  0  0  0  0  0  0  0  0  0  0
    3.3690    9.3620   -2.6300 H   0  0  0  0  0  0  0  0  0  0  0  0
    4.9540    9.8250   -6.9860 O   0  0  0  0  0  0  0  0  0  0  0  0
    5.0210   10.7220   -7.3660 H   0  0  0  0  0  0  0  0  0  0  0  0
    1.3740    3.4840   -8.9890 C   0  0  0  0  0  0  0  0  0  0  0  0
    2.2480    2.7310   -8.1980 C   0  0  0  0  0  3  0  0  0  0  0  0
    3.4870    2.3370   -8.7080 C   0  0  0  0  0  3  0  0  0  0  0  0
    3.8560    2.6930  -10.0040 C   0  0  0  0  0  3  0  0  0  0  0  0
    2.9880    3.4420  -10.7960 C   0  0  0  0  0  3  0  0  0  0  0  0
    1.7500    3.8370  -10.2910 C   0  0  0  0  0  3  0  0  0  0  0  0
   -6.8510    0.6580   -7.2170 C   0  0  0  0  0  0  0  0  0  0  0  0
   -8.0630    1.1810   -7.5690 N   0  0  0  0  0  0  0  0  0  0  0  0
   -6.7870   -0.4620   -6.7210 O   0  0  0  0  0  0  0  0  0  0  0  0
   -8.8730    0.5960   -7.4000 H   0  0  0  0  0  0  0  0  0  0  0  0
   -8.2210    2.1000   -7.9490 H   0  0  0  0  0  0  0  0  0  0  0  0
  1  2  1  0  0  0  0
  1 17  1  0  0  0  0
  3 13  1  0  0  0  0
  3  2  2  0  0  0  0
  4  5  1  0  0  0  0
  4  3  1  0  0  0  0
  5  1  2  0  0  0  0
  6  4  1  0  0  0  0
  7  6  1  0  0  0  0
  7  8  1  0  0  0  0
  8  9  2  0  0  0  0
  8 13  1  0  0  0  0
  9 10  1  0  0  0  0
 10 37  1  0  0  0  0
 10 11  2  0  0  0  0
 12 11  1  0  0  0  0
 13 12  2  0  0  0  0
 14 15  1  0  0  0  0
 14 23  1  0  0  0  0
 16 15  2  0  0  0  0
 17 16  1  0  0  0  0
 18 17  2  0  0  0  0
 18 19  1  0  0  0  0
 19 14  2  0  0  0  0
 21 24  1  0  0  0  0
 21 20  1  1  0  0  0
 21 22  1  0  0  0  0
 22 23  1  0  0  0  0
 23 25  1  1  0  0  0
 24 23  1  0  0  0  0
 25 26  1  0  0  0  0
 25 27  1  0  0  0  0
 25 28  1  0  0  0  0
 29 21  1  0  0  0  0
 30 29  1  0  0  0  0
 31  5  1  0  0  0  0
 31 32  1  0  0  0  0
 33 32  2  0  0  0  0
 34 33  1  0  0  0  0
 35 36  1  0  0  0  0
 35 34  2  0  0  0  0
 36 31  2  0  0  0  0
 37 39  2  0  0  0  0
 38 40  1  0  0  0  0
 38 37  1  0  0  0  0
 41 38  1  0  0  0  0
M  END
>  <minimizedAffinity>
-10.9799471

$$$$
