
 OpenBabel11232420273D

 41 46  0  0  1  0  0  0  0  0999 V2000
   -0.3190    4.4910   -6.9310 C   0  0  0  0  0  0  0  0  0  0  0  0
   -1.0550    3.3610   -7.2420 N   0  0  0  0  0  0  0  0  0  0  0  0
   -2.2330    3.5380   -6.6870 C   0  0  0  0  0  0  0  0  0  0  0  0
   -2.2640    4.6970   -5.9670 N   0  0  0  0  0  0  0  0  0  0  0  0
   -1.0720    5.3650   -6.1510 C   0  0  0  0  0  0  0  0  0  0  0  0
   -3.4880    5.2010   -5.3710 C   0  0  0  0  0  2  0  0  0  0  0  0
   -4.4980    4.1890   -5.1620 O   0  0  0  0  0  0  0  0  0  0  0  0
   -4.5570    3.1700   -6.0780 C   0  0  0  0  0  0  0  0  0  0  0  0
   -5.7790    2.5060   -6.2060 C   0  0  0  0  0  3  0  0  0  0  0  0
   -5.9070    1.4520   -7.1190 C   0  0  0  0  0  0  0  0  0  0  0  0
   -4.7860    1.0530   -7.8670 C   0  0  0  0  0  3  0  0  0  0  0  0
   -3.5590    1.7040   -7.7190 C   0  0  0  0  0  3  0  0  0  0  0  0
   -3.4480    2.7710   -6.8300 C   0  0  0  0  0  0  0  0  0  0  0  0
    3.6920    5.1380   -8.4710 C   0  0  0  0  0  0  0  0  0  0  0  0
    3.0840    5.9820   -7.5140 C   0  0  0  0  0  3  0  0  0  0  0  0
    1.7790    5.7710   -7.0470 C   0  0  0  0  0  3  0  0  0  0  0  0
    0.9990    4.7100   -7.5160 C   0  0  0  0  0  0  0  0  0  0  0  0
    1.5430    3.9050   -8.5120 C   0  0  0  0  0  3  0  0  0  0  0  0
    2.8560    4.1130   -8.9660 C   0  0  0  0  0  3  0  0  0  0  0  0
    7.7450    3.5270  -10.4680 C   0  0  0  0  0  1  0  0  0  0  0  0
    6.3210    3.6620   -9.9450 C   0  0  1  0  0  0  0  0  0  0  0  0
    6.2480    4.2220   -8.5030 C   0  0  0  0  0  2  0  0  0  0  0  0
    5.2160    5.2870   -8.9730 C   0  0  1  0  0  0  0  0  0  0  0  0
    5.5570    4.9140  -10.4430 C   0  0  0  0  0  2  0  0  0  0  0  0
    5.7180    6.6490   -8.6520 N   0  0  0  0  0  4  0  0  0  0  0  0
    5.1860    7.3690   -9.1570 H   0  0  0  0  0  0  0  0  0  0  0  0
    5.6290    6.8410   -7.6450 H   0  0  0  0  0  0  0  0  0  0  0  0
    6.7080    6.7780   -8.8960 H   0  0  0  0  0  0  0  0  0  0  0  0
    5.6200    2.4190  -10.1250 O   0  0  0  0  0  0  0  0  0  0  0  0
    5.7540    2.1480  -11.0530 H   0  0  0  0  0  0  0  0  0  0  0  0
   -0.8640    6.7420   -5.7210 C   0  0  0  0  0  0  0  0  0  0  0  0
   -0.3610    7.0250   -4.4470 C   0  0  0  0  0  3  0  0  0  0  0  0
   -0.1870    8.3520   -4.0450 C   0  0  0  0  0  3  0  0  0  0  0  0
   -0.5150    9.3950   -4.9090 C   0  0  0  0  0  3  0  0  0  0  0  0
   -1.0150    9.1170   -6.1800 C   0  0  0  0  0  3  0  0  0  0  0  0
   -1.1900    7.7940   -6.5860 C   0  0  0  0  0  3  0  0  0  0  0  0
   -7.1930    0.7420   -7.3710 C   0  0  0  0  0  0  0  0  0  0  0  0
   -7.9400    1.0980   -8.4580 N   0  0  0  0  0  0  0  0  0  0  0  0
   -7.5800   -0.1520   -6.6270 O   0  0  0  0  0  0  0  0  0  0  0  0
   -8.8030    0.5850   -8.6000 H   0  0  0  0  0  0  0  0  0  0  0  0
   -7.7250    1.8390   -9.1040 H   0  0  0  0  0  0  0  0  0  0  0  0
  1  5  2  0  0  0  0
  2  1  1  0  0  0  0
  2  3  2  0  0  0  0
  3  4  1  0  0  0  0
  4  6  1  0  0  0  0
  5  4  1  0  0  0  0
  5 31  1  0  0  0  0
  6  7  1  0  0  0  0
  8  7  1  0  0  0  0
  9  8  1  0  0  0  0
 10  9  2  0  0  0  0
 11 12  2  0  0  0  0
 11 10  1  0  0  0  0
 12 13  1  0  0  0  0
 13  3  1  0  0  0  0
 13  8  2  0  0  0  0
 14 15  1  0  0  0  0
 15 16  2  0  0  0  0
 17 16  1  0  0  0  0
 17  1  1  0  0  0  0
 18 17  2  0  0  0  0
 19 18  1  0  0  0  0
 19 14  2  0  0  0  0
 21 20  1  6  0  0  0
 21 22  1  0  0  0  0
 23 25  1  1  0  0  0
 23 22  1  0  0  0  0
 23 14  1  0  0  0  0
 24 21  1  0  0  0  0
 24 23  1  0  0  0  0
 25 27  1  0  0  0  0
 26 25  1  0  0  0  0
 28 25  1  0  0  0  0
 29 21  1  0  0  0  0
 30 29  1  0  0  0  0
 31 32  1  0  0  0  0
 32 33  2  0  0  0  0
 34 33  1  0  0  0  0
 35 34  2  0  0  0  0
 36 35  1  0  0  0  0
 36 31  2  0  0  0  0
 37 10  1  0  0  0  0
 37 39  2  0  0  0  0
 38 37  1  0  0  0  0
 40 38  1  0  0  0  0
 41 38  1  0  0  0  0
M  END
>  <minimizedAffinity>
-11.5582218

$$$$
