
 OpenBabel10152419303D

 29 32  0  0  0  0  0  0  0  0999 V2000
    1.6060   -7.3310  -26.2630 C   0  0  0  0  0  0  0  0  0  0  0  0
    0.6940   -7.8760  -25.4270 N   0  0  0  0  0  0  0  0  0  0  0  0
   -0.5880   -7.5370  -25.6120 C   0  0  0  0  0  0  0  0  0  0  0  0
   -1.6080   -8.1220  -24.8680 N   0  0  0  0  0  0  0  0  0  0  0  0
   -0.9960   -6.7000  -26.5830 N   0  0  0  0  0  0  0  0  0  0  0  0
   -0.0490   -6.1910  -27.4030 C   0  0  0  0  0  3  0  0  0  0  0  0
    1.2860   -6.4900  -27.3060 C   0  0  0  0  0  0  0  0  0  0  0  0
    2.4180   -5.8690  -28.4330 Cl  0  0  0  0  0  0  0  0  0  0  0  0
   -2.5050   -7.8570  -25.2440 H   0  0  0  0  0  0  0  0  0  0  0  0
   -1.5900   -8.9950  -23.7790 C   0  0  0  0  0  0  0  0  0  0  0  0
   -2.0700   -8.5430  -22.5410 C   0  0  0  0  0  3  0  0  0  0  0  0
   -2.1620   -9.4020  -21.4380 C   0  0  0  0  0  3  0  0  0  0  0  0
   -1.7630  -10.7390  -21.5450 C   0  0  0  0  0  0  0  0  0  0  0  0
   -1.2590  -11.1880  -22.7700 C   0  0  0  0  0  3  0  0  0  0  0  0
   -1.1940  -10.3310  -23.8760 C   0  0  0  0  0  3  0  0  0  0  0  0
   -1.8700  -11.6670  -20.4280 C   0  0  0  0  0  0  0  0  0  0  0  0
   -2.9660  -12.1530  -19.8770 N   0  0  0  0  0  0  0  0  0  0  0  0
   -2.5590  -12.9590  -18.8410 N   0  0  0  0  0  0  0  0  0  0  0  0
   -1.2390  -12.9580  -18.7300 N   0  0  0  0  0  0  0  0  0  0  0  0
   -0.8120  -12.1500  -19.7070 N   0  0  0  0  0  0  0  0  0  0  0  0
    0.1750  -11.9560  -19.8010 H   0  0  0  0  0  0  0  0  0  0  0  0
    2.8870   -7.8100  -26.1110 O   0  0  0  0  0  0  0  0  0  0  0  0
    2.1930  -10.4050  -24.9390 F   0  0  0  0  0  0  0  0  0  0  0  0
    2.8810  -10.2930  -26.0850 C   0  0  0  0  0  0  0  0  0  0  0  0
    3.2890  -11.4700  -26.7110 C   0  0  0  0  0  3  0  0  0  0  0  0
    4.0160  -11.4140  -27.9000 C   0  0  0  0  0  3  0  0  0  0  0  0
    4.3280  -10.1770  -28.4610 C   0  0  0  0  0  3  0  0  0  0  0  0
    3.9200   -9.0000  -27.8290 C   0  0  0  0  0  3  0  0  0  0  0  0
    3.1980   -9.0470  -26.6300 C   0  0  0  0  0  0  0  0  0  0  0  0
  1 22  1  0  0  0  0
  1  2  2  0  0  0  0
  3  2  1  0  0  0  0
  3  4  1  0  0  0  0
  4 10  1  0  0  0  0
  5  3  2  0  0  0  0
  6  7  2  0  0  0  0
  6  5  1  0  0  0  0
  7  1  1  0  0  0  0
  8  7  1  0  0  0  0
  9  4  1  0  0  0  0
 10 11  1  0  0  0  0
 11 12  2  0  0  0  0
 13 12  1  0  0  0  0
 13 16  1  0  0  0  0
 14 13  2  0  0  0  0
 15 10  2  0  0  0  0
 15 14  1  0  0  0  0
 16 17  2  0  0  0  0
 16 20  1  0  0  0  0
 17 18  1  0  0  0  0
 18 19  2  0  0  0  0
 20 19  1  0  0  0  0
 21 20  1  0  0  0  0
 24 23  1  0  0  0  0
 25 24  2  0  0  0  0
 26 25  1  0  0  0  0
 27 26  2  0  0  0  0
 27 28  1  0  0  0  0
 28 29  2  0  0  0  0
 29 22  1  0  0  0  0
 29 24  1  0  0  0  0
M  END
>  <minimizedAffinity>
-9.05043125

$$$$

 OpenBabel10152419303D

 29 32  0  0  0  0  0  0  0  0999 V2000
   -0.7020  -11.0980  -22.1500 C   0  0  0  0  0  0  0  0  0  0  0  0
   -0.8980   -9.9010  -22.7460 N   0  0  0  0  0  0  0  0  0  0  0  0
   -1.7800   -9.0690  -22.1780 C   0  0  0  0  0  0  0  0  0  0  0  0
   -1.9750   -7.7790  -22.6600 N   0  0  0  0  0  0  0  0  0  0  0  0
   -2.4600   -9.3690  -21.0570 N   0  0  0  0  0  0  0  0  0  0  0  0
   -2.2210  -10.5730  -20.4890 C   0  0  0  0  0  3  0  0  0  0  0  0
   -1.3250  -11.4870  -20.9840 C   0  0  0  0  0  0  0  0  0  0  0  0
   -1.0170  -12.9590  -20.1630 Cl  0  0  0  0  0  0  0  0  0  0  0  0
   -2.5590   -7.2570  -22.0250 H   0  0  0  0  0  0  0  0  0  0  0  0
   -1.4870   -7.1180  -23.7890 C   0  0  0  0  0  0  0  0  0  0  0  0
   -0.7150   -5.9600  -23.6150 C   0  0  0  0  0  3  0  0  0  0  0  0
   -0.1230   -5.3080  -24.7050 C   0  0  0  0  0  3  0  0  0  0  0  0
   -0.3000   -5.7970  -26.0040 C   0  0  0  0  0  0  0  0  0  0  0  0
   -1.0910   -6.9350  -26.1860 C   0  0  0  0  0  3  0  0  0  0  0  0
   -1.6580   -7.5970  -25.0900 C   0  0  0  0  0  3  0  0  0  0  0  0
    0.3220   -5.1610  -27.1570 C   0  0  0  0  0  0  0  0  0  0  0  0
    0.9770   -5.7370  -28.1470 N   0  0  0  0  0  0  0  0  0  0  0  0
    1.4010   -4.7250  -28.9770 N   0  0  0  0  0  0  0  0  0  0  0  0
    1.0400   -3.5420  -28.5040 N   0  0  0  0  0  0  0  0  0  0  0  0
    0.3800   -3.8100  -27.3710 N   0  0  0  0  0  0  0  0  0  0  0  0
    0.0360   -3.0510  -26.8000 H   0  0  0  0  0  0  0  0  0  0  0  0
    0.3040  -11.8590  -22.6990 O   0  0  0  0  0  0  0  0  0  0  0  0
   -1.2090  -12.5500  -25.1120 F   0  0  0  0  0  0  0  0  0  0  0  0
   -0.0160  -11.9390  -25.1600 C   0  0  0  0  0  0  0  0  0  0  0  0
    0.5130  -11.6520  -26.4180 C   0  0  0  0  0  3  0  0  0  0  0  0
    1.7540  -11.0250  -26.5280 C   0  0  0  0  0  3  0  0  0  0  0  0
    2.4600  -10.6830  -25.3760 C   0  0  0  0  0  3  0  0  0  0  0  0
    1.9280  -10.9750  -24.1190 C   0  0  0  0  0  3  0  0  0  0  0  0
    0.6870  -11.6130  -23.9980 C   0  0  0  0  0  0  0  0  0  0  0  0
  1  7  1  0  0  0  0
  2  3  1  0  0  0  0
  2  1  2  0  0  0  0
  3  5  2  0  0  0  0
  4  3  1  0  0  0  0
  4  9  1  0  0  0  0
  5  6  1  0  0  0  0
  7  6  2  0  0  0  0
  7  8  1  0  0  0  0
 10 11  1  0  0  0  0
 10  4  1  0  0  0  0
 12 11  2  0  0  0  0
 13 12  1  0  0  0  0
 14 13  2  0  0  0  0
 14 15  1  0  0  0  0
 15 10  2  0  0  0  0
 16 13  1  0  0  0  0
 17 16  2  0  0  0  0
 18 19  2  0  0  0  0
 18 17  1  0  0  0  0
 19 20  1  0  0  0  0
 20 16  1  0  0  0  0
 20 21  1  0  0  0  0
 22  1  1  0  0  0  0
 24 23  1  0  0  0  0
 24 29  1  0  0  0  0
 25 24  2  0  0  0  0
 26 25  1  0  0  0  0
 26 27  2  0  0  0  0
 27 28  1  0  0  0  0
 28 29  2  0  0  0  0
 29 22  1  0  0  0  0
M  END
>  <minimizedAffinity>
-8.60297298

$$$$

 OpenBabel10152419303D

 29 32  0  0  0  0  0  0  0  0999 V2000
    3.3580  -10.5400  -26.7380 C   0  0  0  0  0  0  0  0  0  0  0  0
    2.3320   -9.7180  -26.4210 N   0  0  0  0  0  0  0  0  0  0  0  0
    1.2760  -10.2640  -25.8050 C   0  0  0  0  0  0  0  0  0  0  0  0
    0.2180   -9.4830  -25.3500 N   0  0  0  0  0  0  0  0  0  0  0  0
    1.2010  -11.5700  -25.4880 N   0  0  0  0  0  0  0  0  0  0  0  0
    2.2570  -12.3490  -25.8130 C   0  0  0  0  0  3  0  0  0  0  0  0
    3.3900  -11.8820  -26.4290 C   0  0  0  0  0  0  0  0  0  0  0  0
    4.7220  -12.9160  -26.7360 Cl  0  0  0  0  0  0  0  0  0  0  0  0
   -0.4060  -10.0410  -24.7880 H   0  0  0  0  0  0  0  0  0  0  0  0
   -0.0780   -8.1280  -25.5030 C   0  0  0  0  0  0  0  0  0  0  0  0
    0.1910   -7.2520  -24.4410 C   0  0  0  0  0  3  0  0  0  0  0  0
    0.0010   -5.8700  -24.5700 C   0  0  0  0  0  3  0  0  0  0  0  0
   -0.4750   -5.3290  -25.7690 C   0  0  0  0  0  0  0  0  0  0  0  0
   -0.7710   -6.2000  -26.8220 C   0  0  0  0  0  3  0  0  0  0  0  0
   -0.5540   -7.5780  -26.6960 C   0  0  0  0  0  3  0  0  0  0  0  0
   -0.6590   -3.8950  -25.9480 C   0  0  0  0  0  0  0  0  0  0  0  0
   -1.2890   -3.0520  -25.1530 N   0  0  0  0  0  0  0  0  0  0  0  0
   -1.2220   -1.8190  -25.7580 N   0  0  0  0  0  0  0  0  0  0  0  0
   -0.5840   -1.8940  -26.9170 N   0  0  0  0  0  0  0  0  0  0  0  0
   -0.2430   -3.1820  -27.0400 N   0  0  0  0  0  0  0  0  0  0  0  0
    0.2260   -3.4990  -27.8780 H   0  0  0  0  0  0  0  0  0  0  0  0
    4.4670   -9.9080  -27.2520 O   0  0  0  0  0  0  0  0  0  0  0  0
    4.4120   -6.9970  -27.5860 F   0  0  0  0  0  0  0  0  0  0  0  0
    4.3140   -7.8430  -28.6220 C   0  0  0  0  0  0  0  0  0  0  0  0
    4.1600   -7.2910  -29.8940 C   0  0  0  0  0  3  0  0  0  0  0  0
    4.0440   -8.1230  -31.0070 C   0  0  0  0  0  3  0  0  0  0  0  0
    4.0890   -9.5070  -30.8440 C   0  0  0  0  0  3  0  0  0  0  0  0
    4.2410  -10.0540  -29.5680 C   0  0  0  0  0  3  0  0  0  0  0  0
    4.3480   -9.2270  -28.4430 C   0  0  0  0  0  0  0  0  0  0  0  0
  1  7  1  0  0  0  0
  1  2  2  0  0  0  0
  2  3  1  0  0  0  0
  3  5  2  0  0  0  0
  3  4  1  0  0  0  0
  4  9  1  0  0  0  0
  6  5  1  0  0  0  0
  7  6  2  0  0  0  0
  8  7  1  0  0  0  0
 10  4  1  0  0  0  0
 10 11  1  0  0  0  0
 12 11  2  0  0  0  0
 13 12  1  0  0  0  0
 14 15  1  0  0  0  0
 14 13  2  0  0  0  0
 15 10  2  0  0  0  0
 16 13  1  0  0  0  0
 16 17  2  0  0  0  0
 18 17  1  0  0  0  0
 19 18  2  0  0  0  0
 20 19  1  0  0  0  0
 20 16  1  0  0  0  0
 21 20  1  0  0  0  0
 22  1  1  0  0  0  0
 24 29  1  0  0  0  0
 24 23  1  0  0  0  0
 25 24  2  0  0  0  0
 26 27  2  0  0  0  0
 26 25  1  0  0  0  0
 27 28  1  0  0  0  0
 28 29  2  0  0  0  0
 29 22  1  0  0  0  0
M  END
>  <minimizedAffinity>
-8.44334412

$$$$

 OpenBabel10152419303D

 29 32  0  0  0  0  0  0  0  0999 V2000
    0.3230   -5.8050  -26.8610 C   0  0  0  0  0  0  0  0  0  0  0  0
   -0.1370   -6.3200  -25.6990 N   0  0  0  0  0  0  0  0  0  0  0  0
   -0.7290   -5.4750  -24.8450 C   0  0  0  0  0  0  0  0  0  0  0  0
   -1.3220   -5.9280  -23.6710 N   0  0  0  0  0  0  0  0  0  0  0  0
   -0.8890   -4.1630  -25.0970 N   0  0  0  0  0  0  0  0  0  0  0  0
   -0.4250   -3.6970  -26.2780 C   0  0  0  0  0  3  0  0  0  0  0  0
    0.1800   -4.4840  -27.2250 C   0  0  0  0  0  0  0  0  0  0  0  0
    0.6700   -3.8350  -28.7350 Cl  0  0  0  0  0  0  0  0  0  0  0  0
   -1.8400   -5.1820  -23.2340 H   0  0  0  0  0  0  0  0  0  0  0  0
   -1.3470   -7.1830  -23.0580 C   0  0  0  0  0  0  0  0  0  0  0  0
   -1.7330   -7.2720  -21.7130 C   0  0  0  0  0  3  0  0  0  0  0  0
   -1.8670   -8.5120  -21.0740 C   0  0  0  0  0  3  0  0  0  0  0  0
   -1.6060   -9.6980  -21.7670 C   0  0  0  0  0  0  0  0  0  0  0  0
   -1.1940   -9.6140  -23.1010 C   0  0  0  0  0  3  0  0  0  0  0  0
   -1.0890   -8.3730  -23.7420 C   0  0  0  0  0  3  0  0  0  0  0  0
   -1.7600  -11.0050  -21.1430 C   0  0  0  0  0  0  0  0  0  0  0  0
   -2.8720  -11.5790  -20.7240 N   0  0  0  0  0  0  0  0  0  0  0  0
   -2.5080  -12.7890  -20.1820 N   0  0  0  0  0  0  0  0  0  0  0  0
   -1.1950  -12.9580  -20.2390 N   0  0  0  0  0  0  0  0  0  0  0  0
   -0.7300  -11.8490  -20.8260 N   0  0  0  0  0  0  0  0  0  0  0  0
    0.2660  -11.7250  -20.9450 H   0  0  0  0  0  0  0  0  0  0  0  0
    0.8060   -6.7340  -27.7540 O   0  0  0  0  0  0  0  0  0  0  0  0
    1.3900   -8.8960  -25.8630 F   0  0  0  0  0  0  0  0  0  0  0  0
    2.3380   -8.3240  -26.6200 C   0  0  0  0  0  0  0  0  0  0  0  0
    3.6480   -8.7790  -26.4660 C   0  0  0  0  0  3  0  0  0  0  0  0
    4.6770   -8.2150  -27.2210 C   0  0  0  0  0  3  0  0  0  0  0  0
    4.3890   -7.1990  -28.1310 C   0  0  0  0  0  3  0  0  0  0  0  0
    3.0770   -6.7450  -28.2790 C   0  0  0  0  0  3  0  0  0  0  0  0
    2.0390   -7.2990  -27.5190 C   0  0  0  0  0  0  0  0  0  0  0  0
  1  2  2  0  0  0  0
  2  3  1  0  0  0  0
  3  4  1  0  0  0  0
  4  9  1  0  0  0  0
  4 10  1  0  0  0  0
  5  3  2  0  0  0  0
  6  5  1  0  0  0  0
  7  1  1  0  0  0  0
  7  6  2  0  0  0  0
  8  7  1  0  0  0  0
 10 11  1  0  0  0  0
 11 12  2  0  0  0  0
 13 16  1  0  0  0  0
 13 12  1  0  0  0  0
 14 13  2  0  0  0  0
 15 14  1  0  0  0  0
 15 10  2  0  0  0  0
 16 20  1  0  0  0  0
 16 17  2  0  0  0  0
 17 18  1  0  0  0  0
 19 18  2  0  0  0  0
 20 19  1  0  0  0  0
 21 20  1  0  0  0  0
 22 29  1  0  0  0  0
 22  1  1  0  0  0  0
 24 25  1  0  0  0  0
 24 23  1  0  0  0  0
 26 25  2  0  0  0  0
 27 26  1  0  0  0  0
 28 27  2  0  0  0  0
 28 29  1  0  0  0  0
 29 24  2  0  0  0  0
M  END
>  <minimizedAffinity>
-8.40592957

$$$$

 OpenBabel10152419303D

 29 32  0  0  0  0  0  0  0  0999 V2000
    1.6870   -7.9870  -26.4840 C   0  0  0  0  0  0  0  0  0  0  0  0
    1.5090   -9.0020  -25.6090 N   0  0  0  0  0  0  0  0  0  0  0  0
    2.3940  -10.0060  -25.6450 C   0  0  0  0  0  0  0  0  0  0  0  0
    2.3520  -11.0440  -24.7190 N   0  0  0  0  0  0  0  0  0  0  0  0
    3.4370  -10.0400  -26.4950 N   0  0  0  0  0  0  0  0  0  0  0  0
    3.5810   -8.9960  -27.3420 C   0  0  0  0  0  3  0  0  0  0  0  0
    2.7390   -7.9130  -27.3700 C   0  0  0  0  0  0  0  0  0  0  0  0
    3.0340   -6.5890  -28.4180 Cl  0  0  0  0  0  0  0  0  0  0  0  0
    3.1740  -11.6200  -24.8090 H   0  0  0  0  0  0  0  0  0  0  0  0
    1.4330  -11.3700  -23.7200 C   0  0  0  0  0  0  0  0  0  0  0  0
    0.4920  -10.4080  -23.3250 C   0  0  0  0  0  3  0  0  0  0  0  0
   -0.5120  -10.7090  -22.3950 C   0  0  0  0  0  3  0  0  0  0  0  0
   -0.5920  -11.9860  -21.8280 C   0  0  0  0  0  0  0  0  0  0  0  0
    0.3590  -12.9410  -22.1980 C   0  0  0  0  0  3  0  0  0  0  0  0
    1.3440  -12.6410  -23.1480 C   0  0  0  0  0  3  0  0  0  0  0  0
   -1.6380  -12.3420  -20.8790 C   0  0  0  0  0  0  0  0  0  0  0  0
   -1.5210  -12.5500  -19.5810 N   0  0  0  0  0  0  0  0  0  0  0  0
   -2.7730  -12.8880  -19.1240 N   0  0  0  0  0  0  0  0  0  0  0  0
   -3.6490  -12.9160  -20.1180 N   0  0  0  0  0  0  0  0  0  0  0  0
   -2.9440  -12.5860  -21.2070 N   0  0  0  0  0  0  0  0  0  0  0  0
   -3.3950  -12.5790  -22.1120 H   0  0  0  0  0  0  0  0  0  0  0  0
    0.8290   -6.9250  -26.3190 O   0  0  0  0  0  0  0  0  0  0  0  0
    0.9270   -5.8790  -23.5830 F   0  0  0  0  0  0  0  0  0  0  0  0
   -0.1390   -6.5340  -24.0660 C   0  0  0  0  0  0  0  0  0  0  0  0
   -1.2200   -6.7310  -23.2070 C   0  0  0  0  0  3  0  0  0  0  0  0
   -2.3520   -7.4130  -23.6530 C   0  0  0  0  0  3  0  0  0  0  0  0
   -2.3990   -7.8920  -24.9610 C   0  0  0  0  0  3  0  0  0  0  0  0
   -1.3140   -7.6950  -25.8170 C   0  0  0  0  0  3  0  0  0  0  0  0
   -0.1690   -7.0200  -25.3750 C   0  0  0  0  0  0  0  0  0  0  0  0
  1 22  1  0  0  0  0
  1  2  2  0  0  0  0
  3  2  1  0  0  0  0
  3  4  1  0  0  0  0
  4 10  1  0  0  0  0
  5  3  2  0  0  0  0
  6  5  1  0  0  0  0
  7  6  2  0  0  0  0
  7  1  1  0  0  0  0
  8  7  1  0  0  0  0
  9  4  1  0  0  0  0
 10 11  2  0  0  0  0
 10 15  1  0  0  0  0
 11 12  1  0  0  0  0
 12 13  2  0  0  0  0
 13 16  1  0  0  0  0
 14 13  1  0  0  0  0
 15 14  2  0  0  0  0
 16 17  2  0  0  0  0
 17 18  1  0  0  0  0
 19 18  2  0  0  0  0
 20 16  1  0  0  0  0
 20 19  1  0  0  0  0
 21 20  1  0  0  0  0
 22 29  1  0  0  0  0
 24 23  1  0  0  0  0
 24 25  1  0  0  0  0
 26 25  2  0  0  0  0
 27 26  1  0  0  0  0
 28 29  1  0  0  0  0
 28 27  2  0  0  0  0
 29 24  2  0  0  0  0
M  END
>  <minimizedAffinity>
-8.27699089

$$$$

 OpenBabel10152419303D

 29 32  0  0  0  0  0  0  0  0999 V2000
    2.6650   -7.2960  -28.4330 C   0  0  0  0  0  0  0  0  0  0  0  0
    2.1220   -7.7470  -27.2810 N   0  0  0  0  0  0  0  0  0  0  0  0
    2.8480   -8.6100  -26.5570 C   0  0  0  0  0  0  0  0  0  0  0  0
    2.4170   -9.0520  -25.3100 N   0  0  0  0  0  0  0  0  0  0  0  0
    4.0730   -9.0300  -26.9210 N   0  0  0  0  0  0  0  0  0  0  0  0
    4.5790   -8.5410  -28.0750 C   0  0  0  0  0  3  0  0  0  0  0  0
    3.9230   -7.6410  -28.8770 C   0  0  0  0  0  0  0  0  0  0  0  0
    4.6650   -7.0040  -30.2840 Cl  0  0  0  0  0  0  0  0  0  0  0  0
    3.1510   -9.5720  -24.8550 H   0  0  0  0  0  0  0  0  0  0  0  0
    1.2220   -8.8670  -24.6130 C   0  0  0  0  0  0  0  0  0  0  0  0
    0.6610   -7.5820  -24.5600 C   0  0  0  0  0  3  0  0  0  0  0  0
   -0.5820   -7.3550  -23.9550 C   0  0  0  0  0  3  0  0  0  0  0  0
   -1.2930   -8.4110  -23.3750 C   0  0  0  0  0  0  0  0  0  0  0  0
   -0.7250   -9.6890  -23.4000 C   0  0  0  0  0  3  0  0  0  0  0  0
    0.5050   -9.9150  -24.0300 C   0  0  0  0  0  3  0  0  0  0  0  0
   -2.5990   -8.2160  -22.7610 C   0  0  0  0  0  0  0  0  0  0  0  0
   -3.7140   -7.8080  -23.3360 N   0  0  0  0  0  0  0  0  0  0  0  0
   -4.6670   -7.7530  -22.3470 N   0  0  0  0  0  0  0  0  0  0  0  0
   -4.1540   -8.0950  -21.1740 N   0  0  0  0  0  0  0  0  0  0  0  0
   -2.8700   -8.3740  -21.4290 N   0  0  0  0  0  0  0  0  0  0  0  0
   -2.2520   -8.6240  -20.6690 H   0  0  0  0  0  0  0  0  0  0  0  0
    1.9370   -6.3180  -29.0710 O   0  0  0  0  0  0  0  0  0  0  0  0
   -0.5130   -7.2050  -27.7290 F   0  0  0  0  0  0  0  0  0  0  0  0
   -0.0850   -5.9340  -27.6830 C   0  0  0  0  0  0  0  0  0  0  0  0
   -0.8660   -5.0150  -26.9820 C   0  0  0  0  0  3  0  0  0  0  0  0
   -0.4740   -3.6780  -26.9080 C   0  0  0  0  0  3  0  0  0  0  0  0
    0.7010   -3.2670  -27.5340 C   0  0  0  0  0  3  0  0  0  0  0  0
    1.4780   -4.1900  -28.2370 C   0  0  0  0  0  3  0  0  0  0  0  0
    1.0880   -5.5320  -28.3250 C   0  0  0  0  0  0  0  0  0  0  0  0
  1  2  2  0  0  0  0
  2  3  1  0  0  0  0
  3  4  1  0  0  0  0
  4  9  1  0  0  0  0
  4 10  1  0  0  0  0
  5  3  2  0  0  0  0
  6  5  1  0  0  0  0
  7  1  1  0  0  0  0
  7  6  2  0  0  0  0
  8  7  1  0  0  0  0
 10 11  2  0  0  0  0
 10 15  1  0  0  0  0
 11 12  1  0  0  0  0
 12 13  2  0  0  0  0
 13 16  1  0  0  0  0
 14 13  1  0  0  0  0
 15 14  2  0  0  0  0
 16 20  1  0  0  0  0
 17 16  2  0  0  0  0
 17 18  1  0  0  0  0
 18 19  2  0  0  0  0
 20 19  1  0  0  0  0
 20 21  1  0  0  0  0
 22  1  1  0  0  0  0
 22 29  1  0  0  0  0
 23 24  1  0  0  0  0
 24 25  1  0  0  0  0
 25 26  2  0  0  0  0
 27 26  1  0  0  0  0
 28 27  2  0  0  0  0
 29 28  1  0  0  0  0
 29 24  2  0  0  0  0
M  END
>  <minimizedAffinity>
-7.9184289

$$$$

 OpenBabel10152419303D

 29 32  0  0  0  0  0  0  0  0999 V2000
   -0.2980   -4.4620  -26.3160 C   0  0  0  0  0  0  0  0  0  0  0  0
    0.6500   -5.2850  -26.8150 N   0  0  0  0  0  0  0  0  0  0  0  0
    1.3570   -4.8420  -27.8630 C   0  0  0  0  0  0  0  0  0  0  0  0
    2.4200   -5.5740  -28.3820 N   0  0  0  0  0  0  0  0  0  0  0  0
    1.1690   -3.6320  -28.4210 N   0  0  0  0  0  0  0  0  0  0  0  0
    0.2180   -2.8390  -27.8780 C   0  0  0  0  0  3  0  0  0  0  0  0
   -0.5460   -3.1940  -26.7950 C   0  0  0  0  0  0  0  0  0  0  0  0
   -1.6770   -2.1020  -26.1120 Cl  0  0  0  0  0  0  0  0  0  0  0  0
    2.9200   -5.0230  -29.0630 H   0  0  0  0  0  0  0  0  0  0  0  0
    2.9020   -6.8540  -28.1010 C   0  0  0  0  0  0  0  0  0  0  0  0
    2.5130   -7.4750  -26.9050 C   0  0  0  0  0  3  0  0  0  0  0  0
    2.8900   -8.7930  -26.6130 C   0  0  0  0  0  3  0  0  0  0  0  0
    3.6780   -9.5210  -27.5110 C   0  0  0  0  0  0  0  0  0  0  0  0
    4.0900   -8.8970  -28.6920 C   0  0  0  0  0  3  0  0  0  0  0  0
    3.6890   -7.5890  -28.9910 C   0  0  0  0  0  3  0  0  0  0  0  0
    4.0650  -10.9010  -27.2530 C   0  0  0  0  0  0  0  0  0  0  0  0
    4.5190  -11.7910  -28.1140 N   0  0  0  0  0  0  0  0  0  0  0  0
    4.7160  -12.9540  -27.4070 N   0  0  0  0  0  0  0  0  0  0  0  0
    4.3700  -12.8010  -26.1370 N   0  0  0  0  0  0  0  0  0  0  0  0
    3.9580  -11.5310  -26.0430 N   0  0  0  0  0  0  0  0  0  0  0  0
    3.6010  -11.1840  -25.1640 H   0  0  0  0  0  0  0  0  0  0  0  0
   -0.9050   -4.9110  -25.1650 O   0  0  0  0  0  0  0  0  0  0  0  0
   -0.7550   -6.2490  -22.5620 F   0  0  0  0  0  0  0  0  0  0  0  0
   -0.9040   -6.9240  -23.7120 C   0  0  0  0  0  0  0  0  0  0  0  0
   -0.9650   -8.3160  -23.6410 C   0  0  0  0  0  3  0  0  0  0  0  0
   -1.1100   -9.0690  -24.8050 C   0  0  0  0  0  3  0  0  0  0  0  0
   -1.1980   -8.4260  -26.0380 C   0  0  0  0  0  3  0  0  0  0  0  0
   -1.1340   -7.0330  -26.1050 C   0  0  0  0  0  3  0  0  0  0  0  0
   -0.9790   -6.2680  -24.9420 C   0  0  0  0  0  0  0  0  0  0  0  0
  1 22  1  0  0  0  0
  2  1  2  0  0  0  0
  3  2  1  0  0  0  0
  4 10  1  0  0  0  0
  4  3  1  0  0  0  0
  5  6  1  0  0  0  0
  5  3  2  0  0  0  0
  6  7  2  0  0  0  0
  7  1  1  0  0  0  0
  7  8  1  0  0  0  0
  9  4  1  0  0  0  0
 10 11  1  0  0  0  0
 11 12  2  0  0  0  0
 13 16  1  0  0  0  0
 13 12  1  0  0  0  0
 14 13  2  0  0  0  0
 15 14  1  0  0  0  0
 15 10  2  0  0  0  0
 16 20  1  0  0  0  0
 17 18  1  0  0  0  0
 17 16  2  0  0  0  0
 18 19  2  0  0  0  0
 19 20  1  0  0  0  0
 20 21  1  0  0  0  0
 22 29  1  0  0  0  0
 24 25  1  0  0  0  0
 24 23  1  0  0  0  0
 26 25  2  0  0  0  0
 27 26  1  0  0  0  0
 28 27  2  0  0  0  0
 28 29  1  0  0  0  0
 29 24  2  0  0  0  0
M  END
>  <minimizedAffinity>
-7.86166811

$$$$

 OpenBabel10152419303D

 29 32  0  0  0  0  0  0  0  0999 V2000
    2.5960  -10.5630  -25.9120 C   0  0  0  0  0  0  0  0  0  0  0  0
    1.5390  -10.6710  -25.0770 N   0  0  0  0  0  0  0  0  0  0  0  0
    0.9520  -11.8710  -24.9830 C   0  0  0  0  0  0  0  0  0  0  0  0
   -0.0770  -12.1050  -24.0760 N   0  0  0  0  0  0  0  0  0  0  0  0
    1.3690  -12.9510  -25.6670 N   0  0  0  0  0  0  0  0  0  0  0  0
    2.4380  -12.7970  -26.4800 C   0  0  0  0  0  3  0  0  0  0  0  0
    3.1180  -11.6150  -26.6320 C   0  0  0  0  0  0  0  0  0  0  0  0
    4.5150  -11.5180  -27.6190 Cl  0  0  0  0  0  0  0  0  0  0  0  0
   -0.2910  -13.0900  -24.0440 H   0  0  0  0  0  0  0  0  0  0  0  0
   -0.7890  -11.2550  -23.2270 C   0  0  0  0  0  0  0  0  0  0  0  0
   -0.9820  -11.6390  -21.8920 C   0  0  0  0  0  3  0  0  0  0  0  0
   -1.6060  -10.7870  -20.9720 C   0  0  0  0  0  3  0  0  0  0  0  0
   -2.0650   -9.5270  -21.3710 C   0  0  0  0  0  0  0  0  0  0  0  0
   -1.9000   -9.1500  -22.7080 C   0  0  0  0  0  3  0  0  0  0  0  0
   -1.2510   -9.9960  -23.6160 C   0  0  0  0  0  3  0  0  0  0  0  0
   -2.6940   -8.6040  -20.4360 C   0  0  0  0  0  0  0  0  0  0  0  0
   -2.3840   -8.3920  -19.1720 N   0  0  0  0  0  0  0  0  0  0  0  0
   -3.2760   -7.4570  -18.7010 N   0  0  0  0  0  0  0  0  0  0  0  0
   -4.1400   -7.1100  -19.6440 N   0  0  0  0  0  0  0  0  0  0  0  0
   -3.7860   -7.8270  -20.7170 N   0  0  0  0  0  0  0  0  0  0  0  0
   -4.3310   -7.7630  -21.5650 H   0  0  0  0  0  0  0  0  0  0  0  0
    3.2400   -9.3470  -25.8750 O   0  0  0  0  0  0  0  0  0  0  0  0
    0.9520   -7.6450  -25.1970 F   0  0  0  0  0  0  0  0  0  0  0  0
    1.6520   -7.4930  -26.3310 C   0  0  0  0  0  0  0  0  0  0  0  0
    1.2420   -6.4950  -27.2150 C   0  0  0  0  0  3  0  0  0  0  0  0
    1.9280   -6.2980  -28.4140 C   0  0  0  0  0  3  0  0  0  0  0  0
    3.0250   -7.1000  -28.7220 C   0  0  0  0  0  3  0  0  0  0  0  0
    3.4300   -8.1000  -27.8360 C   0  0  0  0  0  3  0  0  0  0  0  0
    2.7430   -8.3110  -26.6340 C   0  0  0  0  0  0  0  0  0  0  0  0
  1 22  1  0  0  0  0
  1  2  2  0  0  0  0
  2  3  1  0  0  0  0
  3  4  1  0  0  0  0
  4  9  1  0  0  0  0
  4 10  1  0  0  0  0
  5  3  2  0  0  0  0
  6  5  1  0  0  0  0
  7  6  2  0  0  0  0
  7  1  1  0  0  0  0
  8  7  1  0  0  0  0
 10 11  1  0  0  0  0
 11 12  2  0  0  0  0
 13 12  1  0  0  0  0
 13 16  1  0  0  0  0
 14 13  2  0  0  0  0
 15 10  2  0  0  0  0
 15 14  1  0  0  0  0
 16 17  2  0  0  0  0
 17 18  1  0  0  0  0
 19 18  2  0  0  0  0
 20 16  1  0  0  0  0
 20 19  1  0  0  0  0
 21 20  1  0  0  0  0
 24 23  1  0  0  0  0
 25 24  2  0  0  0  0
 26 25  1  0  0  0  0
 27 26  2  0  0  0  0
 27 28  1  0  0  0  0
 28 29  2  0  0  0  0
 29 24  1  0  0  0  0
 29 22  1  0  0  0  0
M  END
>  <minimizedAffinity>
-7.56304932

$$$$

 OpenBabel10152419303D

 29 32  0  0  0  0  0  0  0  0999 V2000
    2.2410   -7.7090  -27.4090 C   0  0  0  0  0  0  0  0  0  0  0  0
    2.0260   -8.6800  -26.4940 N   0  0  0  0  0  0  0  0  0  0  0  0
    3.0290   -9.5360  -26.2590 C   0  0  0  0  0  0  0  0  0  0  0  0
    2.9390  -10.5050  -25.2650 N   0  0  0  0  0  0  0  0  0  0  0  0
    4.2200   -9.4630  -26.8810 N   0  0  0  0  0  0  0  0  0  0  0  0
    4.3930   -8.4670  -27.7780 C   0  0  0  0  0  3  0  0  0  0  0  0
    3.4340   -7.5320  -28.0750 C   0  0  0  0  0  0  0  0  0  0  0  0
    3.7550   -6.2490  -29.1650 Cl  0  0  0  0  0  0  0  0  0  0  0  0
    3.8330  -10.9520  -25.1360 H   0  0  0  0  0  0  0  0  0  0  0  0
    1.8850  -10.9040  -24.4400 C   0  0  0  0  0  0  0  0  0  0  0  0
    2.0270  -12.0740  -23.6800 C   0  0  0  0  0  3  0  0  0  0  0  0
    1.0420  -12.4730  -22.7660 C   0  0  0  0  0  3  0  0  0  0  0  0
   -0.1180  -11.7110  -22.5970 C   0  0  0  0  0  0  0  0  0  0  0  0
   -0.2770  -10.5570  -23.3720 C   0  0  0  0  0  3  0  0  0  0  0  0
    0.7230  -10.1500  -24.2640 C   0  0  0  0  0  3  0  0  0  0  0  0
   -1.1500  -12.0800  -21.6370 C   0  0  0  0  0  0  0  0  0  0  0  0
   -1.0410  -12.8870  -20.5990 N   0  0  0  0  0  0  0  0  0  0  0  0
   -2.2860  -12.9450  -20.0170 N   0  0  0  0  0  0  0  0  0  0  0  0
   -3.1580  -12.2090  -20.6900 N   0  0  0  0  0  0  0  0  0  0  0  0
   -2.4570  -11.6800  -21.6990 N   0  0  0  0  0  0  0  0  0  0  0  0
   -2.9240  -11.1030  -22.3850 H   0  0  0  0  0  0  0  0  0  0  0  0
    1.2290   -6.7830  -27.5180 O   0  0  0  0  0  0  0  0  0  0  0  0
   -0.9250   -8.7210  -27.0800 F   0  0  0  0  0  0  0  0  0  0  0  0
   -0.7630   -7.6380  -26.3070 C   0  0  0  0  0  0  0  0  0  0  0  0
   -1.6810   -7.4360  -25.2760 C   0  0  0  0  0  3  0  0  0  0  0  0
   -1.5670   -6.3200  -24.4460 C   0  0  0  0  0  3  0  0  0  0  0  0
   -0.5300   -5.4120  -24.6490 C   0  0  0  0  0  3  0  0  0  0  0  0
    0.3850   -5.6160  -25.6840 C   0  0  0  0  0  3  0  0  0  0  0  0
    0.2730   -6.7280  -26.5280 C   0  0  0  0  0  0  0  0  0  0  0  0
  1  2  2  0  0  0  0
  2  3  1  0  0  0  0
  3  4  1  0  0  0  0
  4  9  1  0  0  0  0
  4 10  1  0  0  0  0
  5  3  2  0  0  0  0
  6  5  1  0  0  0  0
  7  6  2  0  0  0  0
  7  1  1  0  0  0  0
  8  7  1  0  0  0  0
 10 15  2  0  0  0  0
 10 11  1  0  0  0  0
 11 12  2  0  0  0  0
 12 13  1  0  0  0  0
 13 16  1  0  0  0  0
 14 13  2  0  0  0  0
 15 14  1  0  0  0  0
 16 17  2  0  0  0  0
 17 18  1  0  0  0  0
 19 18  2  0  0  0  0
 20 16  1  0  0  0  0
 20 19  1  0  0  0  0
 21 20  1  0  0  0  0
 22  1  1  0  0  0  0
 22 29  1  0  0  0  0
 23 24  1  0  0  0  0
 24 25  1  0  0  0  0
 25 26  2  0  0  0  0
 27 26  1  0  0  0  0
 28 27  2  0  0  0  0
 29 24  2  0  0  0  0
 29 28  1  0  0  0  0
M  END
>  <minimizedAffinity>
-6.86483812

$$$$
