
 OpenBabel10152419303D

 29 32  0  0  0  0  0  0  0  0999 V2000
    2.2410   -7.7090  -27.4090 C   0  0  0  0  0  0  0  0  0  0  0  0
    2.0260   -8.6800  -26.4940 N   0  0  0  0  0  0  0  0  0  0  0  0
    3.0290   -9.5360  -26.2590 C   0  0  0  0  0  0  0  0  0  0  0  0
    2.9390  -10.5050  -25.2650 N   0  0  0  0  0  0  0  0  0  0  0  0
    4.2200   -9.4630  -26.8810 N   0  0  0  0  0  0  0  0  0  0  0  0
    4.3930   -8.4670  -27.7780 C   0  0  0  0  0  3  0  0  0  0  0  0
    3.4340   -7.5320  -28.0750 C   0  0  0  0  0  0  0  0  0  0  0  0
    3.7550   -6.2490  -29.1650 Cl  0  0  0  0  0  0  0  0  0  0  0  0
    3.8330  -10.9520  -25.1360 H   0  0  0  0  0  0  0  0  0  0  0  0
    1.8850  -10.9040  -24.4400 C   0  0  0  0  0  0  0  0  0  0  0  0
    2.0270  -12.0740  -23.6800 C   0  0  0  0  0  3  0  0  0  0  0  0
    1.0420  -12.4730  -22.7660 C   0  0  0  0  0  3  0  0  0  0  0  0
   -0.1180  -11.7110  -22.5970 C   0  0  0  0  0  0  0  0  0  0  0  0
   -0.2770  -10.5570  -23.3720 C   0  0  0  0  0  3  0  0  0  0  0  0
    0.7230  -10.1500  -24.2640 C   0  0  0  0  0  3  0  0  0  0  0  0
   -1.1500  -12.0800  -21.6370 C   0  0  0  0  0  0  0  0  0  0  0  0
   -1.0410  -12.8870  -20.5990 N   0  0  0  0  0  0  0  0  0  0  0  0
   -2.2860  -12.9450  -20.0170 N   0  0  0  0  0  0  0  0  0  0  0  0
   -3.1580  -12.2090  -20.6900 N   0  0  0  0  0  0  0  0  0  0  0  0
   -2.4570  -11.6800  -21.6990 N   0  0  0  0  0  0  0  0  0  0  0  0
   -2.9240  -11.1030  -22.3850 H   0  0  0  0  0  0  0  0  0  0  0  0
    1.2290   -6.7830  -27.5180 O   0  0  0  0  0  0  0  0  0  0  0  0
   -0.9250   -8.7210  -27.0800 F   0  0  0  0  0  0  0  0  0  0  0  0
   -0.7630   -7.6380  -26.3070 C   0  0  0  0  0  0  0  0  0  0  0  0
   -1.6810   -7.4360  -25.2760 C   0  0  0  0  0  3  0  0  0  0  0  0
   -1.5670   -6.3200  -24.4460 C   0  0  0  0  0  3  0  0  0  0  0  0
   -0.5300   -5.4120  -24.6490 C   0  0  0  0  0  3  0  0  0  0  0  0
    0.3850   -5.6160  -25.6840 C   0  0  0  0  0  3  0  0  0  0  0  0
    0.2730   -6.7280  -26.5280 C   0  0  0  0  0  0  0  0  0  0  0  0
  1  2  2  0  0  0  0
  2  3  1  0  0  0  0
  3  4  1  0  0  0  0
  4  9  1  0  0  0  0
  4 10  1  0  0  0  0
  5  3  2  0  0  0  0
  6  5  1  0  0  0  0
  7  6  2  0  0  0  0
  7  1  1  0  0  0  0
  8  7  1  0  0  0  0
 10 15  2  0  0  0  0
 10 11  1  0  0  0  0
 11 12  2  0  0  0  0
 12 13  1  0  0  0  0
 13 16  1  0  0  0  0
 14 13  2  0  0  0  0
 15 14  1  0  0  0  0
 16 17  2  0  0  0  0
 17 18  1  0  0  0  0
 19 18  2  0  0  0  0
 20 16  1  0  0  0  0
 20 19  1  0  0  0  0
 21 20  1  0  0  0  0
 22  1  1  0  0  0  0
 22 29  1  0  0  0  0
 23 24  1  0  0  0  0
 24 25  1  0  0  0  0
 25 26  2  0  0  0  0
 27 26  1  0  0  0  0
 28 27  2  0  0  0  0
 29 24  2  0  0  0  0
 29 28  1  0  0  0  0
M  END
>  <minimizedAffinity>
-6.86483812

$$$$
