
 OpenBabel10152419303D

 29 32  0  0  0  0  0  0  0  0999 V2000
    1.6870   -7.9870  -26.4840 C   0  0  0  0  0  0  0  0  0  0  0  0
    1.5090   -9.0020  -25.6090 N   0  0  0  0  0  0  0  0  0  0  0  0
    2.3940  -10.0060  -25.6450 C   0  0  0  0  0  0  0  0  0  0  0  0
    2.3520  -11.0440  -24.7190 N   0  0  0  0  0  0  0  0  0  0  0  0
    3.4370  -10.0400  -26.4950 N   0  0  0  0  0  0  0  0  0  0  0  0
    3.5810   -8.9960  -27.3420 C   0  0  0  0  0  3  0  0  0  0  0  0
    2.7390   -7.9130  -27.3700 C   0  0  0  0  0  0  0  0  0  0  0  0
    3.0340   -6.5890  -28.4180 Cl  0  0  0  0  0  0  0  0  0  0  0  0
    3.1740  -11.6200  -24.8090 H   0  0  0  0  0  0  0  0  0  0  0  0
    1.4330  -11.3700  -23.7200 C   0  0  0  0  0  0  0  0  0  0  0  0
    0.4920  -10.4080  -23.3250 C   0  0  0  0  0  3  0  0  0  0  0  0
   -0.5120  -10.7090  -22.3950 C   0  0  0  0  0  3  0  0  0  0  0  0
   -0.5920  -11.9860  -21.8280 C   0  0  0  0  0  0  0  0  0  0  0  0
    0.3590  -12.9410  -22.1980 C   0  0  0  0  0  3  0  0  0  0  0  0
    1.3440  -12.6410  -23.1480 C   0  0  0  0  0  3  0  0  0  0  0  0
   -1.6380  -12.3420  -20.8790 C   0  0  0  0  0  0  0  0  0  0  0  0
   -1.5210  -12.5500  -19.5810 N   0  0  0  0  0  0  0  0  0  0  0  0
   -2.7730  -12.8880  -19.1240 N   0  0  0  0  0  0  0  0  0  0  0  0
   -3.6490  -12.9160  -20.1180 N   0  0  0  0  0  0  0  0  0  0  0  0
   -2.9440  -12.5860  -21.2070 N   0  0  0  0  0  0  0  0  0  0  0  0
   -3.3950  -12.5790  -22.1120 H   0  0  0  0  0  0  0  0  0  0  0  0
    0.8290   -6.9250  -26.3190 O   0  0  0  0  0  0  0  0  0  0  0  0
    0.9270   -5.8790  -23.5830 F   0  0  0  0  0  0  0  0  0  0  0  0
   -0.1390   -6.5340  -24.0660 C   0  0  0  0  0  0  0  0  0  0  0  0
   -1.2200   -6.7310  -23.2070 C   0  0  0  0  0  3  0  0  0  0  0  0
   -2.3520   -7.4130  -23.6530 C   0  0  0  0  0  3  0  0  0  0  0  0
   -2.3990   -7.8920  -24.9610 C   0  0  0  0  0  3  0  0  0  0  0  0
   -1.3140   -7.6950  -25.8170 C   0  0  0  0  0  3  0  0  0  0  0  0
   -0.1690   -7.0200  -25.3750 C   0  0  0  0  0  0  0  0  0  0  0  0
  1 22  1  0  0  0  0
  1  2  2  0  0  0  0
  3  2  1  0  0  0  0
  3  4  1  0  0  0  0
  4 10  1  0  0  0  0
  5  3  2  0  0  0  0
  6  5  1  0  0  0  0
  7  6  2  0  0  0  0
  7  1  1  0  0  0  0
  8  7  1  0  0  0  0
  9  4  1  0  0  0  0
 10 11  2  0  0  0  0
 10 15  1  0  0  0  0
 11 12  1  0  0  0  0
 12 13  2  0  0  0  0
 13 16  1  0  0  0  0
 14 13  1  0  0  0  0
 15 14  2  0  0  0  0
 16 17  2  0  0  0  0
 17 18  1  0  0  0  0
 19 18  2  0  0  0  0
 20 16  1  0  0  0  0
 20 19  1  0  0  0  0
 21 20  1  0  0  0  0
 22 29  1  0  0  0  0
 24 23  1  0  0  0  0
 24 25  1  0  0  0  0
 26 25  2  0  0  0  0
 27 26  1  0  0  0  0
 28 29  1  0  0  0  0
 28 27  2  0  0  0  0
 29 24  2  0  0  0  0
M  END
>  <minimizedAffinity>
-8.27699089

$$$$
