
 OpenBabel10152419303D

 29 32  0  0  0  0  0  0  0  0999 V2000
    3.3580  -10.5400  -26.7380 C   0  0  0  0  0  0  0  0  0  0  0  0
    2.3320   -9.7180  -26.4210 N   0  0  0  0  0  0  0  0  0  0  0  0
    1.2760  -10.2640  -25.8050 C   0  0  0  0  0  0  0  0  0  0  0  0
    0.2180   -9.4830  -25.3500 N   0  0  0  0  0  0  0  0  0  0  0  0
    1.2010  -11.5700  -25.4880 N   0  0  0  0  0  0  0  0  0  0  0  0
    2.2570  -12.3490  -25.8130 C   0  0  0  0  0  3  0  0  0  0  0  0
    3.3900  -11.8820  -26.4290 C   0  0  0  0  0  0  0  0  0  0  0  0
    4.7220  -12.9160  -26.7360 Cl  0  0  0  0  0  0  0  0  0  0  0  0
   -0.4060  -10.0410  -24.7880 H   0  0  0  0  0  0  0  0  0  0  0  0
   -0.0780   -8.1280  -25.5030 C   0  0  0  0  0  0  0  0  0  0  0  0
    0.1910   -7.2520  -24.4410 C   0  0  0  0  0  3  0  0  0  0  0  0
    0.0010   -5.8700  -24.5700 C   0  0  0  0  0  3  0  0  0  0  0  0
   -0.4750   -5.3290  -25.7690 C   0  0  0  0  0  0  0  0  0  0  0  0
   -0.7710   -6.2000  -26.8220 C   0  0  0  0  0  3  0  0  0  0  0  0
   -0.5540   -7.5780  -26.6960 C   0  0  0  0  0  3  0  0  0  0  0  0
   -0.6590   -3.8950  -25.9480 C   0  0  0  0  0  0  0  0  0  0  0  0
   -1.2890   -3.0520  -25.1530 N   0  0  0  0  0  0  0  0  0  0  0  0
   -1.2220   -1.8190  -25.7580 N   0  0  0  0  0  0  0  0  0  0  0  0
   -0.5840   -1.8940  -26.9170 N   0  0  0  0  0  0  0  0  0  0  0  0
   -0.2430   -3.1820  -27.0400 N   0  0  0  0  0  0  0  0  0  0  0  0
    0.2260   -3.4990  -27.8780 H   0  0  0  0  0  0  0  0  0  0  0  0
    4.4670   -9.9080  -27.2520 O   0  0  0  0  0  0  0  0  0  0  0  0
    4.4120   -6.9970  -27.5860 F   0  0  0  0  0  0  0  0  0  0  0  0
    4.3140   -7.8430  -28.6220 C   0  0  0  0  0  0  0  0  0  0  0  0
    4.1600   -7.2910  -29.8940 C   0  0  0  0  0  3  0  0  0  0  0  0
    4.0440   -8.1230  -31.0070 C   0  0  0  0  0  3  0  0  0  0  0  0
    4.0890   -9.5070  -30.8440 C   0  0  0  0  0  3  0  0  0  0  0  0
    4.2410  -10.0540  -29.5680 C   0  0  0  0  0  3  0  0  0  0  0  0
    4.3480   -9.2270  -28.4430 C   0  0  0  0  0  0  0  0  0  0  0  0
  1  7  1  0  0  0  0
  1  2  2  0  0  0  0
  2  3  1  0  0  0  0
  3  5  2  0  0  0  0
  3  4  1  0  0  0  0
  4  9  1  0  0  0  0
  6  5  1  0  0  0  0
  7  6  2  0  0  0  0
  8  7  1  0  0  0  0
 10  4  1  0  0  0  0
 10 11  1  0  0  0  0
 12 11  2  0  0  0  0
 13 12  1  0  0  0  0
 14 15  1  0  0  0  0
 14 13  2  0  0  0  0
 15 10  2  0  0  0  0
 16 13  1  0  0  0  0
 16 17  2  0  0  0  0
 18 17  1  0  0  0  0
 19 18  2  0  0  0  0
 20 19  1  0  0  0  0
 20 16  1  0  0  0  0
 21 20  1  0  0  0  0
 22  1  1  0  0  0  0
 24 29  1  0  0  0  0
 24 23  1  0  0  0  0
 25 24  2  0  0  0  0
 26 27  2  0  0  0  0
 26 25  1  0  0  0  0
 27 28  1  0  0  0  0
 28 29  2  0  0  0  0
 29 22  1  0  0  0  0
M  END
>  <minimizedAffinity>
-8.44334412

$$$$
