
 OpenBabel10152419303D

 29 32  0  0  0  0  0  0  0  0999 V2000
    0.3230   -5.8050  -26.8610 C   0  0  0  0  0  0  0  0  0  0  0  0
   -0.1370   -6.3200  -25.6990 N   0  0  0  0  0  0  0  0  0  0  0  0
   -0.7290   -5.4750  -24.8450 C   0  0  0  0  0  0  0  0  0  0  0  0
   -1.3220   -5.9280  -23.6710 N   0  0  0  0  0  0  0  0  0  0  0  0
   -0.8890   -4.1630  -25.0970 N   0  0  0  0  0  0  0  0  0  0  0  0
   -0.4250   -3.6970  -26.2780 C   0  0  0  0  0  3  0  0  0  0  0  0
    0.1800   -4.4840  -27.2250 C   0  0  0  0  0  0  0  0  0  0  0  0
    0.6700   -3.8350  -28.7350 Cl  0  0  0  0  0  0  0  0  0  0  0  0
   -1.8400   -5.1820  -23.2340 H   0  0  0  0  0  0  0  0  0  0  0  0
   -1.3470   -7.1830  -23.0580 C   0  0  0  0  0  0  0  0  0  0  0  0
   -1.7330   -7.2720  -21.7130 C   0  0  0  0  0  3  0  0  0  0  0  0
   -1.8670   -8.5120  -21.0740 C   0  0  0  0  0  3  0  0  0  0  0  0
   -1.6060   -9.6980  -21.7670 C   0  0  0  0  0  0  0  0  0  0  0  0
   -1.1940   -9.6140  -23.1010 C   0  0  0  0  0  3  0  0  0  0  0  0
   -1.0890   -8.3730  -23.7420 C   0  0  0  0  0  3  0  0  0  0  0  0
   -1.7600  -11.0050  -21.1430 C   0  0  0  0  0  0  0  0  0  0  0  0
   -2.8720  -11.5790  -20.7240 N   0  0  0  0  0  0  0  0  0  0  0  0
   -2.5080  -12.7890  -20.1820 N   0  0  0  0  0  0  0  0  0  0  0  0
   -1.1950  -12.9580  -20.2390 N   0  0  0  0  0  0  0  0  0  0  0  0
   -0.7300  -11.8490  -20.8260 N   0  0  0  0  0  0  0  0  0  0  0  0
    0.2660  -11.7250  -20.9450 H   0  0  0  0  0  0  0  0  0  0  0  0
    0.8060   -6.7340  -27.7540 O   0  0  0  0  0  0  0  0  0  0  0  0
    1.3900   -8.8960  -25.8630 F   0  0  0  0  0  0  0  0  0  0  0  0
    2.3380   -8.3240  -26.6200 C   0  0  0  0  0  0  0  0  0  0  0  0
    3.6480   -8.7790  -26.4660 C   0  0  0  0  0  3  0  0  0  0  0  0
    4.6770   -8.2150  -27.2210 C   0  0  0  0  0  3  0  0  0  0  0  0
    4.3890   -7.1990  -28.1310 C   0  0  0  0  0  3  0  0  0  0  0  0
    3.0770   -6.7450  -28.2790 C   0  0  0  0  0  3  0  0  0  0  0  0
    2.0390   -7.2990  -27.5190 C   0  0  0  0  0  0  0  0  0  0  0  0
  1  2  2  0  0  0  0
  2  3  1  0  0  0  0
  3  4  1  0  0  0  0
  4  9  1  0  0  0  0
  4 10  1  0  0  0  0
  5  3  2  0  0  0  0
  6  5  1  0  0  0  0
  7  1  1  0  0  0  0
  7  6  2  0  0  0  0
  8  7  1  0  0  0  0
 10 11  1  0  0  0  0
 11 12  2  0  0  0  0
 13 16  1  0  0  0  0
 13 12  1  0  0  0  0
 14 13  2  0  0  0  0
 15 14  1  0  0  0  0
 15 10  2  0  0  0  0
 16 20  1  0  0  0  0
 16 17  2  0  0  0  0
 17 18  1  0  0  0  0
 19 18  2  0  0  0  0
 20 19  1  0  0  0  0
 21 20  1  0  0  0  0
 22 29  1  0  0  0  0
 22  1  1  0  0  0  0
 24 25  1  0  0  0  0
 24 23  1  0  0  0  0
 26 25  2  0  0  0  0
 27 26  1  0  0  0  0
 28 27  2  0  0  0  0
 28 29  1  0  0  0  0
 29 24  2  0  0  0  0
M  END
>  <minimizedAffinity>
-8.40592957

$$$$
