
 OpenBabel10152419353D

 38 41  0  0  1  0  0  0  0  0999 V2000
   -1.3680   -6.8540  -22.9770 C   0  0  0  0  0  0  0  0  0  0  0  0
   -0.9020   -5.5390  -22.8790 C   0  0  0  0  0  3  0  0  0  0  0  0
   -0.1320   -4.9730  -23.8940 C   0  0  0  0  0  3  0  0  0  0  0  0
    0.1180   -5.6900  -25.0640 C   0  0  0  0  0  3  0  0  0  0  0  0
   -0.3820   -6.9920  -25.2290 C   0  0  0  0  0  0  0  0  0  0  0  0
   -1.0880   -7.5880  -24.1430 C   0  0  0  0  0  3  0  0  0  0  0  0
   -2.8030   -8.4710  -21.5970 C   0  0  0  0  0  0  0  0  0  0  0  0
   -3.8810   -8.4400  -20.9980 O   0  0  0  0  0  0  0  0  0  0  0  0
   -2.2400   -7.2690  -21.9510 N   0  0  0  0  0  0  0  0  0  0  0  0
   -2.6170   -6.5240  -21.3780 H   0  0  0  0  0  0  0  0  0  0  0  0
   -0.9630  -11.5430  -22.3400 C   0  0  0  0  0  0  0  0  0  0  0  0
   -1.5020  -10.3280  -22.8330 C   0  0  0  0  0  3  0  0  0  0  0  0
   -2.0930   -9.7070  -21.7570 C   0  0  0  0  0  0  0  0  0  0  0  0
   -1.7490  -10.4920  -20.6870 N   0  0  0  0  0  0  0  0  0  0  0  0
   -1.0930  -11.6200  -21.0100 N   0  0  0  0  0  0  0  0  0  0  0  0
   -1.9440  -10.3030  -19.7100 H   0  0  0  0  0  0  0  0  0  0  0  0
   -0.5290  -12.5130  -24.6540 C   0  0  0  0  0  1  0  0  0  0  0  0
   -0.4030  -12.6840  -23.1440 C   0  0  0  0  0  3  0  0  0  0  0  0
    1.0460  -12.9580  -22.7360 C   0  0  0  0  0  1  0  0  0  0  0  0
   -0.3360   -7.6770  -26.6060 C   0  0  1  0  0  3  0  0  0  0  0  0
    0.0860   -6.6640  -27.6760 C   0  0  0  0  0  1  0  0  0  0  0  0
    0.6130   -8.7950  -26.6700 N   0  0  0  0  0  0  0  0  0  0  0  0
    0.4030   -9.5800  -27.2610 H   0  0  0  0  0  0  0  0  0  0  0  0
    1.9480   -8.5100  -26.3800 C   0  0  0  0  0  0  0  0  0  0  0  0
    2.4360   -7.3350  -26.8130 N   0  0  0  0  0  0  0  0  0  0  0  0
    3.7380   -7.3050  -27.0900 C   0  0  0  0  0  3  0  0  0  0  0  0
    4.5420   -8.3670  -27.0940 N   0  0  0  0  0  0  0  0  0  0  0  0
    4.0100   -9.5220  -26.6370 C   0  0  0  0  0  0  0  0  0  0  0  0
    4.5130  -10.7830  -26.9630 C   0  0  1  0  0  3  0  0  0  0  0  0
    4.3390  -11.8670  -26.0920 C   0  0  0  0  0  2  0  0  0  0  0  0
    3.2990  -11.8150  -25.1800 C   0  0  0  0  0  3  0  0  0  0  0  0
    2.4400  -10.7190  -25.2360 C   0  0  0  0  0  3  0  0  0  0  0  0
    2.7810   -9.5760  -26.0150 C   0  0  0  0  0  0  0  0  0  0  0  0
    4.1950  -11.0800  -28.4050 C   0  0  0  0  0  0  0  0  0  0  0  0
    4.6970  -10.2840  -29.4000 N   0  0  0  0  0  0  0  0  0  0  0  0
    3.6440  -12.1210  -28.7380 O   0  0  0  0  0  0  0  0  0  0  0  0
    4.5880  -10.6440  -30.3410 H   0  0  0  0  0  0  0  0  0  0  0  0
    5.3120   -9.5000  -29.2640 H   0  0  0  0  0  0  0  0  0  0  0  0
  1  2  1  0  0  0  0
  1  9  1  0  0  0  0
  3  2  2  0  0  0  0
  4  3  1  0  0  0  0
  5  4  2  0  0  0  0
  5  6  1  0  0  0  0
  6  1  2  0  0  0  0
  7  8  2  0  0  0  0
  9  7  1  0  0  0  0
  9 10  1  0  0  0  0
 11 15  2  0  0  0  0
 12 11  1  0  0  0  0
 12 13  2  0  0  0  0
 13  7  1  0  0  0  0
 13 14  1  0  0  0  0
 14 16  1  0  0  0  0
 15 14  1  0  0  0  0
 17 18  1  0  0  0  0
 18 19  1  0  0  0  0
 18 11  1  0  0  0  0
 20 21  1  6  0  0  0
 20  5  1  0  0  0  0
 22 20  1  0  0  0  0
 22 24  1  0  0  0  0
 23 22  1  0  0  0  0
 24 33  1  0  0  0  0
 25 24  2  0  0  0  0
 26 25  1  0  0  0  0
 27 26  2  0  0  0  0
 27 28  1  0  0  0  0
 28 33  2  0  0  0  0
 29 34  1  6  0  0  0
 29 28  1  0  0  0  0
 29 30  1  0  0  0  0
 30 31  1  0  0  0  0
 32 31  2  0  0  0  0
 33 32  1  0  0  0  0
 35 38  1  0  0  0  0
 35 34  1  0  0  0  0
 36 34  2  0  0  0  0
 37 35  1  0  0  0  0
M  END
>  <minimizedAffinity>
-7.48804617

$$$$
