
 OpenBabel10152419353D

 38 41  0  0  1  0  0  0  0  0999 V2000
    2.8940   -9.9080  -26.7270 C   0  0  0  0  0  0  0  0  0  0  0  0
    3.1110  -11.2040  -27.2050 C   0  0  0  0  0  3  0  0  0  0  0  0
    2.2010  -12.2270  -26.9430 C   0  0  0  0  0  3  0  0  0  0  0  0
    1.0160  -11.9510  -26.2620 C   0  0  0  0  0  3  0  0  0  0  0  0
    0.7310  -10.6490  -25.8160 C   0  0  0  0  0  0  0  0  0  0  0  0
    1.7150   -9.6360  -26.0120 C   0  0  0  0  0  3  0  0  0  0  0  0
    3.7190   -7.7940  -27.9230 C   0  0  0  0  0  0  0  0  0  0  0  0
    4.7220   -7.4390  -28.5470 O   0  0  0  0  0  0  0  0  0  0  0  0
    3.8160   -8.9360  -27.1640 N   0  0  0  0  0  0  0  0  0  0  0  0
    4.7860   -9.1370  -26.9580 H   0  0  0  0  0  0  0  0  0  0  0  0
    0.6940   -5.7920  -27.4580 C   0  0  0  0  0  0  0  0  0  0  0  0
    1.5480   -6.7970  -26.9410 C   0  0  0  0  0  3  0  0  0  0  0  0
    2.5620   -6.9470  -27.8580 C   0  0  0  0  0  0  0  0  0  0  0  0
    2.3430   -5.9450  -28.7680 N   0  0  0  0  0  0  0  0  0  0  0  0
    1.2090   -5.2510  -28.5700 N   0  0  0  0  0  0  0  0  0  0  0  0
    2.9370   -5.6960  -29.5500 H   0  0  0  0  0  0  0  0  0  0  0  0
   -1.5080   -6.5680  -26.4430 C   0  0  0  0  0  1  0  0  0  0  0  0
   -0.6670   -5.4020  -26.9500 C   0  0  0  0  0  3  0  0  0  0  0  0
   -0.5430   -4.3060  -25.8900 C   0  0  0  0  0  1  0  0  0  0  0  0
   -0.6760  -10.2900  -25.3070 C   0  0  1  0  0  3  0  0  0  0  0  0
   -1.6730  -10.3220  -26.4710 C   0  0  0  0  0  1  0  0  0  0  0  0
   -1.1780  -11.2120  -24.2820 N   0  0  0  0  0  0  0  0  0  0  0  0
   -1.1360  -12.2020  -24.4530 H   0  0  0  0  0  0  0  0  0  0  0  0
   -1.1720  -10.7580  -22.9620 C   0  0  0  0  0  0  0  0  0  0  0  0
   -1.6360  -11.5960  -22.0200 N   0  0  0  0  0  0  0  0  0  0  0  0
   -2.1890  -11.0290  -20.9500 C   0  0  0  0  0  3  0  0  0  0  0  0
   -2.4260   -9.7240  -20.8130 N   0  0  0  0  0  0  0  0  0  0  0  0
   -1.9280   -8.9210  -21.7800 C   0  0  0  0  0  0  0  0  0  0  0  0
   -2.4240   -7.6460  -22.0520 C   0  0  1  0  0  3  0  0  0  0  0  0
   -1.5970   -6.6630  -22.6120 C   0  0  0  0  0  3  0  0  0  0  0  0
   -0.4780   -7.0730  -23.3180 C   0  0  0  0  0  3  0  0  0  0  0  0
   -0.2850   -8.4420  -23.4920 C   0  0  0  0  0  2  0  0  0  0  0  0
   -1.0560   -9.3780  -22.7450 C   0  0  0  0  0  0  0  0  0  0  0  0
   -3.7760   -7.7730  -22.7030 C   0  0  0  0  0  0  0  0  0  0  0  0
   -4.9130   -7.7700  -21.9390 N   0  0  0  0  0  0  0  0  0  0  0  0
   -3.9110   -7.7030  -23.9180 O   0  0  0  0  0  0  0  0  0  0  0  0
   -5.7820   -7.6830  -22.4540 H   0  0  0  0  0  0  0  0  0  0  0  0
   -4.9430   -7.6550  -20.9400 H   0  0  0  0  0  0  0  0  0  0  0  0
  1  6  1  0  0  0  0
  2  3  1  0  0  0  0
  2  1  2  0  0  0  0
  3  4  2  0  0  0  0
  4  5  1  0  0  0  0
  5 20  1  0  0  0  0
  6  5  2  0  0  0  0
  7 13  1  0  0  0  0
  7  9  1  0  0  0  0
  8  7  2  0  0  0  0
  9 10  1  0  0  0  0
  9  1  1  0  0  0  0
 11 18  1  0  0  0  0
 11 12  1  0  0  0  0
 13 12  2  0  0  0  0
 14 15  1  0  0  0  0
 14 13  1  0  0  0  0
 15 11  2  0  0  0  0
 16 14  1  0  0  0  0
 18 17  1  0  0  0  0
 18 19  1  0  0  0  0
 20 21  1  6  0  0  0
 20 22  1  0  0  0  0
 22 24  1  0  0  0  0
 23 22  1  0  0  0  0
 24 33  2  0  0  0  0
 24 25  1  0  0  0  0
 25 26  2  0  0  0  0
 26 27  1  0  0  0  0
 28 27  2  0  0  0  0
 29 34  1  6  0  0  0
 29 28  1  0  0  0  0
 30 29  1  0  0  0  0
 31 30  2  0  0  0  0
 32 31  1  0  0  0  0
 32 33  1  0  0  0  0
 33 28  1  0  0  0  0
 34 35  1  0  0  0  0
 35 38  1  0  0  0  0
 36 34  2  0  0  0  0
 37 35  1  0  0  0  0
M  END
>  <minimizedAffinity>
-8.38927174

$$$$
