
 OpenBabel10152419353D

 38 41  0  0  1  0  0  0  0  0999 V2000
   -1.3090   -8.1110  -22.6350 C   0  0  0  0  0  0  0  0  0  0  0  0
   -1.1260   -6.8160  -22.1370 C   0  0  0  0  0  3  0  0  0  0  0  0
   -0.7670   -5.7670  -22.9810 C   0  0  0  0  0  3  0  0  0  0  0  0
   -0.6620   -5.9800  -24.3550 C   0  0  0  0  0  3  0  0  0  0  0  0
   -0.8960   -7.2520  -24.9040 C   0  0  0  0  0  0  0  0  0  0  0  0
   -1.1710   -8.3330  -24.0160 C   0  0  0  0  0  3  0  0  0  0  0  0
   -1.9240  -10.4240  -21.7130 C   0  0  0  0  0  0  0  0  0  0  0  0
   -2.8140  -10.9130  -21.0130 O   0  0  0  0  0  0  0  0  0  0  0  0
   -1.7940   -9.0560  -21.7090 N   0  0  0  0  0  0  0  0  0  0  0  0
   -2.2240   -8.6660  -20.8800 H   0  0  0  0  0  0  0  0  0  0  0  0
    0.4950  -12.3720  -23.6430 C   0  0  0  0  0  0  0  0  0  0  0  0
   -0.3920  -11.2670  -23.6130 C   0  0  0  0  0  3  0  0  0  0  0  0
   -0.9590  -11.2670  -22.3600 C   0  0  0  0  0  0  0  0  0  0  0  0
   -0.2850  -12.2510  -21.6860 N   0  0  0  0  0  0  0  0  0  0  0  0
    0.5770  -12.9540  -22.4400 N   0  0  0  0  0  0  0  0  0  0  0  0
   -0.3800  -12.4880  -20.7040 H   0  0  0  0  0  0  0  0  0  0  0  0
    0.8330  -12.2780  -26.1660 C   0  0  0  0  0  1  0  0  0  0  0  0
    1.2010  -12.9420  -24.8430 C   0  0  0  0  0  3  0  0  0  0  0  0
    2.7150  -12.9330  -24.6210 C   0  0  0  0  0  1  0  0  0  0  0  0
   -1.0410   -7.4300  -26.4260 C   0  0  1  0  0  3  0  0  0  0  0  0
   -1.2600   -6.0660  -27.0890 C   0  0  0  0  0  1  0  0  0  0  0  0
    0.1380   -8.0340  -27.0570 N   0  0  0  0  0  0  0  0  0  0  0  0
    0.0080   -8.6840  -27.8120 H   0  0  0  0  0  0  0  0  0  0  0  0
    1.3320   -7.3140  -26.9890 C   0  0  0  0  0  0  0  0  0  0  0  0
    1.3230   -6.0590  -27.4680 N   0  0  0  0  0  0  0  0  0  0  0  0
    2.4760   -5.6080  -27.9600 C   0  0  0  0  0  3  0  0  0  0  0  0
    3.5740   -6.3440  -28.1260 N   0  0  0  0  0  0  0  0  0  0  0  0
    3.5390   -7.5950  -27.6160 C   0  0  0  0  0  0  0  0  0  0  0  0
    4.3690   -8.6280  -28.0540 C   0  0  1  0  0  3  0  0  0  0  0  0
    4.7120   -9.6810  -27.1950 C   0  0  0  0  0  2  0  0  0  0  0  0
    3.8820   -9.9460  -26.1200 C   0  0  0  0  0  3  0  0  0  0  0  0
    2.7120   -9.1990  -26.0020 C   0  0  0  0  0  3  0  0  0  0  0  0
    2.5200   -8.0330  -26.7970 C   0  0  0  0  0  0  0  0  0  0  0  0
    3.9310   -9.0590  -29.4300 C   0  0  0  0  0  0  0  0  0  0  0  0
    3.7130   -8.1260  -30.4080 N   0  0  0  0  0  0  0  0  0  0  0  0
    3.9330  -10.2380  -29.7620 O   0  0  0  0  0  0  0  0  0  0  0  0
    3.5930   -8.4970  -31.3440 H   0  0  0  0  0  0  0  0  0  0  0  0
    3.8500   -7.1350  -30.3080 H   0  0  0  0  0  0  0  0  0  0  0  0
  1  2  1  0  0  0  0
  1  9  1  0  0  0  0
  3  2  2  0  0  0  0
  4  3  1  0  0  0  0
  5  4  2  0  0  0  0
  5  6  1  0  0  0  0
  6  1  2  0  0  0  0
  7  9  1  0  0  0  0
  7  8  2  0  0  0  0
  9 10  1  0  0  0  0
 11 12  1  0  0  0  0
 11 15  2  0  0  0  0
 12 13  2  0  0  0  0
 13  7  1  0  0  0  0
 13 14  1  0  0  0  0
 14 16  1  0  0  0  0
 15 14  1  0  0  0  0
 17 18  1  0  0  0  0
 18 19  1  0  0  0  0
 18 11  1  0  0  0  0
 20 21  1  6  0  0  0
 20  5  1  0  0  0  0
 22 24  1  0  0  0  0
 22 20  1  0  0  0  0
 23 22  1  0  0  0  0
 24 33  1  0  0  0  0
 25 24  2  0  0  0  0
 26 25  1  0  0  0  0
 27 26  2  0  0  0  0
 27 28  1  0  0  0  0
 28 33  2  0  0  0  0
 29 34  1  6  0  0  0
 29 28  1  0  0  0  0
 29 30  1  0  0  0  0
 30 31  1  0  0  0  0
 31 32  2  0  0  0  0
 33 32  1  0  0  0  0
 35 38  1  0  0  0  0
 35 34  1  0  0  0  0
 36 34  2  0  0  0  0
 37 35  1  0  0  0  0
M  END
>  <minimizedAffinity>
-6.30682659

$$$$
