
 OpenBabel10152419353D

 38 41  0  0  1  0  0  0  0  0999 V2000
    0.0820   -6.2910  -24.9910 C   0  0  0  0  0  0  0  0  0  0  0  0
   -0.9470   -6.4170  -25.9310 C   0  0  0  0  0  3  0  0  0  0  0  0
   -0.7070   -6.9710  -27.1870 C   0  0  0  0  0  3  0  0  0  0  0  0
    0.5520   -7.4820  -27.4970 C   0  0  0  0  0  3  0  0  0  0  0  0
    1.5990   -7.4290  -26.5600 C   0  0  0  0  0  0  0  0  0  0  0  0
    1.3610   -6.7760  -25.3160 C   0  0  0  0  0  3  0  0  0  0  0  0
   -1.1500   -6.3180  -22.7420 C   0  0  0  0  0  0  0  0  0  0  0  0
   -1.6760   -5.4960  -21.9870 O   0  0  0  0  0  0  0  0  0  0  0  0
   -0.3100   -5.8360  -23.7170 N   0  0  0  0  0  0  0  0  0  0  0  0
    0.0210   -4.9120  -23.4680 H   0  0  0  0  0  0  0  0  0  0  0  0
   -1.6460   -9.8200  -21.8120 C   0  0  0  0  0  0  0  0  0  0  0  0
   -1.8650   -8.4580  -21.4860 C   0  0  0  0  0  3  0  0  0  0  0  0
   -1.2790   -7.7250  -22.4920 C   0  0  0  0  0  0  0  0  0  0  0  0
   -0.8890   -8.6660  -23.4090 N   0  0  0  0  0  0  0  0  0  0  0  0
   -1.0700   -9.9380  -23.0150 N   0  0  0  0  0  0  0  0  0  0  0  0
   -0.4860   -8.4900  -24.3230 H   0  0  0  0  0  0  0  0  0  0  0  0
   -2.0170  -12.3360  -21.6950 C   0  0  0  0  0  1  0  0  0  0  0  0
   -1.8970  -11.0180  -20.9380 C   0  0  0  0  0  3  0  0  0  0  0  0
   -0.8340  -11.1040  -19.8400 C   0  0  0  0  0  1  0  0  0  0  0  0
    2.8970   -8.2210  -26.7960 C   0  0  1  0  0  3  0  0  0  0  0  0
    4.0860   -7.2580  -26.8780 C   0  0  0  0  0  1  0  0  0  0  0  0
    3.1940   -9.1850  -25.7300 N   0  0  0  0  0  0  0  0  0  0  0  0
    2.9600   -8.9500  -24.7820 H   0  0  0  0  0  0  0  0  0  0  0  0
    3.2590  -10.5320  -26.0930 C   0  0  0  0  0  0  0  0  0  0  0  0
    3.5850  -10.8120  -27.3660 N   0  0  0  0  0  0  0  0  0  0  0  0
    3.0840  -11.9390  -27.8660 C   0  0  0  0  0  3  0  0  0  0  0  0
    2.1970  -12.7200  -27.2510 N   0  0  0  0  0  0  0  0  0  0  0  0
    1.9120  -12.4060  -25.9680 C   0  0  0  0  0  0  0  0  0  0  0  0
    0.7380  -12.7980  -25.3230 C   0  0  1  0  0  3  0  0  0  0  0  0
    0.7090  -12.9590  -23.9310 C   0  0  0  0  0  2  0  0  0  0  0  0
    1.6570  -12.2930  -23.1740 C   0  0  0  0  0  3  0  0  0  0  0  0
    2.5360  -11.4390  -23.8380 C   0  0  0  0  0  3  0  0  0  0  0  0
    2.6290  -11.4650  -25.2590 C   0  0  0  0  0  0  0  0  0  0  0  0
   -0.4180  -12.0140  -25.8870 C   0  0  0  0  0  0  0  0  0  0  0  0
   -1.5610  -11.8450  -25.1530 N   0  0  0  0  0  0  0  0  0  0  0  0
   -0.3080  -11.3650  -26.9200 O   0  0  0  0  0  0  0  0  0  0  0  0
   -2.2180  -11.1670  -25.5210 H   0  0  0  0  0  0  0  0  0  0  0  0
   -1.7060  -12.1810  -24.2150 H   0  0  0  0  0  0  0  0  0  0  0  0
  1  9  1  0  0  0  0
  2  1  2  0  0  0  0
  3  2  1  0  0  0  0
  4  3  2  0  0  0  0
  4  5  1  0  0  0  0
  5  6  2  0  0  0  0
  6  1  1  0  0  0  0
  7 13  1  0  0  0  0
  7  8  2  0  0  0  0
  9 10  1  0  0  0  0
  9  7  1  0  0  0  0
 11 12  1  0  0  0  0
 11 18  1  0  0  0  0
 13 12  2  0  0  0  0
 14 15  1  0  0  0  0
 14 13  1  0  0  0  0
 15 11  2  0  0  0  0
 16 14  1  0  0  0  0
 17 18  1  0  0  0  0
 18 19  1  0  0  0  0
 20 21  1  1  0  0  0
 20  5  1  0  0  0  0
 20 22  1  0  0  0  0
 22 23  1  0  0  0  0
 24 22  1  0  0  0  0
 24 33  1  0  0  0  0
 25 24  2  0  0  0  0
 26 25  1  0  0  0  0
 26 27  2  0  0  0  0
 27 28  1  0  0  0  0
 28 29  1  0  0  0  0
 28 33  2  0  0  0  0
 29 34  1  1  0  0  0
 29 30  1  0  0  0  0
 30 31  1  0  0  0  0
 32 31  2  0  0  0  0
 33 32  1  0  0  0  0
 34 35  1  0  0  0  0
 35 38  1  0  0  0  0
 36 34  2  0  0  0  0
 37 35  1  0  0  0  0
M  END
>  <minimizedAffinity>
-7.0089488

$$$$
