
 OpenBabel11232419353D

 35 39  0  0  1  0  0  0  0  0999 V2000
   61.8000  -41.6060   14.5040 O   0  0  0  0  0  0  0  0  0  0  0  0
   59.1550  -43.0210   16.7070 C   0  0  0  0  0  0  0  0  0  0  0  0
   59.2930  -44.3340   16.2640 C   0  0  0  0  0  3  0  0  0  0  0  0
   60.2000  -44.7250   15.3410 N   0  0  0  0  0  0  0  0  0  0  0  0
   61.0200  -43.7740   14.8460 C   0  0  0  0  0  3  0  0  0  0  0  0
   60.9610  -42.4300   15.1950 C   0  0  0  0  0  0  0  0  0  0  0  0
   60.0230  -42.0620   16.1570 C   0  0  0  0  0  3  0  0  0  0  0  0
   56.4390  -45.1080   21.3620 C   0  0  0  0  0  1  0  0  0  0  0  0
   56.1610  -43.7770   20.7700 C   0  0  0  0  0  0  0  0  0  0  0  0
   55.2220  -42.9880   21.3040 N   0  0  0  0  0  0  0  0  0  0  0  0
   55.2530  -41.8820   20.5410 N   0  0  0  0  0  0  0  0  0  0  0  0
   56.1620  -41.9370   19.5170 C   0  0  0  0  0  0  0  0  0  0  0  0
   56.4920  -41.0190   18.5180 C   0  0  0  0  0  3  0  0  0  0  0  0
   57.4890  -41.3980   17.6070 C   0  0  0  0  0  3  0  0  0  0  0  0
   58.1320  -42.6420   17.6870 C   0  0  0  0  0  0  0  0  0  0  0  0
   57.7790  -43.5340   18.7190 C   0  0  0  0  0  3  0  0  0  0  0  0
   56.7760  -43.1750   19.6410 C   0  0  0  0  0  0  0  0  0  0  0  0
   54.6230  -41.1210   20.7730 H   0  0  0  0  0  0  0  0  0  0  0  0
   62.5180  -40.5660   15.1770 C   0  0  0  0  0  2  0  0  0  0  0  0
   63.7420  -41.1570   15.9100 C   0  0  1  0  0  3  0  0  0  0  0  0
   64.9980  -40.8590   15.1330 N   0  0  0  0  0  4  0  0  0  0  0  0
   65.1940  -39.8540   15.0560 H   0  0  0  0  0  0  0  0  0  0  0  0
   65.8180  -41.3190   15.5480 H   0  0  0  0  0  0  0  0  0  0  0  0
   64.9040  -41.2290   14.1740 H   0  0  0  0  0  0  0  0  0  0  0  0
   63.9000  -40.6140   17.3380 C   0  0  0  0  0  2  0  0  0  0  0  0
   62.7900  -41.0560   18.2300 C   0  0  0  0  0  0  0  0  0  0  0  0
   62.5760  -42.3470   18.6710 C   0  0  0  0  0  3  0  0  0  0  0  0
   61.4630  -42.3520   19.4710 N   0  0  0  0  0  0  0  0  0  0  0  0
   60.9380  -41.0850   19.5540 C   0  0  0  0  0  0  0  0  0  0  0  0
   59.8130  -40.6290   20.2510 C   0  0  0  0  0  3  0  0  0  0  0  0
   59.5130  -39.2680   20.1750 C   0  0  0  0  0  3  0  0  0  0  0  0
   60.3090  -38.4000   19.4350 C   0  0  0  0  0  3  0  0  0  0  0  0
   61.4330  -38.8710   18.7430 C   0  0  0  0  0  3  0  0  0  0  0  0
   61.7540  -40.2440   18.7980 C   0  0  0  0  0  0  0  0  0  0  0  0
   61.0810  -43.1620   19.9430 H   0  0  0  0  0  0  0  0  0  0  0  0
  1 19  1  0  0  0  0
  1  6  1  0  0  0  0
  2 15  1  0  0  0  0
  3  2  1  0  0  0  0
  4  3  2  0  0  0  0
  5  6  2  0  0  0  0
  5  4  1  0  0  0  0
  6  7  1  0  0  0  0
  7  2  2  0  0  0  0
  9 10  2  0  0  0  0
  9  8  1  0  0  0  0
 11 18  1  0  0  0  0
 11 10  1  0  0  0  0
 12 17  1  0  0  0  0
 12 11  1  0  0  0  0
 13 12  2  0  0  0  0
 14 15  2  0  0  0  0
 14 13  1  0  0  0  0
 15 16  1  0  0  0  0
 16 17  2  0  0  0  0
 17  9  1  0  0  0  0
 20 19  1  6  0  0  0
 20 25  1  0  0  0  0
 21 23  1  0  0  0  0
 21 20  1  0  0  0  0
 22 21  1  0  0  0  0
 24 21  1  0  0  0  0
 25 26  1  0  0  0  0
 26 27  2  0  0  0  0
 26 34  1  0  0  0  0
 27 28  1  0  0  0  0
 28 29  1  0  0  0  0
 28 35  1  0  0  0  0
 29 30  1  0  0  0  0
 31 30  2  0  0  0  0
 32 31  1  0  0  0  0
 33 34  1  0  0  0  0
 33 32  2  0  0  0  0
 34 29  2  0  0  0  0
M  END
>  <minimizedAffinity>
-5.59301043

$$$$
