
 OpenBabel11232419353D

 35 39  0  0  1  0  0  0  0  0999 V2000
   61.6460  -38.6880   17.7000 O   0  0  0  0  0  0  0  0  0  0  0  0
   58.5810  -40.0270   19.3310 C   0  0  0  0  0  0  0  0  0  0  0  0
   59.1450  -40.1610   20.5970 C   0  0  0  0  0  3  0  0  0  0  0  0
   60.4160  -39.8120   20.8950 N   0  0  0  0  0  0  0  0  0  0  0  0
   61.1590  -39.2900   19.8970 C   0  0  0  0  0  3  0  0  0  0  0  0
   60.7120  -39.1300   18.5890 C   0  0  0  0  0  0  0  0  0  0  0  0
   59.3940  -39.4880   18.3180 C   0  0  0  0  0  3  0  0  0  0  0  0
   53.9090  -38.3620   16.3650 C   0  0  0  0  0  1  0  0  0  0  0  0
   53.9610  -39.5810   17.2080 C   0  0  0  0  0  0  0  0  0  0  0  0
   52.8810  -40.3600   17.3310 N   0  0  0  0  0  0  0  0  0  0  0  0
   53.2870  -41.3570   18.1350 N   0  0  0  0  0  0  0  0  0  0  0  0
   54.5850  -41.2390   18.5580 C   0  0  0  0  0  0  0  0  0  0  0  0
   55.3690  -42.0410   19.3890 C   0  0  0  0  0  3  0  0  0  0  0  0
   56.6870  -41.6240   19.6230 C   0  0  0  0  0  3  0  0  0  0  0  0
   57.2060  -40.4520   19.0510 C   0  0  0  0  0  0  0  0  0  0  0  0
   56.3860  -39.6770   18.2070 C   0  0  0  0  0  3  0  0  0  0  0  0
   55.0570  -40.0770   17.9640 C   0  0  0  0  0  0  0  0  0  0  0  0
   52.6250  -42.0920   18.3610 H   0  0  0  0  0  0  0  0  0  0  0  0
   62.9180  -39.3390   17.5950 C   0  0  0  0  0  2  0  0  0  0  0  0
   63.0290  -40.0660   16.2380 C   0  0  1  0  0  3  0  0  0  0  0  0
   64.2470  -39.5820   15.4950 N   0  0  0  0  0  4  0  0  0  0  0  0
   65.1260  -39.7930   15.9820 H   0  0  0  0  0  0  0  0  0  0  0  0
   64.2960  -39.9810   14.5490 H   0  0  0  0  0  0  0  0  0  0  0  0
   64.1960  -38.5570   15.3820 H   0  0  0  0  0  0  0  0  0  0  0  0
   63.1110  -41.5930   16.3860 C   0  0  0  0  0  2  0  0  0  0  0  0
   61.8560  -42.1680   16.9500 C   0  0  0  0  0  0  0  0  0  0  0  0
   61.6970  -42.6460   18.2370 C   0  0  0  0  0  3  0  0  0  0  0  0
   60.4080  -43.0890   18.3760 N   0  0  0  0  0  0  0  0  0  0  0  0
   59.7210  -42.9180   17.1980 C   0  0  0  0  0  0  0  0  0  0  0  0
   58.3930  -43.2290   16.8850 C   0  0  0  0  0  3  0  0  0  0  0  0
   57.9440  -42.9290   15.5980 C   0  0  0  0  0  3  0  0  0  0  0  0
   58.7890  -42.3360   14.6650 C   0  0  0  0  0  3  0  0  0  0  0  0
   60.1160  -42.0290   14.9930 C   0  0  0  0  0  3  0  0  0  0  0  0
   60.5970  -42.3300   16.2860 C   0  0  0  0  0  0  0  0  0  0  0  0
   60.0060  -43.4780   19.2200 H   0  0  0  0  0  0  0  0  0  0  0  0
  1  6  1  0  0  0  0
  2  3  1  0  0  0  0
  3  4  2  0  0  0  0
  5  4  1  0  0  0  0
  6  5  2  0  0  0  0
  7  6  1  0  0  0  0
  7  2  2  0  0  0  0
  8  9  1  0  0  0  0
  9 10  2  0  0  0  0
  9 17  1  0  0  0  0
 10 11  1  0  0  0  0
 11 18  1  0  0  0  0
 11 12  1  0  0  0  0
 12 13  1  0  0  0  0
 13 14  2  0  0  0  0
 15  2  1  0  0  0  0
 15 14  1  0  0  0  0
 16 15  2  0  0  0  0
 17 16  1  0  0  0  0
 17 12  2  0  0  0  0
 19  1  1  0  0  0  0
 20 25  1  1  0  0  0
 20 19  1  0  0  0  0
 21 22  1  0  0  0  0
 21 20  1  0  0  0  0
 23 21  1  0  0  0  0
 24 21  1  0  0  0  0
 25 26  1  0  0  0  0
 26 27  2  0  0  0  0
 27 28  1  0  0  0  0
 28 35  1  0  0  0  0
 29 28  1  0  0  0  0
 30 29  1  0  0  0  0
 31 30  2  0  0  0  0
 32 33  2  0  0  0  0
 32 31  1  0  0  0  0
 33 34  1  0  0  0  0
 34 26  1  0  0  0  0
 34 29  2  0  0  0  0
M  END
>  <minimizedAffinity>
-5.64163208

$$$$
