
 OpenBabel11232419353D

 35 39  0  0  1  0  0  0  0  0999 V2000
   58.6490  -39.9110   18.3390 O   0  0  0  0  0  0  0  0  0  0  0  0
   62.3470  -40.0320   17.9390 C   0  0  0  0  0  0  0  0  0  0  0  0
   62.5970  -38.8300   18.5950 C   0  0  0  0  0  3  0  0  0  0  0  0
   61.6330  -38.0600   19.1480 N   0  0  0  0  0  0  0  0  0  0  0  0
   60.3640  -38.5100   19.0610 C   0  0  0  0  0  3  0  0  0  0  0  0
   59.9910  -39.6830   18.4130 C   0  0  0  0  0  0  0  0  0  0  0  0
   61.0090  -40.4580   17.8640 C   0  0  0  0  0  3  0  0  0  0  0  0
   64.5530  -41.3010   12.7500 C   0  0  0  0  0  1  0  0  0  0  0  0
   65.0770  -41.8460   14.0260 C   0  0  0  0  0  0  0  0  0  0  0  0
   66.1080  -42.6970   14.0200 N   0  0  0  0  0  0  0  0  0  0  0  0
   66.3190  -42.9630   15.3210 N   0  0  0  0  0  0  0  0  0  0  0  0
   65.4450  -42.3330   16.1680 C   0  0  0  0  0  0  0  0  0  0  0  0
   65.3230  -42.3500   17.5580 C   0  0  0  0  0  3  0  0  0  0  0  0
   64.2980  -41.5770   18.1190 C   0  0  0  0  0  3  0  0  0  0  0  0
   63.4250  -40.8140   17.3270 C   0  0  0  0  0  0  0  0  0  0  0  0
   63.5910  -40.8140   15.9270 C   0  0  0  0  0  3  0  0  0  0  0  0
   64.6120  -41.5890   15.3440 C   0  0  0  0  0  0  0  0  0  0  0  0
   67.0800  -43.5880   15.5650 H   0  0  0  0  0  0  0  0  0  0  0  0
   58.0190  -40.8460   19.2210 C   0  0  0  0  0  2  0  0  0  0  0  0
   58.4370  -42.2860   18.8530 C   0  0  1  0  0  3  0  0  0  0  0  0
   58.1580  -43.2120   20.0080 N   0  0  0  0  0  4  0  0  0  0  0  0
   57.1590  -43.2770   20.2390 H   0  0  0  0  0  0  0  0  0  0  0  0
   58.5110  -44.1600   19.8270 H   0  0  0  0  0  0  0  0  0  0  0  0
   58.6470  -42.8690   20.8490 H   0  0  0  0  0  0  0  0  0  0  0  0
   57.7150  -42.8150   17.6050 C   0  0  0  0  0  2  0  0  0  0  0  0
   58.6110  -42.8540   16.4140 C   0  0  0  0  0  0  0  0  0  0  0  0
   58.3240  -42.3200   15.1720 C   0  0  0  0  0  3  0  0  0  0  0  0
   59.3910  -42.5530   14.3450 N   0  0  0  0  0  0  0  0  0  0  0  0
   60.3700  -43.2400   15.0220 C   0  0  0  0  0  0  0  0  0  0  0  0
   61.6180  -43.6890   14.5740 C   0  0  0  0  0  3  0  0  0  0  0  0
   62.4330  -44.3550   15.4910 C   0  0  0  0  0  3  0  0  0  0  0  0
   62.0160  -44.5590   16.8030 C   0  0  0  0  0  3  0  0  0  0  0  0
   60.7650  -44.1040   17.2360 C   0  0  0  0  0  3  0  0  0  0  0  0
   59.9180  -43.4330   16.3270 C   0  0  0  0  0  0  0  0  0  0  0  0
   59.4630  -42.2600   13.3790 H   0  0  0  0  0  0  0  0  0  0  0  0
  1  6  1  0  0  0  0
  1 19  1  0  0  0  0
  2  3  1  0  0  0  0
  3  4  2  0  0  0  0
  5  4  1  0  0  0  0
  6  5  2  0  0  0  0
  7  2  2  0  0  0  0
  7  6  1  0  0  0  0
  8  9  1  0  0  0  0
  9 17  1  0  0  0  0
 10  9  2  0  0  0  0
 10 11  1  0  0  0  0
 11 18  1  0  0  0  0
 11 12  1  0  0  0  0
 12 13  1  0  0  0  0
 13 14  2  0  0  0  0
 15  2  1  0  0  0  0
 15 14  1  0  0  0  0
 16 15  2  0  0  0  0
 17 16  1  0  0  0  0
 17 12  2  0  0  0  0
 20 25  1  6  0  0  0
 20 19  1  0  0  0  0
 20 21  1  0  0  0  0
 21 22  1  0  0  0  0
 21 24  1  0  0  0  0
 23 21  1  0  0  0  0
 26 25  1  0  0  0  0
 27 26  2  0  0  0  0
 28 29  1  0  0  0  0
 28 27  1  0  0  0  0
 29 34  1  0  0  0  0
 30 29  2  0  0  0  0
 30 31  1  0  0  0  0
 31 32  2  0  0  0  0
 32 33  1  0  0  0  0
 34 26  1  0  0  0  0
 34 33  2  0  0  0  0
 35 28  1  0  0  0  0
M  END
>  <minimizedAffinity>
-5.32504797

$$$$
