
 OpenBabel11232419353D

 35 39  0  0  1  0  0  0  0  0999 V2000
   56.4380  -42.4370   15.6370 O   0  0  0  0  0  0  0  0  0  0  0  0
   60.0820  -43.0280   16.1090 C   0  0  0  0  0  0  0  0  0  0  0  0
   59.9420  -44.2660   16.7300 C   0  0  0  0  0  3  0  0  0  0  0  0
   58.7520  -44.8690   16.9480 N   0  0  0  0  0  0  0  0  0  0  0  0
   57.6490  -44.2220   16.5150 C   0  0  0  0  0  3  0  0  0  0  0  0
   57.6630  -42.9740   15.9030 C   0  0  0  0  0  0  0  0  0  0  0  0
   58.9050  -42.3860   15.6830 C   0  0  0  0  0  3  0  0  0  0  0  0
   65.6830  -44.0170   17.1280 C   0  0  0  0  0  1  0  0  0  0  0  0
   65.1640  -42.7790   16.4980 C   0  0  0  0  0  0  0  0  0  0  0  0
   66.0060  -41.8010   16.1450 N   0  0  0  0  0  0  0  0  0  0  0  0
   65.2090  -40.8650   15.6030 N   0  0  0  0  0  0  0  0  0  0  0  0
   63.8780  -41.1900   15.6150 C   0  0  0  0  0  0  0  0  0  0  0  0
   62.7490  -40.5030   15.1650 C   0  0  0  0  0  3  0  0  0  0  0  0
   61.5080  -41.1340   15.3320 C   0  0  0  0  0  3  0  0  0  0  0  0
   61.3940  -42.4020   15.9260 C   0  0  0  0  0  0  0  0  0  0  0  0
   62.5600  -43.0670   16.3540 C   0  0  0  0  0  3  0  0  0  0  0  0
   63.8160  -42.4480   16.1990 C   0  0  0  0  0  0  0  0  0  0  0  0
   65.6380  -40.0190   15.2430 H   0  0  0  0  0  0  0  0  0  0  0  0
   55.4580  -42.3090   16.6730 C   0  0  0  0  0  2  0  0  0  0  0  0
   55.4610  -40.8680   17.2290 C   0  0  1  0  0  3  0  0  0  0  0  0
   54.1390  -40.2060   16.9420 N   0  0  0  0  0  4  0  0  0  0  0  0
   53.3480  -40.6680   17.4080 H   0  0  0  0  0  0  0  0  0  0  0  0
   54.1440  -39.2150   17.2190 H   0  0  0  0  0  0  0  0  0  0  0  0
   53.9550  -40.2300   15.9270 H   0  0  0  0  0  0  0  0  0  0  0  0
   55.7280  -40.8130   18.7400 C   0  0  0  0  0  2  0  0  0  0  0  0
   57.0320  -41.4410   19.1010 C   0  0  0  0  0  0  0  0  0  0  0  0
   57.1980  -42.7050   19.6320 C   0  0  0  0  0  3  0  0  0  0  0  0
   58.5370  -42.9200   19.8250 N   0  0  0  0  0  0  0  0  0  0  0  0
   59.2520  -41.8130   19.4380 C   0  0  0  0  0  0  0  0  0  0  0  0
   60.6340  -41.5890   19.4610 C   0  0  0  0  0  3  0  0  0  0  0  0
   61.0980  -40.3620   18.9850 C   0  0  0  0  0  3  0  0  0  0  0  0
   60.2160  -39.4010   18.5010 C   0  0  0  0  0  3  0  0  0  0  0  0
   58.8360  -39.6400   18.4830 C   0  0  0  0  0  3  0  0  0  0  0  0
   58.3390  -40.8700   18.9650 C   0  0  0  0  0  0  0  0  0  0  0  0
   58.9510  -43.7690   20.1900 H   0  0  0  0  0  0  0  0  0  0  0  0
  1  6  1  0  0  0  0
  1 19  1  0  0  0  0
  2  3  1  0  0  0  0
  3  4  2  0  0  0  0
  5  4  1  0  0  0  0
  6  5  2  0  0  0  0
  7  6  1  0  0  0  0
  7  2  2  0  0  0  0
  9  8  1  0  0  0  0
 10  9  2  0  0  0  0
 11 12  1  0  0  0  0
 11 10  1  0  0  0  0
 12 17  1  0  0  0  0
 13 14  1  0  0  0  0
 13 12  2  0  0  0  0
 14 15  2  0  0  0  0
 15  2  1  0  0  0  0
 15 16  1  0  0  0  0
 17 16  2  0  0  0  0
 17  9  1  0  0  0  0
 18 11  1  0  0  0  0
 20 19  1  1  0  0  0
 20 25  1  0  0  0  0
 21 23  1  0  0  0  0
 21 20  1  0  0  0  0
 21 22  1  0  0  0  0
 24 21  1  0  0  0  0
 25 26  1  0  0  0  0
 26 27  2  0  0  0  0
 27 28  1  0  0  0  0
 28 35  1  0  0  0  0
 29 30  1  0  0  0  0
 29 28  1  0  0  0  0
 31 30  2  0  0  0  0
 32 31  1  0  0  0  0
 33 32  2  0  0  0  0
 33 34  1  0  0  0  0
 34 26  1  0  0  0  0
 34 29  2  0  0  0  0
M  END
>  <minimizedAffinity>
-5.43399429

$$$$
