
 OpenBabel11232419353D

 35 39  0  0  1  0  0  0  0  0999 V2000
   63.4610  -41.0770   18.6330 O   0  0  0  0  0  0  0  0  0  0  0  0
   59.8930  -40.0480   18.8900 C   0  0  0  0  0  0  0  0  0  0  0  0
   60.1530  -38.6900   19.0530 C   0  0  0  0  0  3  0  0  0  0  0  0
   61.3940  -38.1540   19.0500 N   0  0  0  0  0  0  0  0  0  0  0  0
   62.4270  -39.0020   18.8580 C   0  0  0  0  0  3  0  0  0  0  0  0
   62.2930  -40.3780   18.7050 C   0  0  0  0  0  0  0  0  0  0  0  0
   61.0000  -40.8960   18.7030 C   0  0  0  0  0  3  0  0  0  0  0  0
   56.9800  -44.7050   20.6840 C   0  0  0  0  0  1  0  0  0  0  0  0
   56.3510  -43.5500   19.9990 C   0  0  0  0  0  0  0  0  0  0  0  0
   55.0370  -43.5530   19.7470 N   0  0  0  0  0  0  0  0  0  0  0  0
   54.8180  -42.3700   19.1470 N   0  0  0  0  0  0  0  0  0  0  0  0
   55.9470  -41.6120   18.9790 C   0  0  0  0  0  0  0  0  0  0  0  0
   56.1450  -40.3540   18.4070 C   0  0  0  0  0  3  0  0  0  0  0  0
   57.4560  -39.8560   18.3970 C   0  0  0  0  0  3  0  0  0  0  0  0
   58.5300  -40.5830   18.9350 C   0  0  0  0  0  0  0  0  0  0  0  0
   58.2840  -41.8430   19.5150 C   0  0  0  0  0  3  0  0  0  0  0  0
   56.9750  -42.3630   19.5310 C   0  0  0  0  0  0  0  0  0  0  0  0
   53.8690  -42.1400   18.8720 H   0  0  0  0  0  0  0  0  0  0  0  0
   64.2630  -41.0350   17.4480 C   0  0  0  0  0  2  0  0  0  0  0  0
   63.3620  -41.0990   16.1960 C   0  0  1  0  0  3  0  0  0  0  0  0
   63.8770  -40.1520   15.1440 N   0  0  0  0  0  4  0  0  0  0  0  0
   64.8160  -40.3960   14.8080 H   0  0  0  0  0  0  0  0  0  0  0  0
   63.2450  -40.1040   14.3350 H   0  0  0  0  0  0  0  0  0  0  0  0
   63.9290  -39.1990   15.5360 H   0  0  0  0  0  0  0  0  0  0  0  0
   63.2760  -42.5100   15.5950 C   0  0  0  0  0  2  0  0  0  0  0  0
   62.2040  -43.3260   16.2350 C   0  0  0  0  0  0  0  0  0  0  0  0
   62.4050  -44.3880   17.0950 C   0  0  0  0  0  3  0  0  0  0  0  0
   61.1810  -44.8770   17.4700 N   0  0  0  0  0  0  0  0  0  0  0  0
   60.1800  -44.1590   16.8620 C   0  0  0  0  0  0  0  0  0  0  0  0
   58.7920  -44.3090   16.9520 C   0  0  0  0  0  3  0  0  0  0  0  0
   57.9960  -43.4170   16.2310 C   0  0  0  0  0  3  0  0  0  0  0  0
   58.5690  -42.4130   15.4560 C   0  0  0  0  0  3  0  0  0  0  0  0
   59.9600  -42.2750   15.3760 C   0  0  0  0  0  3  0  0  0  0  0  0
   60.7870  -43.1680   16.0900 C   0  0  0  0  0  0  0  0  0  0  0  0
   61.0250  -45.6480   18.1080 H   0  0  0  0  0  0  0  0  0  0  0  0
  1  6  1  0  0  0  0
  2 15  1  0  0  0  0
  2  3  1  0  0  0  0
  4  3  2  0  0  0  0
  5  4  1  0  0  0  0
  6  5  2  0  0  0  0
  7  6  1  0  0  0  0
  7  2  2  0  0  0  0
  9  8  1  0  0  0  0
 10  9  2  0  0  0  0
 11 10  1  0  0  0  0
 12 11  1  0  0  0  0
 12 17  1  0  0  0  0
 13 12  2  0  0  0  0
 14 13  1  0  0  0  0
 14 15  2  0  0  0  0
 15 16  1  0  0  0  0
 16 17  2  0  0  0  0
 17  9  1  0  0  0  0
 18 11  1  0  0  0  0
 19  1  1  0  0  0  0
 20 25  1  6  0  0  0
 20 19  1  0  0  0  0
 21 24  1  0  0  0  0
 21 20  1  0  0  0  0
 22 21  1  0  0  0  0
 23 21  1  0  0  0  0
 25 26  1  0  0  0  0
 26 27  2  0  0  0  0
 27 28  1  0  0  0  0
 28 35  1  0  0  0  0
 29 30  1  0  0  0  0
 29 28  1  0  0  0  0
 31 30  2  0  0  0  0
 32 31  1  0  0  0  0
 33 32  2  0  0  0  0
 33 34  1  0  0  0  0
 34 26  1  0  0  0  0
 34 29  2  0  0  0  0
M  END
>  <minimizedAffinity>
-5.51054764

$$$$
