
 OpenBabel11232419353D

 35 39  0  0  1  0  0  0  0  0999 V2000
   63.9990  -40.5540   18.8380 O   0  0  0  0  0  0  0  0  0  0  0  0
   60.3100  -40.0670   18.8980 C   0  0  0  0  0  0  0  0  0  0  0  0
   60.3550  -38.6780   18.9840 C   0  0  0  0  0  3  0  0  0  0  0  0
   61.5010  -37.9610   18.9900 N   0  0  0  0  0  0  0  0  0  0  0  0
   62.6570  -38.6510   18.8910 C   0  0  0  0  0  3  0  0  0  0  0  0
   62.7370  -40.0380   18.8230 C   0  0  0  0  0  0  0  0  0  0  0  0
   61.5390  -40.7460   18.8060 C   0  0  0  0  0  3  0  0  0  0  0  0
   54.7060  -39.3450   17.6860 C   0  0  0  0  0  1  0  0  0  0  0  0
   55.2780  -40.5980   18.2370 C   0  0  0  0  0  0  0  0  0  0  0  0
   54.4820  -41.6410   18.4990 N   0  0  0  0  0  0  0  0  0  0  0  0
   55.3220  -42.5840   18.9580 N   0  0  0  0  0  0  0  0  0  0  0  0
   56.6300  -42.1810   19.0260 C   0  0  0  0  0  0  0  0  0  0  0  0
   57.7860  -42.8430   19.4450 C   0  0  0  0  0  3  0  0  0  0  0  0
   58.9890  -42.1260   19.3860 C   0  0  0  0  0  3  0  0  0  0  0  0
   59.0410  -40.8000   18.9280 C   0  0  0  0  0  0  0  0  0  0  0  0
   57.8530  -40.1730   18.5010 C   0  0  0  0  0  3  0  0  0  0  0  0
   56.6330  -40.8750   18.5580 C   0  0  0  0  0  0  0  0  0  0  0  0
   54.9360  -43.4870   19.2120 H   0  0  0  0  0  0  0  0  0  0  0  0
   64.2220  -41.9430   18.5710 C   0  0  0  0  0  2  0  0  0  0  0  0
   65.0660  -42.1060   17.2880 C   0  0  1  0  0  3  0  0  0  0  0  0
   66.3870  -42.7480   17.6210 N   0  0  0  0  0  4  0  0  0  0  0  0
   66.2890  -43.6990   17.9970 H   0  0  0  0  0  0  0  0  0  0  0  0
   67.0070  -42.7860   16.8020 H   0  0  0  0  0  0  0  0  0  0  0  0
   66.8730  -42.1840   18.3350 H   0  0  0  0  0  0  0  0  0  0  0  0
   64.3600  -42.9480   16.2150 C   0  0  0  0  0  2  0  0  0  0  0  0
   63.1020  -42.3060   15.7370 C   0  0  0  0  0  0  0  0  0  0  0  0
   63.0190  -41.1140   15.0430 C   0  0  0  0  0  3  0  0  0  0  0  0
   61.6990  -40.8580   14.7800 N   0  0  0  0  0  0  0  0  0  0  0  0
   60.9130  -41.8580   15.2990 C   0  0  0  0  0  0  0  0  0  0  0  0
   59.5220  -42.0060   15.2710 C   0  0  0  0  0  3  0  0  0  0  0  0
   58.9800  -43.1440   15.8680 C   0  0  0  0  0  3  0  0  0  0  0  0
   59.7980  -44.0980   16.4660 C   0  0  0  0  0  3  0  0  0  0  0  0
   61.1900  -43.9360   16.4860 C   0  0  0  0  0  3  0  0  0  0  0  0
   61.7630  -42.7900   15.8950 C   0  0  0  0  0  0  0  0  0  0  0  0
   61.3440  -40.0570   14.2720 H   0  0  0  0  0  0  0  0  0  0  0  0
  2 15  1  0  0  0  0
  2  3  1  0  0  0  0
  3  4  2  0  0  0  0
  5  4  1  0  0  0  0
  6  1  1  0  0  0  0
  6  5  2  0  0  0  0
  7  6  1  0  0  0  0
  7  2  2  0  0  0  0
  8  9  1  0  0  0  0
  9 10  2  0  0  0  0
  9 17  1  0  0  0  0
 10 11  1  0  0  0  0
 11 12  1  0  0  0  0
 11 18  1  0  0  0  0
 12 13  1  0  0  0  0
 14 13  2  0  0  0  0
 15 14  1  0  0  0  0
 16 17  1  0  0  0  0
 16 15  2  0  0  0  0
 17 12  2  0  0  0  0
 19  1  1  0  0  0  0
 20 25  1  6  0  0  0
 20 21  1  0  0  0  0
 20 19  1  0  0  0  0
 21 22  1  0  0  0  0
 21 24  1  0  0  0  0
 23 21  1  0  0  0  0
 26 34  1  0  0  0  0
 26 25  1  0  0  0  0
 27 26  2  0  0  0  0
 28 27  1  0  0  0  0
 28 29  1  0  0  0  0
 29 34  1  0  0  0  0
 30 29  2  0  0  0  0
 30 31  1  0  0  0  0
 31 32  2  0  0  0  0
 32 33  1  0  0  0  0
 34 33  2  0  0  0  0
 35 28  1  0  0  0  0
M  END
>  <minimizedAffinity>
-6.09563017

$$$$
