
 OpenBabel11232420513D

 41 46  0  0  1  0  0  0  0  0999 V2000
  -19.6660   20.7630   10.9710 C   0  0  0  0  0  0  0  0  0  0  0  0
  -20.3510   20.1990   12.0370 N   0  0  0  0  0  0  0  0  0  0  0  0
  -20.3990   18.9100   11.7970 C   0  0  0  0  0  0  0  0  0  0  0  0
  -19.7880   18.6160   10.6140 N   0  0  0  0  0  0  0  0  0  0  0  0
  -19.2840   19.7740   10.0670 C   0  0  0  0  0  0  0  0  0  0  0  0
  -19.6060   17.2480   10.1640 C   0  0  0  0  0  2  0  0  0  0  0  0
  -20.5570   16.3180   10.7270 O   0  0  0  0  0  0  0  0  0  0  0  0
  -20.9880   16.5610   12.0070 C   0  0  0  0  0  0  0  0  0  0  0  0
  -21.5350   15.4810   12.7030 C   0  0  0  0  0  3  0  0  0  0  0  0
  -22.0220   15.6680   14.0020 C   0  0  0  0  0  0  0  0  0  0  0  0
  -21.9930   16.9490   14.5760 C   0  0  0  0  0  3  0  0  0  0  0  0
  -21.4620   18.0310   13.8680 C   0  0  0  0  0  3  0  0  0  0  0  0
  -20.9560   17.8350   12.5840 C   0  0  0  0  0  0  0  0  0  0  0  0
  -19.1020   25.0770   10.8950 C   0  0  0  0  0  0  0  0  0  0  0  0
  -20.0160   24.4000   10.0590 C   0  0  0  0  0  3  0  0  0  0  0  0
  -20.1740   23.0080   10.0920 C   0  0  0  0  0  3  0  0  0  0  0  0
  -19.4070   22.2030   10.9440 C   0  0  0  0  0  0  0  0  0  0  0  0
  -18.4560   22.8450   11.7340 C   0  0  0  0  0  3  0  0  0  0  0  0
  -18.3120   24.2430   11.7090 C   0  0  0  0  0  3  0  0  0  0  0  0
  -16.2850   28.8580   11.0930 C   0  0  0  0  0  1  0  0  0  0  0  0
  -17.0110   27.5230   11.0490 C   0  0  1  0  0  0  0  0  0  0  0  0
  -18.2080   27.4220   12.0320 C   0  0  0  0  0  2  0  0  0  0  0  0
  -18.9970   26.6730   10.9150 C   0  0  1  0  0  0  0  0  0  0  0  0
  -18.0380   27.3540    9.8940 C   0  0  0  0  0  2  0  0  0  0  0  0
  -20.3810   27.2090   10.8320 N   0  0  0  0  0  4  0  0  0  0  0  0
  -20.8230   26.9810    9.9330 H   0  0  0  0  0  0  0  0  0  0  0  0
  -20.9720   26.7860   11.5620 H   0  0  0  0  0  0  0  0  0  0  0  0
  -20.4310   28.2280   10.9480 H   0  0  0  0  0  0  0  0  0  0  0  0
  -16.0650   26.4470   11.1810 O   0  0  0  0  0  0  0  0  0  0  0  0
  -15.3630   26.6040   10.5220 H   0  0  0  0  0  0  0  0  0  0  0  0
  -18.5190   19.7790    8.8300 C   0  0  0  0  0  0  0  0  0  0  0  0
  -17.5710   18.7810    8.5800 C   0  0  0  0  0  3  0  0  0  0  0  0
  -16.8250   18.8050    7.4020 C   0  0  0  0  0  3  0  0  0  0  0  0
  -17.0240   19.8210    6.4680 C   0  0  0  0  0  3  0  0  0  0  0  0
  -17.9680   20.8190    6.7120 C   0  0  0  0  0  3  0  0  0  0  0  0
  -18.7110   20.8010    7.8920 C   0  0  0  0  0  3  0  0  0  0  0  0
  -22.6010   14.5590   14.8070 C   0  0  0  0  0  0  0  0  0  0  0  0
  -21.7400   13.7000   15.4290 N   0  0  0  0  0  0  0  0  0  0  0  0
  -23.8120   14.4320   14.9380 O   0  0  0  0  0  0  0  0  0  0  0  0
  -22.1530   12.9580   15.9800 H   0  0  0  0  0  0  0  0  0  0  0  0
  -20.7350   13.7900   15.4370 H   0  0  0  0  0  0  0  0  0  0  0  0
  1  2  1  0  0  0  0
  3  2  2  0  0  0  0
  3 13  1  0  0  0  0
  4  3  1  0  0  0  0
  5  4  1  0  0  0  0
  5  1  2  0  0  0  0
  6  4  1  0  0  0  0
  6  7  1  0  0  0  0
  7  8  1  0  0  0  0
  8 13  2  0  0  0  0
  8  9  1  0  0  0  0
  9 10  2  0  0  0  0
 10 11  1  0  0  0  0
 10 37  1  0  0  0  0
 12 11  2  0  0  0  0
 13 12  1  0  0  0  0
 14 23  1  0  0  0  0
 14 19  1  0  0  0  0
 15 16  1  0  0  0  0
 15 14  2  0  0  0  0
 16 17  2  0  0  0  0
 17  1  1  0  0  0  0
 17 18  1  0  0  0  0
 19 18  2  0  0  0  0
 21 20  1  1  0  0  0
 21 29  1  0  0  0  0
 21 22  1  0  0  0  0
 23 25  1  6  0  0  0
 23 22  1  0  0  0  0
 24 23  1  0  0  0  0
 24 21  1  0  0  0  0
 25 28  1  0  0  0  0
 25 27  1  0  0  0  0
 26 25  1  0  0  0  0
 30 29  1  0  0  0  0
 31  5  1  0  0  0  0
 32 31  1  0  0  0  0
 33 32  2  0  0  0  0
 34 35  2  0  0  0  0
 34 33  1  0  0  0  0
 35 36  1  0  0  0  0
 36 31  2  0  0  0  0
 37 39  2  0  0  0  0
 37 38  1  0  0  0  0
 38 41  1  0  0  0  0
 38 40  1  0  0  0  0
M  END
>  <minimizedAffinity>
-11.9313841

$$$$
