
 OpenBabel11232420513D

 41 46  0  0  1  0  0  0  0  0999 V2000
  -19.3710   24.9560   11.1970 C   0  0  0  0  0  0  0  0  0  0  0  0
  -20.2700   24.0730   11.7790 N   0  0  0  0  0  0  0  0  0  0  0  0
  -19.8240   22.8690   11.5080 C   0  0  0  0  0  0  0  0  0  0  0  0
  -18.6840   22.9320   10.7630 N   0  0  0  0  0  0  0  0  0  0  0  0
  -18.3480   24.2520   10.5650 C   0  0  0  0  0  0  0  0  0  0  0  0
  -17.9260   21.7430   10.4180 C   0  0  0  0  0  2  0  0  0  0  0  0
  -18.7110   20.5310   10.4210 O   0  0  0  0  0  0  0  0  0  0  0  0
  -19.7300   20.4450   11.3360 C   0  0  0  0  0  0  0  0  0  0  0  0
  -20.1920   19.1650   11.6460 C   0  0  0  0  0  3  0  0  0  0  0  0
  -21.2510   19.0110   12.5490 C   0  0  0  0  0  0  0  0  0  0  0  0
  -21.8630   20.1470   13.1020 C   0  0  0  0  0  3  0  0  0  0  0  0
  -21.4090   21.4270   12.7740 C   0  0  0  0  0  3  0  0  0  0  0  0
  -20.3380   21.5760   11.8930 C   0  0  0  0  0  0  0  0  0  0  0  0
  -19.7300   29.2710   11.6170 C   0  0  0  0  0  0  0  0  0  0  0  0
  -18.8280   28.4910   12.3730 C   0  0  0  0  0  3  0  0  0  0  0  0
  -18.7370   27.1000   12.2300 C   0  0  0  0  0  3  0  0  0  0  0  0
  -19.5610   26.3990   11.3410 C   0  0  0  0  0  0  0  0  0  0  0  0
  -20.5000   27.1420   10.6290 C   0  0  0  0  0  3  0  0  0  0  0  0
  -20.5790   28.5380   10.7650 C   0  0  0  0  0  3  0  0  0  0  0  0
  -17.4960   33.3400   10.7650 C   0  0  0  0  0  1  0  0  0  0  0  0
  -18.0390   31.9340   10.9590 C   0  0  1  0  0  0  0  0  0  0  0  0
  -18.5940   31.6610   12.3830 C   0  0  0  0  0  2  0  0  0  0  0  0
  -19.7610   30.8670   11.7210 C   0  0  1  0  0  0  0  0  0  0  0  0
  -19.4790   31.6890   10.4280 C   0  0  0  0  0  2  0  0  0  0  0  0
  -21.0500   31.2440   12.3580 N   0  0  0  0  0  4  0  0  0  0  0  0
  -21.8530   30.9980   11.7640 H   0  0  0  0  0  0  0  0  0  0  0  0
  -21.1750   30.7300   13.2410 H   0  0  0  0  0  0  0  0  0  0  0  0
  -21.1220   32.2460   12.5700 H   0  0  0  0  0  0  0  0  0  0  0  0
  -17.0620   30.9690   10.5290 O   0  0  0  0  0  0  0  0  0  0  0  0
  -16.7840   31.2280    9.6300 H   0  0  0  0  0  0  0  0  0  0  0  0
  -17.1400   24.6480    9.8560 C   0  0  0  0  0  0  0  0  0  0  0  0
  -16.4130   25.7680   10.2710 C   0  0  0  0  0  3  0  0  0  0  0  0
  -15.2680   26.1560    9.5740 C   0  0  0  0  0  3  0  0  0  0  0  0
  -14.8450   25.4260    8.4640 C   0  0  0  0  0  3  0  0  0  0  0  0
  -15.5660   24.3090    8.0460 C   0  0  0  0  0  3  0  0  0  0  0  0
  -16.7150   23.9220    8.7370 C   0  0  0  0  0  3  0  0  0  0  0  0
  -21.7820   17.6770   12.9380 C   0  0  0  0  0  0  0  0  0  0  0  0
  -21.1990   16.5690   12.3910 N   0  0  0  0  0  0  0  0  0  0  0  0
  -22.6940   17.5650   13.7480 O   0  0  0  0  0  0  0  0  0  0  0  0
  -21.5670   15.6700   12.6760 H   0  0  0  0  0  0  0  0  0  0  0  0
  -20.3920   16.5780   11.7860 H   0  0  0  0  0  0  0  0  0  0  0  0
  1 17  1  0  0  0  0
  1  2  1  0  0  0  0
  3  2  2  0  0  0  0
  3 13  1  0  0  0  0
  4  3  1  0  0  0  0
  5  4  1  0  0  0  0
  5  1  2  0  0  0  0
  6  7  1  0  0  0  0
  6  4  1  0  0  0  0
  7  8  1  0  0  0  0
  8  9  2  0  0  0  0
  8 13  1  0  0  0  0
  9 10  1  0  0  0  0
 10 37  1  0  0  0  0
 10 11  2  0  0  0  0
 12 11  1  0  0  0  0
 13 12  2  0  0  0  0
 14 23  1  0  0  0  0
 14 15  1  0  0  0  0
 16 15  2  0  0  0  0
 17 16  1  0  0  0  0
 18 19  1  0  0  0  0
 18 17  2  0  0  0  0
 19 14  2  0  0  0  0
 21 20  1  6  0  0  0
 21 22  1  0  0  0  0
 23 25  1  1  0  0  0
 23 22  1  0  0  0  0
 24 21  1  0  0  0  0
 24 23  1  0  0  0  0
 25 28  1  0  0  0  0
 25 27  1  0  0  0  0
 26 25  1  0  0  0  0
 29 21  1  0  0  0  0
 30 29  1  0  0  0  0
 31 32  1  0  0  0  0
 31  5  1  0  0  0  0
 33 32  2  0  0  0  0
 34 33  1  0  0  0  0
 35 34  2  0  0  0  0
 35 36  1  0  0  0  0
 36 31  2  0  0  0  0
 37 39  2  0  0  0  0
 38 40  1  0  0  0  0
 38 37  1  0  0  0  0
 41 38  1  0  0  0  0
M  END
>  <minimizedAffinity>
-10.2744627

$$$$
