
 OpenBabel11232420513D

 41 46  0  0  1  0  0  0  0  0999 V2000
  -19.3580   20.9360   10.7520 C   0  0  0  0  0  0  0  0  0  0  0  0
  -20.0380   20.4170   11.8440 N   0  0  0  0  0  0  0  0  0  0  0  0
  -20.1510   19.1280   11.6220 C   0  0  0  0  0  0  0  0  0  0  0  0
  -19.5880   18.7920   10.4270 N   0  0  0  0  0  0  0  0  0  0  0  0
  -19.0470   19.9190    9.8510 C   0  0  0  0  0  0  0  0  0  0  0  0
  -19.4810   17.4120    9.9900 C   0  0  0  0  0  2  0  0  0  0  0  0
  -20.4570   16.5330   10.5930 O   0  0  0  0  0  0  0  0  0  0  0  0
  -20.8410   16.8110   11.8800 C   0  0  0  0  0  0  0  0  0  0  0  0
  -21.4170   15.7660   12.6050 C   0  0  0  0  0  3  0  0  0  0  0  0
  -21.8580   15.9920   13.9140 C   0  0  0  0  0  0  0  0  0  0  0  0
  -21.7540   17.2770   14.4700 C   0  0  0  0  0  3  0  0  0  0  0  0
  -21.1950   18.3250   13.7340 C   0  0  0  0  0  3  0  0  0  0  0  0
  -20.7340   18.0900   12.4390 C   0  0  0  0  0  0  0  0  0  0  0  0
  -18.5920   25.2180   10.6530 C   0  0  0  0  0  0  0  0  0  0  0  0
  -19.7330   24.6210   10.0740 C   0  0  0  0  0  3  0  0  0  0  0  0
  -19.9540   23.2370   10.1080 C   0  0  0  0  0  3  0  0  0  0  0  0
  -19.0350   22.3620   10.6980 C   0  0  0  0  0  0  0  0  0  0  0  0
  -17.8720   22.9230   11.2220 C   0  0  0  0  0  3  0  0  0  0  0  0
  -17.6610   24.3130   11.1990 C   0  0  0  0  0  3  0  0  0  0  0  0
  -20.1100   29.3580   12.3310 C   0  0  0  0  0  1  0  0  0  0  0  0
  -19.7880   27.9380   11.8980 C   0  0  1  0  0  0  0  0  0  0  0  0
  -19.5700   27.7770   10.3700 C   0  0  0  0  0  2  0  0  0  0  0  0
  -18.3940   26.8050   10.6910 C   0  0  1  0  0  0  0  0  0  0  0  0
  -18.3090   27.4970   12.0840 C   0  0  0  0  0  2  0  0  0  0  0  0
  -17.2260   27.1260    9.8300 N   0  0  0  0  0  4  0  0  0  0  0  0
  -16.3550   26.7390   10.2130 H   0  0  0  0  0  0  0  0  0  0  0  0
  -17.3450   26.7070    8.8970 H   0  0  0  0  0  0  0  0  0  0  0  0
  -17.0810   28.1340    9.7000 H   0  0  0  0  0  0  0  0  0  0  0  0
  -20.7640   27.0280   12.4380 O   0  0  0  0  0  0  0  0  0  0  0  0
  -20.8220   27.2090   13.3950 H   0  0  0  0  0  0  0  0  0  0  0  0
  -18.3180   19.8740    8.5930 C   0  0  0  0  0  0  0  0  0  0  0  0
  -17.3640   18.8770    8.3650 C   0  0  0  0  0  3  0  0  0  0  0  0
  -16.6520   18.8520    7.1650 C   0  0  0  0  0  3  0  0  0  0  0  0
  -16.8910   19.8200    6.1900 C   0  0  0  0  0  3  0  0  0  0  0  0
  -17.8400   20.8170    6.4130 C   0  0  0  0  0  3  0  0  0  0  0  0
  -18.5500   20.8470    7.6140 C   0  0  0  0  0  3  0  0  0  0  0  0
  -22.4640   14.9200   14.7490 C   0  0  0  0  0  0  0  0  0  0  0  0
  -21.7770   13.7470   14.8870 N   0  0  0  0  0  0  0  0  0  0  0  0
  -23.5310   15.0880   15.3260 O   0  0  0  0  0  0  0  0  0  0  0  0
  -22.2020   13.0340   15.4680 H   0  0  0  0  0  0  0  0  0  0  0  0
  -20.8570   13.5670   14.5150 H   0  0  0  0  0  0  0  0  0  0  0  0
  1  2  1  0  0  0  0
  3  2  2  0  0  0  0
  3 13  1  0  0  0  0
  4  3  1  0  0  0  0
  5  4  1  0  0  0  0
  5  1  2  0  0  0  0
  6  4  1  0  0  0  0
  6  7  1  0  0  0  0
  7  8  1  0  0  0  0
  8 13  2  0  0  0  0
  8  9  1  0  0  0  0
  9 10  2  0  0  0  0
 10 11  1  0  0  0  0
 10 37  1  0  0  0  0
 12 11  2  0  0  0  0
 13 12  1  0  0  0  0
 14 23  1  0  0  0  0
 14 19  1  0  0  0  0
 15 16  1  0  0  0  0
 15 14  2  0  0  0  0
 16 17  2  0  0  0  0
 17  1  1  0  0  0  0
 17 18  1  0  0  0  0
 19 18  2  0  0  0  0
 21 24  1  0  0  0  0
 21 20  1  1  0  0  0
 21 29  1  0  0  0  0
 22 23  1  0  0  0  0
 22 21  1  0  0  0  0
 23 25  1  6  0  0  0
 23 24  1  0  0  0  0
 25 26  1  0  0  0  0
 27 25  1  0  0  0  0
 28 25  1  0  0  0  0
 29 30  1  0  0  0  0
 31  5  1  0  0  0  0
 32 31  1  0  0  0  0
 33 32  2  0  0  0  0
 34 35  2  0  0  0  0
 34 33  1  0  0  0  0
 35 36  1  0  0  0  0
 36 31  2  0  0  0  0
 37 38  1  0  0  0  0
 37 39  2  0  0  0  0
 38 40  1  0  0  0  0
 41 38  1  0  0  0  0
M  END
>  <minimizedAffinity>
-12.8884897

$$$$

 OpenBabel11232420513D

 41 46  0  0  1  0  0  0  0  0999 V2000
  -19.9010   22.7970   11.4040 C   0  0  0  0  0  0  0  0  0  0  0  0
  -20.1840   24.0280   11.9790 N   0  0  0  0  0  0  0  0  0  0  0  0
  -19.5260   24.9180   11.2720 C   0  0  0  0  0  0  0  0  0  0  0  0
  -18.8170   24.3160   10.2760 N   0  0  0  0  0  0  0  0  0  0  0  0
  -19.0510   22.9600   10.3120 C   0  0  0  0  0  0  0  0  0  0  0  0
  -18.0870   25.0820    9.2830 C   0  0  0  0  0  2  0  0  0  0  0  0
  -17.7140   26.4050    9.7270 O   0  0  0  0  0  0  0  0  0  0  0  0
  -18.5740   27.0460   10.5820 C   0  0  0  0  0  0  0  0  0  0  0  0
  -18.4610   28.4350   10.6650 C   0  0  0  0  0  3  0  0  0  0  0  0
  -19.2890   29.1460   11.5420 C   0  0  0  0  0  0  0  0  0  0  0  0
  -20.1950   28.4500   12.3580 C   0  0  0  0  0  3  0  0  0  0  0  0
  -20.2910   27.0580   12.2860 C   0  0  0  0  0  3  0  0  0  0  0  0
  -19.4820   26.3560   11.3930 C   0  0  0  0  0  0  0  0  0  0  0  0
  -21.5450   19.1500   13.1150 C   0  0  0  0  0  0  0  0  0  0  0  0
  -20.2290   19.2460   12.6120 C   0  0  0  0  0  3  0  0  0  0  0  0
  -19.7230   20.4280   12.0550 C   0  0  0  0  0  3  0  0  0  0  0  0
  -20.5110   21.5800   11.9400 C   0  0  0  0  0  0  0  0  0  0  0  0
  -21.8310   21.4890   12.3740 C   0  0  0  0  0  3  0  0  0  0  0  0
  -22.3300   20.3060   12.9460 C   0  0  0  0  0  3  0  0  0  0  0  0
  -21.9330   14.4490   12.9710 C   0  0  0  0  0  1  0  0  0  0  0  0
  -21.7120   15.9450   12.8240 C   0  0  1  0  0  0  0  0  0  0  0  0
  -22.9830   16.8000   13.0780 C   0  0  0  0  0  2  0  0  0  0  0  0
  -22.0810   17.8240   13.8320 C   0  0  1  0  0  0  0  0  0  0  0  0
  -21.0760   16.6550   14.0520 C   0  0  0  0  0  2  0  0  0  0  0  0
  -22.7430   18.2420   15.0960 N   0  0  0  0  0  4  0  0  0  0  0  0
  -22.0730   18.6530   15.7580 H   0  0  0  0  0  0  0  0  0  0  0  0
  -23.4460   18.9700   14.9060 H   0  0  0  0  0  0  0  0  0  0  0  0
  -23.2190   17.4720   15.5800 H   0  0  0  0  0  0  0  0  0  0  0  0
  -21.0740   16.2240   11.5650 O   0  0  0  0  0  0  0  0  0  0  0  0
  -20.2930   15.6420   11.5070 H   0  0  0  0  0  0  0  0  0  0  0  0
  -18.4820   22.0470    9.3330 C   0  0  0  0  0  0  0  0  0  0  0  0
  -19.2210   21.6710    8.2060 C   0  0  0  0  0  3  0  0  0  0  0  0
  -18.6780   20.7770    7.2810 C   0  0  0  0  0  3  0  0  0  0  0  0
  -17.3980   20.2600    7.4770 C   0  0  0  0  0  3  0  0  0  0  0  0
  -16.6580   20.6320    8.5980 C   0  0  0  0  0  3  0  0  0  0  0  0
  -17.2000   21.5200    9.5270 C   0  0  0  0  0  3  0  0  0  0  0  0
  -19.2350   30.6270   11.6680 C   0  0  0  0  0  0  0  0  0  0  0  0
  -20.4110   31.3210   11.6070 N   0  0  0  0  0  0  0  0  0  0  0  0
  -18.1750   31.2130   11.8530 O   0  0  0  0  0  0  0  0  0  0  0  0
  -20.3540   32.3270   11.7050 H   0  0  0  0  0  0  0  0  0  0  0  0
  -21.3270   30.9040   11.5420 H   0  0  0  0  0  0  0  0  0  0  0  0
  1 17  1  0  0  0  0
  1  2  1  0  0  0  0
  3 13  1  0  0  0  0
  3  2  2  0  0  0  0
  4  5  1  0  0  0  0
  4  3  1  0  0  0  0
  5  1  2  0  0  0  0
  6  7  1  0  0  0  0
  6  4  1  0  0  0  0
  7  8  1  0  0  0  0
  8  9  2  0  0  0  0
  8 13  1  0  0  0  0
  9 10  1  0  0  0  0
 10 37  1  0  0  0  0
 10 11  2  0  0  0  0
 12 11  1  0  0  0  0
 13 12  2  0  0  0  0
 14 23  1  0  0  0  0
 15 14  2  0  0  0  0
 16 15  1  0  0  0  0
 17 16  2  0  0  0  0
 17 18  1  0  0  0  0
 18 19  2  0  0  0  0
 19 14  1  0  0  0  0
 21 20  1  1  0  0  0
 21 22  1  0  0  0  0
 21 24  1  0  0  0  0
 22 23  1  0  0  0  0
 23 24  1  0  0  0  0
 23 25  1  1  0  0  0
 25 28  1  0  0  0  0
 25 26  1  0  0  0  0
 27 25  1  0  0  0  0
 29 21  1  0  0  0  0
 30 29  1  0  0  0  0
 31 36  1  0  0  0  0
 31  5  1  0  0  0  0
 32 31  2  0  0  0  0
 33 34  2  0  0  0  0
 33 32  1  0  0  0  0
 34 35  1  0  0  0  0
 35 36  2  0  0  0  0
 37 39  2  0  0  0  0
 38 37  1  0  0  0  0
 38 40  1  0  0  0  0
 41 38  1  0  0  0  0
M  END
>  <minimizedAffinity>
-12.3737993

$$$$

 OpenBabel11232420513D

 41 46  0  0  1  0  0  0  0  0999 V2000
  -19.6660   20.7630   10.9710 C   0  0  0  0  0  0  0  0  0  0  0  0
  -20.3510   20.1990   12.0370 N   0  0  0  0  0  0  0  0  0  0  0  0
  -20.3990   18.9100   11.7970 C   0  0  0  0  0  0  0  0  0  0  0  0
  -19.7880   18.6160   10.6140 N   0  0  0  0  0  0  0  0  0  0  0  0
  -19.2840   19.7740   10.0670 C   0  0  0  0  0  0  0  0  0  0  0  0
  -19.6060   17.2480   10.1640 C   0  0  0  0  0  2  0  0  0  0  0  0
  -20.5570   16.3180   10.7270 O   0  0  0  0  0  0  0  0  0  0  0  0
  -20.9880   16.5610   12.0070 C   0  0  0  0  0  0  0  0  0  0  0  0
  -21.5350   15.4810   12.7030 C   0  0  0  0  0  3  0  0  0  0  0  0
  -22.0220   15.6680   14.0020 C   0  0  0  0  0  0  0  0  0  0  0  0
  -21.9930   16.9490   14.5760 C   0  0  0  0  0  3  0  0  0  0  0  0
  -21.4620   18.0310   13.8680 C   0  0  0  0  0  3  0  0  0  0  0  0
  -20.9560   17.8350   12.5840 C   0  0  0  0  0  0  0  0  0  0  0  0
  -19.1020   25.0770   10.8950 C   0  0  0  0  0  0  0  0  0  0  0  0
  -20.0160   24.4000   10.0590 C   0  0  0  0  0  3  0  0  0  0  0  0
  -20.1740   23.0080   10.0920 C   0  0  0  0  0  3  0  0  0  0  0  0
  -19.4070   22.2030   10.9440 C   0  0  0  0  0  0  0  0  0  0  0  0
  -18.4560   22.8450   11.7340 C   0  0  0  0  0  3  0  0  0  0  0  0
  -18.3120   24.2430   11.7090 C   0  0  0  0  0  3  0  0  0  0  0  0
  -16.2850   28.8580   11.0930 C   0  0  0  0  0  1  0  0  0  0  0  0
  -17.0110   27.5230   11.0490 C   0  0  1  0  0  0  0  0  0  0  0  0
  -18.2080   27.4220   12.0320 C   0  0  0  0  0  2  0  0  0  0  0  0
  -18.9970   26.6730   10.9150 C   0  0  1  0  0  0  0  0  0  0  0  0
  -18.0380   27.3540    9.8940 C   0  0  0  0  0  2  0  0  0  0  0  0
  -20.3810   27.2090   10.8320 N   0  0  0  0  0  4  0  0  0  0  0  0
  -20.8230   26.9810    9.9330 H   0  0  0  0  0  0  0  0  0  0  0  0
  -20.9720   26.7860   11.5620 H   0  0  0  0  0  0  0  0  0  0  0  0
  -20.4310   28.2280   10.9480 H   0  0  0  0  0  0  0  0  0  0  0  0
  -16.0650   26.4470   11.1810 O   0  0  0  0  0  0  0  0  0  0  0  0
  -15.3630   26.6040   10.5220 H   0  0  0  0  0  0  0  0  0  0  0  0
  -18.5190   19.7790    8.8300 C   0  0  0  0  0  0  0  0  0  0  0  0
  -17.5710   18.7810    8.5800 C   0  0  0  0  0  3  0  0  0  0  0  0
  -16.8250   18.8050    7.4020 C   0  0  0  0  0  3  0  0  0  0  0  0
  -17.0240   19.8210    6.4680 C   0  0  0  0  0  3  0  0  0  0  0  0
  -17.9680   20.8190    6.7120 C   0  0  0  0  0  3  0  0  0  0  0  0
  -18.7110   20.8010    7.8920 C   0  0  0  0  0  3  0  0  0  0  0  0
  -22.6010   14.5590   14.8070 C   0  0  0  0  0  0  0  0  0  0  0  0
  -21.7400   13.7000   15.4290 N   0  0  0  0  0  0  0  0  0  0  0  0
  -23.8120   14.4320   14.9380 O   0  0  0  0  0  0  0  0  0  0  0  0
  -22.1530   12.9580   15.9800 H   0  0  0  0  0  0  0  0  0  0  0  0
  -20.7350   13.7900   15.4370 H   0  0  0  0  0  0  0  0  0  0  0  0
  1  2  1  0  0  0  0
  3  2  2  0  0  0  0
  3 13  1  0  0  0  0
  4  3  1  0  0  0  0
  5  4  1  0  0  0  0
  5  1  2  0  0  0  0
  6  4  1  0  0  0  0
  6  7  1  0  0  0  0
  7  8  1  0  0  0  0
  8 13  2  0  0  0  0
  8  9  1  0  0  0  0
  9 10  2  0  0  0  0
 10 11  1  0  0  0  0
 10 37  1  0  0  0  0
 12 11  2  0  0  0  0
 13 12  1  0  0  0  0
 14 23  1  0  0  0  0
 14 19  1  0  0  0  0
 15 16  1  0  0  0  0
 15 14  2  0  0  0  0
 16 17  2  0  0  0  0
 17  1  1  0  0  0  0
 17 18  1  0  0  0  0
 19 18  2  0  0  0  0
 21 20  1  1  0  0  0
 21 29  1  0  0  0  0
 21 22  1  0  0  0  0
 23 25  1  6  0  0  0
 23 22  1  0  0  0  0
 24 23  1  0  0  0  0
 24 21  1  0  0  0  0
 25 28  1  0  0  0  0
 25 27  1  0  0  0  0
 26 25  1  0  0  0  0
 30 29  1  0  0  0  0
 31  5  1  0  0  0  0
 32 31  1  0  0  0  0
 33 32  2  0  0  0  0
 34 35  2  0  0  0  0
 34 33  1  0  0  0  0
 35 36  1  0  0  0  0
 36 31  2  0  0  0  0
 37 39  2  0  0  0  0
 37 38  1  0  0  0  0
 38 41  1  0  0  0  0
 38 40  1  0  0  0  0
M  END
>  <minimizedAffinity>
-11.9313841

$$$$

 OpenBabel11232420513D

 41 46  0  0  1  0  0  0  0  0999 V2000
  -19.7170   22.0510   11.2270 C   0  0  0  0  0  0  0  0  0  0  0  0
  -20.4830   21.5390   12.2660 N   0  0  0  0  0  0  0  0  0  0  0  0
  -20.5420   20.2420   12.0680 C   0  0  0  0  0  0  0  0  0  0  0  0
  -19.8610   19.8940   10.9390 N   0  0  0  0  0  0  0  0  0  0  0  0
  -19.2980   21.0220   10.3860 C   0  0  0  0  0  0  0  0  0  0  0  0
  -19.6790   18.5080   10.5500 C   0  0  0  0  0  2  0  0  0  0  0  0
  -20.6830   17.6170   11.0820 O   0  0  0  0  0  0  0  0  0  0  0  0
  -21.1920   17.9140   12.3220 C   0  0  0  0  0  0  0  0  0  0  0  0
  -21.8060   16.8700   13.0170 C   0  0  0  0  0  3  0  0  0  0  0  0
  -22.3730   17.1140   14.2740 C   0  0  0  0  0  0  0  0  0  0  0  0
  -22.3540   18.4150   14.8030 C   0  0  0  0  0  3  0  0  0  0  0  0
  -21.7560   19.4600   14.0940 C   0  0  0  0  0  3  0  0  0  0  0  0
  -21.1710   19.2080   12.8540 C   0  0  0  0  0  0  0  0  0  0  0  0
  -19.0280   26.3460   11.1580 C   0  0  0  0  0  0  0  0  0  0  0  0
  -20.2760   25.7570   10.8620 C   0  0  0  0  0  3  0  0  0  0  0  0
  -20.4730   24.3690   10.8790 C   0  0  0  0  0  3  0  0  0  0  0  0
  -19.4280   23.4840   11.1670 C   0  0  0  0  0  0  0  0  0  0  0  0
  -18.1730   24.0410   11.4030 C   0  0  0  0  0  3  0  0  0  0  0  0
  -17.9820   25.4340   11.3980 C   0  0  0  0  0  3  0  0  0  0  0  0
  -20.2760   30.4000   13.2270 C   0  0  0  0  0  1  0  0  0  0  0  0
  -20.0200   29.0010   12.6900 C   0  0  1  0  0  0  0  0  0  0  0  0
  -20.0550   28.9020   11.1410 C   0  0  0  0  0  2  0  0  0  0  0  0
  -18.8370   27.9330   11.2270 C   0  0  1  0  0  0  0  0  0  0  0  0
  -18.5280   28.5720   12.6130 C   0  0  0  0  0  2  0  0  0  0  0  0
  -17.8270   28.3020   10.2000 N   0  0  0  0  0  4  0  0  0  0  0  0
  -16.9030   27.9110   10.4190 H   0  0  0  0  0  0  0  0  0  0  0  0
  -18.0950   27.9170    9.2830 H   0  0  0  0  0  0  0  0  0  0  0  0
  -17.7120   29.3160   10.0880 H   0  0  0  0  0  0  0  0  0  0  0  0
  -20.8890   28.0590   13.3450 O   0  0  0  0  0  0  0  0  0  0  0  0
  -20.7900   28.2020   14.3060 H   0  0  0  0  0  0  0  0  0  0  0  0
  -18.4540   20.9680    9.2030 C   0  0  0  0  0  0  0  0  0  0  0  0
  -19.0200   21.0670    7.9270 C   0  0  0  0  0  3  0  0  0  0  0  0
  -18.2080   20.9920    6.7950 C   0  0  0  0  0  3  0  0  0  0  0  0
  -16.8310   20.8220    6.9320 C   0  0  0  0  0  3  0  0  0  0  0  0
  -16.2620   20.7230    8.2010 C   0  0  0  0  0  3  0  0  0  0  0  0
  -17.0720   20.7910    9.3350 C   0  0  0  0  0  3  0  0  0  0  0  0
  -23.0260   16.0460   15.0770 C   0  0  0  0  0  0  0  0  0  0  0  0
  -23.4200   14.9080   14.4320 N   0  0  0  0  0  0  0  0  0  0  0  0
  -23.1800   16.1620   16.2860 O   0  0  0  0  0  0  0  0  0  0  0  0
  -23.8530   14.1890   14.9980 H   0  0  0  0  0  0  0  0  0  0  0  0
  -23.2510   14.7050   13.4590 H   0  0  0  0  0  0  0  0  0  0  0  0
  1  2  1  0  0  0  0
  3  2  2  0  0  0  0
  3 13  1  0  0  0  0
  4  3  1  0  0  0  0
  5  4  1  0  0  0  0
  5  1  2  0  0  0  0
  6  4  1  0  0  0  0
  6  7  1  0  0  0  0
  7  8  1  0  0  0  0
  8 13  2  0  0  0  0
  8  9  1  0  0  0  0
  9 10  2  0  0  0  0
 10 11  1  0  0  0  0
 10 37  1  0  0  0  0
 12 11  2  0  0  0  0
 13 12  1  0  0  0  0
 14 23  1  0  0  0  0
 14 19  1  0  0  0  0
 15 16  1  0  0  0  0
 15 14  2  0  0  0  0
 16 17  2  0  0  0  0
 17  1  1  0  0  0  0
 17 18  1  0  0  0  0
 19 18  2  0  0  0  0
 21 20  1  1  0  0  0
 21 29  1  0  0  0  0
 22 23  1  0  0  0  0
 22 21  1  0  0  0  0
 23 25  1  6  0  0  0
 23 24  1  0  0  0  0
 24 21  1  0  0  0  0
 25 26  1  0  0  0  0
 27 25  1  0  0  0  0
 28 25  1  0  0  0  0
 29 30  1  0  0  0  0
 31 36  1  0  0  0  0
 31  5  1  0  0  0  0
 32 31  2  0  0  0  0
 33 34  2  0  0  0  0
 33 32  1  0  0  0  0
 34 35  1  0  0  0  0
 35 36  2  0  0  0  0
 37 39  2  0  0  0  0
 38 40  1  0  0  0  0
 38 37  1  0  0  0  0
 41 38  1  0  0  0  0
M  END
>  <minimizedAffinity>
-11.6614447

$$$$

 OpenBabel11232420513D

 41 46  0  0  1  0  0  0  0  0999 V2000
  -19.3710   24.9560   11.1970 C   0  0  0  0  0  0  0  0  0  0  0  0
  -20.2700   24.0730   11.7790 N   0  0  0  0  0  0  0  0  0  0  0  0
  -19.8240   22.8690   11.5080 C   0  0  0  0  0  0  0  0  0  0  0  0
  -18.6840   22.9320   10.7630 N   0  0  0  0  0  0  0  0  0  0  0  0
  -18.3480   24.2520   10.5650 C   0  0  0  0  0  0  0  0  0  0  0  0
  -17.9260   21.7430   10.4180 C   0  0  0  0  0  2  0  0  0  0  0  0
  -18.7110   20.5310   10.4210 O   0  0  0  0  0  0  0  0  0  0  0  0
  -19.7300   20.4450   11.3360 C   0  0  0  0  0  0  0  0  0  0  0  0
  -20.1920   19.1650   11.6460 C   0  0  0  0  0  3  0  0  0  0  0  0
  -21.2510   19.0110   12.5490 C   0  0  0  0  0  0  0  0  0  0  0  0
  -21.8630   20.1470   13.1020 C   0  0  0  0  0  3  0  0  0  0  0  0
  -21.4090   21.4270   12.7740 C   0  0  0  0  0  3  0  0  0  0  0  0
  -20.3380   21.5760   11.8930 C   0  0  0  0  0  0  0  0  0  0  0  0
  -19.7300   29.2710   11.6170 C   0  0  0  0  0  0  0  0  0  0  0  0
  -18.8280   28.4910   12.3730 C   0  0  0  0  0  3  0  0  0  0  0  0
  -18.7370   27.1000   12.2300 C   0  0  0  0  0  3  0  0  0  0  0  0
  -19.5610   26.3990   11.3410 C   0  0  0  0  0  0  0  0  0  0  0  0
  -20.5000   27.1420   10.6290 C   0  0  0  0  0  3  0  0  0  0  0  0
  -20.5790   28.5380   10.7650 C   0  0  0  0  0  3  0  0  0  0  0  0
  -17.4960   33.3400   10.7650 C   0  0  0  0  0  1  0  0  0  0  0  0
  -18.0390   31.9340   10.9590 C   0  0  1  0  0  0  0  0  0  0  0  0
  -18.5940   31.6610   12.3830 C   0  0  0  0  0  2  0  0  0  0  0  0
  -19.7610   30.8670   11.7210 C   0  0  1  0  0  0  0  0  0  0  0  0
  -19.4790   31.6890   10.4280 C   0  0  0  0  0  2  0  0  0  0  0  0
  -21.0500   31.2440   12.3580 N   0  0  0  0  0  4  0  0  0  0  0  0
  -21.8530   30.9980   11.7640 H   0  0  0  0  0  0  0  0  0  0  0  0
  -21.1750   30.7300   13.2410 H   0  0  0  0  0  0  0  0  0  0  0  0
  -21.1220   32.2460   12.5700 H   0  0  0  0  0  0  0  0  0  0  0  0
  -17.0620   30.9690   10.5290 O   0  0  0  0  0  0  0  0  0  0  0  0
  -16.7840   31.2280    9.6300 H   0  0  0  0  0  0  0  0  0  0  0  0
  -17.1400   24.6480    9.8560 C   0  0  0  0  0  0  0  0  0  0  0  0
  -16.4130   25.7680   10.2710 C   0  0  0  0  0  3  0  0  0  0  0  0
  -15.2680   26.1560    9.5740 C   0  0  0  0  0  3  0  0  0  0  0  0
  -14.8450   25.4260    8.4640 C   0  0  0  0  0  3  0  0  0  0  0  0
  -15.5660   24.3090    8.0460 C   0  0  0  0  0  3  0  0  0  0  0  0
  -16.7150   23.9220    8.7370 C   0  0  0  0  0  3  0  0  0  0  0  0
  -21.7820   17.6770   12.9380 C   0  0  0  0  0  0  0  0  0  0  0  0
  -21.1990   16.5690   12.3910 N   0  0  0  0  0  0  0  0  0  0  0  0
  -22.6940   17.5650   13.7480 O   0  0  0  0  0  0  0  0  0  0  0  0
  -21.5670   15.6700   12.6760 H   0  0  0  0  0  0  0  0  0  0  0  0
  -20.3920   16.5780   11.7860 H   0  0  0  0  0  0  0  0  0  0  0  0
  1 17  1  0  0  0  0
  1  2  1  0  0  0  0
  3  2  2  0  0  0  0
  3 13  1  0  0  0  0
  4  3  1  0  0  0  0
  5  4  1  0  0  0  0
  5  1  2  0  0  0  0
  6  7  1  0  0  0  0
  6  4  1  0  0  0  0
  7  8  1  0  0  0  0
  8  9  2  0  0  0  0
  8 13  1  0  0  0  0
  9 10  1  0  0  0  0
 10 37  1  0  0  0  0
 10 11  2  0  0  0  0
 12 11  1  0  0  0  0
 13 12  2  0  0  0  0
 14 23  1  0  0  0  0
 14 15  1  0  0  0  0
 16 15  2  0  0  0  0
 17 16  1  0  0  0  0
 18 19  1  0  0  0  0
 18 17  2  0  0  0  0
 19 14  2  0  0  0  0
 21 20  1  6  0  0  0
 21 22  1  0  0  0  0
 23 25  1  1  0  0  0
 23 22  1  0  0  0  0
 24 21  1  0  0  0  0
 24 23  1  0  0  0  0
 25 28  1  0  0  0  0
 25 27  1  0  0  0  0
 26 25  1  0  0  0  0
 29 21  1  0  0  0  0
 30 29  1  0  0  0  0
 31 32  1  0  0  0  0
 31  5  1  0  0  0  0
 33 32  2  0  0  0  0
 34 33  1  0  0  0  0
 35 34  2  0  0  0  0
 35 36  1  0  0  0  0
 36 31  2  0  0  0  0
 37 39  2  0  0  0  0
 38 40  1  0  0  0  0
 38 37  1  0  0  0  0
 41 38  1  0  0  0  0
M  END
>  <minimizedAffinity>
-10.2744627

$$$$
