
 OpenBabel10152419403D

 35 38  0  0  1  0  0  0  0  0999 V2000
    1.2680   -5.3640  -28.0880 C   0  0  0  0  0  1  0  0  0  0  0  0
    1.2360   -6.5410  -27.0980 C   0  0  2  0  0  3  0  0  0  0  0  0
    2.4750   -7.4200  -27.2270 C   0  0  0  0  0  0  0  0  0  0  0  0
    3.6570   -7.0050  -27.8540 C   0  0  0  0  0  3  0  0  0  0  0  0
    4.7140   -7.9010  -28.0390 C   0  0  0  0  0  3  0  0  0  0  0  0
    4.5760   -9.2430  -27.6770 C   0  0  0  0  0  3  0  0  0  0  0  0
    3.3930   -9.6930  -27.0960 C   0  0  0  0  0  0  0  0  0  0  0  0
    2.4080   -8.7490  -26.7760 C   0  0  0  0  0  3  0  0  0  0  0  0
    3.0880  -11.0580  -26.8750 N   0  0  0  0  0  0  0  0  0  0  0  0
    2.8660  -11.6780  -25.6420 C   0  0  0  0  0  0  0  0  0  0  0  0
    1.6500  -11.5700  -24.9880 C   0  0  0  0  0  3  0  0  0  0  0  0
    1.4980  -12.2210  -23.7660 C   0  0  0  0  0  0  0  0  0  0  0  0
    2.5720  -12.9110  -23.2080 C   0  0  0  0  0  3  0  0  0  0  0  0
    3.7480  -12.9590  -23.9290 C   0  0  0  0  0  3  0  0  0  0  0  0
    3.8950  -12.3850  -25.1400 N   0  0  0  0  0  0  0  0  0  0  0  0
    3.8250  -11.6100  -27.3170 H   0  0  0  0  0  0  0  0  0  0  0  0
    0.2330  -12.1980  -23.0990 C   0  0  0  0  0  0  0  0  0  0  0  0
   -0.7940  -12.1960  -22.5550 N   0  0  0  0  0  0  0  0  0  0  0  0
   -0.0430   -7.2530  -27.2790 N   0  0  0  0  0  0  0  0  0  0  0  0
   -0.0130   -7.9210  -28.0460 H   0  0  0  0  0  0  0  0  0  0  0  0
   -0.7600   -7.8640  -26.2680 C   0  0  0  0  0  0  0  0  0  0  0  0
   -1.2160   -9.0690  -26.6390 N   0  0  0  0  0  0  0  0  0  0  0  0
   -1.7740   -9.8090  -25.6850 C   0  0  0  0  0  3  0  0  0  0  0  0
   -1.8950   -9.4720  -24.3970 N   0  0  0  0  0  0  0  0  0  0  0  0
   -1.4990   -8.2330  -24.0260 C   0  0  0  0  0  0  0  0  0  0  0  0
   -1.5880   -7.7820  -22.6910 C   0  0  0  0  0  0  0  0  0  0  0  0
   -1.2660   -6.4560  -22.3450 C   0  0  0  0  0  3  0  0  0  0  0  0
   -0.8730   -5.5500  -23.3170 C   0  0  0  0  0  3  0  0  0  0  0  0
   -0.7370   -5.9890  -24.6290 C   0  0  0  0  0  3  0  0  0  0  0  0
   -0.9830   -7.3380  -24.9830 C   0  0  0  0  0  0  0  0  0  0  0  0
   -2.0150   -8.6630  -21.5560 C   0  0  0  0  0  0  0  0  0  0  0  0
   -1.0710   -9.4380  -20.9490 N   0  0  0  0  0  0  0  0  0  0  0  0
   -3.1790   -8.7060  -21.1660 O   0  0  0  0  0  0  0  0  0  0  0  0
   -1.3410  -10.0380  -20.1830 H   0  0  0  0  0  0  0  0  0  0  0  0
   -0.1060   -9.4190  -21.2640 H   0  0  0  0  0  0  0  0  0  0  0  0
  2  1  1  6  0  0  0
  3  2  1  0  0  0  0
  3  8  1  0  0  0  0
  4  3  2  0  0  0  0
  5  4  1  0  0  0  0
  5  6  2  0  0  0  0
  6  7  1  0  0  0  0
  7  9  1  0  0  0  0
  7  8  2  0  0  0  0
  9 10  1  0  0  0  0
 10 15  2  0  0  0  0
 10 11  1  0  0  0  0
 11 12  2  0  0  0  0
 12 13  1  0  0  0  0
 12 17  1  0  0  0  0
 14 13  2  0  0  0  0
 15 14  1  0  0  0  0
 16  9  1  0  0  0  0
 17 18  3  0  0  0  0
 19  2  1  0  0  0  0
 19 21  1  0  0  0  0
 20 19  1  0  0  0  0
 21 30  1  0  0  0  0
 22 21  2  0  0  0  0
 22 23  1  0  0  0  0
 23 24  2  0  0  0  0
 24 25  1  0  0  0  0
 25 26  1  0  0  0  0
 26 27  2  0  0  0  0
 26 31  1  0  0  0  0
 28 27  1  0  0  0  0
 29 28  2  0  0  0  0
 30 29  1  0  0  0  0
 30 25  2  0  0  0  0
 31 33  2  0  0  0  0
 31 32  1  0  0  0  0
 32 34  1  0  0  0  0
 35 32  1  0  0  0  0
M  END
>  <minimizedAffinity>
-9.22777557

$$$$

 OpenBabel10152419403D

 35 38  0  0  1  0  0  0  0  0999 V2000
    2.5010  -12.1470  -23.4480 C   0  0  0  0  0  1  0  0  0  0  0  0
    1.9820  -12.8630  -24.7060 C   0  0  2  0  0  3  0  0  0  0  0  0
    2.4860  -12.1990  -25.9820 C   0  0  0  0  0  0  0  0  0  0  0  0
    2.9680  -12.9120  -27.0880 C   0  0  0  0  0  3  0  0  0  0  0  0
    3.5220  -12.2370  -28.1790 C   0  0  0  0  0  3  0  0  0  0  0  0
    3.6810  -10.8500  -28.1490 C   0  0  0  0  0  3  0  0  0  0  0  0
    3.2540  -10.1220  -27.0400 C   0  0  0  0  0  0  0  0  0  0  0  0
    2.5600  -10.7970  -26.0280 C   0  0  0  0  0  3  0  0  0  0  0  0
    3.5440   -8.7510  -26.8340 N   0  0  0  0  0  0  0  0  0  0  0  0
    2.6790   -7.6730  -27.0390 C   0  0  0  0  0  0  0  0  0  0  0  0
    1.7090   -7.3390  -26.1090 C   0  0  0  0  0  3  0  0  0  0  0  0
    0.8870   -6.2460  -26.3750 C   0  0  0  0  0  0  0  0  0  0  0  0
    1.0190   -5.5550  -27.5780 C   0  0  0  0  0  3  0  0  0  0  0  0
    2.0100   -5.9630  -28.4470 C   0  0  0  0  0  3  0  0  0  0  0  0
    2.8530   -6.9810  -28.1800 N   0  0  0  0  0  0  0  0  0  0  0  0
    4.3740   -8.5290  -27.3860 H   0  0  0  0  0  0  0  0  0  0  0  0
   -0.0730   -5.8220  -25.4040 C   0  0  0  0  0  0  0  0  0  0  0  0
   -0.8470   -5.4640  -24.6140 N   0  0  0  0  0  0  0  0  0  0  0  0
    0.5140  -12.9590  -24.6020 N   0  0  0  0  0  0  0  0  0  0  0  0
    0.1890  -13.9220  -24.5470 H   0  0  0  0  0  0  0  0  0  0  0  0
   -0.2670  -12.2400  -23.7180 C   0  0  0  0  0  0  0  0  0  0  0  0
   -0.3110  -12.8180  -22.5090 N   0  0  0  0  0  0  0  0  0  0  0  0
   -0.8970  -12.1190  -21.5410 C   0  0  0  0  0  3  0  0  0  0  0  0
   -1.4180  -10.8930  -21.6590 N   0  0  0  0  0  0  0  0  0  0  0  0
   -1.4380  -10.3300  -22.8880 C   0  0  0  0  0  0  0  0  0  0  0  0
   -1.9680   -9.0410  -23.1170 C   0  0  0  0  0  0  0  0  0  0  0  0
   -2.0720   -8.5150  -24.4190 C   0  0  0  0  0  3  0  0  0  0  0  0
   -1.6760   -9.2640  -25.5150 C   0  0  0  0  0  3  0  0  0  0  0  0
   -1.1110  -10.5160  -25.3050 C   0  0  0  0  0  3  0  0  0  0  0  0
   -0.9270  -11.0310  -23.9980 C   0  0  0  0  0  0  0  0  0  0  0  0
   -2.4430   -8.1440  -22.0150 C   0  0  0  0  0  0  0  0  0  0  0  0
   -2.0450   -6.8390  -22.0260 N   0  0  0  0  0  0  0  0  0  0  0  0
   -3.1700   -8.5490  -21.1120 O   0  0  0  0  0  0  0  0  0  0  0  0
   -2.3560   -6.2210  -21.2910 H   0  0  0  0  0  0  0  0  0  0  0  0
   -1.4390   -6.4890  -22.7620 H   0  0  0  0  0  0  0  0  0  0  0  0
  2 19  1  0  0  0  0
  2  1  1  1  0  0  0
  3  2  1  0  0  0  0
  4  3  2  0  0  0  0
  5  6  2  0  0  0  0
  5  4  1  0  0  0  0
  6  7  1  0  0  0  0
  7  9  1  0  0  0  0
  7  8  2  0  0  0  0
  8  3  1  0  0  0  0
 10  9  1  0  0  0  0
 10 11  1  0  0  0  0
 12 11  2  0  0  0  0
 12 17  1  0  0  0  0
 13 12  1  0  0  0  0
 14 15  1  0  0  0  0
 14 13  2  0  0  0  0
 15 10  2  0  0  0  0
 16  9  1  0  0  0  0
 17 18  3  0  0  0  0
 19 20  1  0  0  0  0
 19 21  1  0  0  0  0
 21 22  1  0  0  0  0
 22 23  2  0  0  0  0
 24 23  1  0  0  0  0
 25 24  2  0  0  0  0
 26 25  1  0  0  0  0
 26 31  1  0  0  0  0
 27 26  2  0  0  0  0
 28 29  2  0  0  0  0
 28 27  1  0  0  0  0
 29 30  1  0  0  0  0
 30 21  2  0  0  0  0
 30 25  1  0  0  0  0
 31 33  2  0  0  0  0
 32 31  1  0  0  0  0
 32 34  1  0  0  0  0
 35 32  1  0  0  0  0
M  END
>  <minimizedAffinity>
-9.18744469

$$$$

 OpenBabel10152419403D

 35 38  0  0  1  0  0  0  0  0999 V2000
    3.0940  -11.1740  -28.0740 C   0  0  0  0  0  1  0  0  0  0  0  0
    4.1270  -11.1430  -26.9350 C   0  0  2  0  0  3  0  0  0  0  0  0
    3.5310  -11.6250  -25.6180 C   0  0  0  0  0  0  0  0  0  0  0  0
    4.2080  -12.4620  -24.7220 C   0  0  0  0  0  3  0  0  0  0  0  0
    3.5590  -12.9590  -23.5880 C   0  0  0  0  0  3  0  0  0  0  0  0
    2.2030  -12.6990  -23.3760 C   0  0  0  0  0  3  0  0  0  0  0  0
    1.4940  -11.9090  -24.2780 C   0  0  0  0  0  0  0  0  0  0  0  0
    2.1980  -11.2920  -25.3200 C   0  0  0  0  0  3  0  0  0  0  0  0
    0.0860  -11.7510  -24.2550 N   0  0  0  0  0  0  0  0  0  0  0  0
   -0.6540  -10.9870  -23.3480 C   0  0  0  0  0  0  0  0  0  0  0  0
   -0.7620   -9.6130  -23.4810 C   0  0  0  0  0  3  0  0  0  0  0  0
   -1.5240   -8.9170  -22.5450 C   0  0  0  0  0  0  0  0  0  0  0  0
   -2.1080   -9.5990  -21.4790 C   0  0  0  0  0  3  0  0  0  0  0  0
   -1.9410  -10.9680  -21.4250 C   0  0  0  0  0  3  0  0  0  0  0  0
   -1.2570  -11.6650  -22.3540 N   0  0  0  0  0  0  0  0  0  0  0  0
   -0.3250  -12.6840  -24.2080 H   0  0  0  0  0  0  0  0  0  0  0  0
   -1.7240   -7.5090  -22.6940 C   0  0  0  0  0  0  0  0  0  0  0  0
   -1.8720   -6.3630  -22.8150 N   0  0  0  0  0  0  0  0  0  0  0  0
    4.7090   -9.7880  -26.8860 N   0  0  0  0  0  0  0  0  0  0  0  0
    5.6810   -9.7700  -27.1880 H   0  0  0  0  0  0  0  0  0  0  0  0
    4.1240   -8.6540  -27.4150 C   0  0  0  0  0  0  0  0  0  0  0  0
    4.6630   -8.3190  -28.5950 N   0  0  0  0  0  0  0  0  0  0  0  0
    4.0580   -7.3430  -29.2660 C   0  0  0  0  0  3  0  0  0  0  0  0
    2.9560   -6.6900  -28.8830 N   0  0  0  0  0  0  0  0  0  0  0  0
    2.4430   -6.9750  -27.6650 C   0  0  0  0  0  0  0  0  0  0  0  0
    1.2840   -6.3390  -27.1690 C   0  0  0  0  0  0  0  0  0  0  0  0
    0.8240   -6.5740  -25.8590 C   0  0  0  0  0  3  0  0  0  0  0  0
    1.5180   -7.4250  -25.0120 C   0  0  0  0  0  3  0  0  0  0  0  0
    2.6350   -8.0930  -25.4980 C   0  0  0  0  0  3  0  0  0  0  0  0
    3.0680   -7.9270  -26.8370 C   0  0  0  0  0  0  0  0  0  0  0  0
    0.4590   -5.3890  -27.9840 C   0  0  0  0  0  0  0  0  0  0  0  0
    1.1010   -4.3960  -28.6650 N   0  0  0  0  0  0  0  0  0  0  0  0
   -0.7640   -5.4790  -28.0520 O   0  0  0  0  0  0  0  0  0  0  0  0
    0.5610   -3.7480  -29.2190 H   0  0  0  0  0  0  0  0  0  0  0  0
    2.1110   -4.3040  -28.6150 H   0  0  0  0  0  0  0  0  0  0  0  0
  2  1  1  6  0  0  0
  2 19  1  0  0  0  0
  2  3  1  0  0  0  0
  3  8  2  0  0  0  0
  3  4  1  0  0  0  0
  4  5  2  0  0  0  0
  5  6  1  0  0  0  0
  7  9  1  0  0  0  0
  7  6  2  0  0  0  0
  8  7  1  0  0  0  0
  9 16  1  0  0  0  0
  9 10  1  0  0  0  0
 10 15  1  0  0  0  0
 11 10  2  0  0  0  0
 11 12  1  0  0  0  0
 12 13  2  0  0  0  0
 13 14  1  0  0  0  0
 15 14  2  0  0  0  0
 17 12  1  0  0  0  0
 18 17  3  0  0  0  0
 20 19  1  0  0  0  0
 21 19  1  0  0  0  0
 21 30  1  0  0  0  0
 22 21  2  0  0  0  0
 23 24  2  0  0  0  0
 23 22  1  0  0  0  0
 24 25  1  0  0  0  0
 25 26  2  0  0  0  0
 25 30  1  0  0  0  0
 26 27  1  0  0  0  0
 27 28  2  0  0  0  0
 29 28  1  0  0  0  0
 30 29  2  0  0  0  0
 31 26  1  0  0  0  0
 32 35  1  0  0  0  0
 32 31  1  0  0  0  0
 33 31  2  0  0  0  0
 34 32  1  0  0  0  0
M  END
>  <minimizedAffinity>
-9.17556763

$$$$

 OpenBabel10152419403D

 35 38  0  0  1  0  0  0  0  0999 V2000
   -0.5300   -5.0850  -25.0410 C   0  0  0  0  0  1  0  0  0  0  0  0
   -0.0360   -6.5280  -25.2420 C   0  0  2  0  0  3  0  0  0  0  0  0
    1.0450   -6.6100  -26.3150 C   0  0  0  0  0  0  0  0  0  0  0  0
    0.9410   -5.9890  -27.5660 C   0  0  0  0  0  3  0  0  0  0  0  0
    1.9170   -6.2010  -28.5440 C   0  0  0  0  0  3  0  0  0  0  0  0
    2.9630   -7.0990  -28.3200 C   0  0  0  0  0  3  0  0  0  0  0  0
    3.0620   -7.7660  -27.1010 C   0  0  0  0  0  0  0  0  0  0  0  0
    2.1670   -7.4220  -26.0790 C   0  0  0  0  0  3  0  0  0  0  0  0
    3.9640   -8.8290  -26.8510 N   0  0  0  0  0  0  0  0  0  0  0  0
    3.7800  -10.1760  -27.1750 C   0  0  0  0  0  0  0  0  0  0  0  0
    3.9910  -10.6450  -28.4600 C   0  0  0  0  0  3  0  0  0  0  0  0
    3.7970  -12.0020  -28.7090 C   0  0  0  0  0  0  0  0  0  0  0  0
    3.3480  -12.8370  -27.6880 C   0  0  0  0  0  3  0  0  0  0  0  0
    3.1580  -12.2800  -26.4390 C   0  0  0  0  0  3  0  0  0  0  0  0
    3.3980  -10.9820  -26.1660 N   0  0  0  0  0  0  0  0  0  0  0  0
    4.1690   -8.8260  -25.8510 H   0  0  0  0  0  0  0  0  0  0  0  0
    4.0810  -12.5380  -30.0040 C   0  0  0  0  0  0  0  0  0  0  0  0
    4.3080  -12.9590  -31.0630 N   0  0  0  0  0  0  0  0  0  0  0  0
   -1.2120   -7.3820  -25.4890 N   0  0  0  0  0  0  0  0  0  0  0  0
   -1.4920   -7.3880  -26.4670 H   0  0  0  0  0  0  0  0  0  0  0  0
   -1.3570   -8.6820  -25.0430 C   0  0  0  0  0  0  0  0  0  0  0  0
   -1.3450   -9.5600  -26.0560 N   0  0  0  0  0  0  0  0  0  0  0  0
   -1.3080  -10.8470  -25.7220 C   0  0  0  0  0  3  0  0  0  0  0  0
   -1.2560  -11.3370  -24.4790 N   0  0  0  0  0  0  0  0  0  0  0  0
   -1.3330  -10.4620  -23.4500 C   0  0  0  0  0  0  0  0  0  0  0  0
   -1.2890  -10.8800  -22.1020 C   0  0  0  0  0  0  0  0  0  0  0  0
   -1.4740   -9.9660  -21.0470 C   0  0  0  0  0  3  0  0  0  0  0  0
   -1.7280   -8.6290  -21.3110 C   0  0  0  0  0  3  0  0  0  0  0  0
   -1.7310   -8.1930  -22.6300 C   0  0  0  0  0  3  0  0  0  0  0  0
   -1.4710   -9.0830  -23.7010 C   0  0  0  0  0  0  0  0  0  0  0  0
   -1.0370  -12.3000  -21.6930 C   0  0  0  0  0  0  0  0  0  0  0  0
    0.0130  -12.9590  -22.2620 N   0  0  0  0  0  0  0  0  0  0  0  0
   -1.7440  -12.8770  -20.8720 O   0  0  0  0  0  0  0  0  0  0  0  0
    0.1980  -13.9160  -21.9970 H   0  0  0  0  0  0  0  0  0  0  0  0
    0.6040  -12.4980  -22.9470 H   0  0  0  0  0  0  0  0  0  0  0  0
  2  1  1  6  0  0  0
  3  8  1  0  0  0  0
  3  2  1  0  0  0  0
  4  3  2  0  0  0  0
  5  6  2  0  0  0  0
  5  4  1  0  0  0  0
  6  7  1  0  0  0  0
  7  9  1  0  0  0  0
  7  8  2  0  0  0  0
  9 16  1  0  0  0  0
 10  9  1  0  0  0  0
 10 15  1  0  0  0  0
 11 10  2  0  0  0  0
 12 11  1  0  0  0  0
 12 13  2  0  0  0  0
 13 14  1  0  0  0  0
 14 15  2  0  0  0  0
 17 12  1  0  0  0  0
 18 17  3  0  0  0  0
 19  2  1  0  0  0  0
 19 21  1  0  0  0  0
 20 19  1  0  0  0  0
 21 30  1  0  0  0  0
 22 23  1  0  0  0  0
 22 21  2  0  0  0  0
 23 24  2  0  0  0  0
 24 25  1  0  0  0  0
 25 26  1  0  0  0  0
 26 31  1  0  0  0  0
 26 27  2  0  0  0  0
 28 27  1  0  0  0  0
 29 28  2  0  0  0  0
 30 25  2  0  0  0  0
 30 29  1  0  0  0  0
 31 33  2  0  0  0  0
 32 34  1  0  0  0  0
 32 31  1  0  0  0  0
 35 32  1  0  0  0  0
M  END
>  <minimizedAffinity>
-9.00409412

$$$$

 OpenBabel10152419403D

 35 38  0  0  1  0  0  0  0  0999 V2000
   -0.8530   -5.1690  -23.3830 C   0  0  0  0  0  1  0  0  0  0  0  0
   -0.8140   -6.5910  -23.9690 C   0  0  2  0  0  3  0  0  0  0  0  0
   -1.3950   -7.6150  -23.0020 C   0  0  0  0  0  0  0  0  0  0  0  0
   -1.7510   -7.3170  -21.6800 C   0  0  0  0  0  3  0  0  0  0  0  0
   -2.1700   -8.3310  -20.8130 C   0  0  0  0  0  3  0  0  0  0  0  0
   -2.1590   -9.6660  -21.2260 C   0  0  0  0  0  3  0  0  0  0  0  0
   -1.7630   -9.9940  -22.5210 C   0  0  0  0  0  0  0  0  0  0  0  0
   -1.5000   -8.9530  -23.4200 C   0  0  0  0  0  3  0  0  0  0  0  0
   -1.5360  -11.3190  -22.9670 N   0  0  0  0  0  0  0  0  0  0  0  0
   -0.5090  -11.7530  -23.8100 C   0  0  0  0  0  0  0  0  0  0  0  0
    0.7730  -11.9700  -23.3340 C   0  0  0  0  0  3  0  0  0  0  0  0
    1.7450  -12.4100  -24.2310 C   0  0  0  0  0  0  0  0  0  0  0  0
    1.4260  -12.5680  -25.5780 C   0  0  0  0  0  3  0  0  0  0  0  0
    0.1230  -12.3220  -25.9620 C   0  0  0  0  0  3  0  0  0  0  0  0
   -0.8440  -11.9520  -25.0990 N   0  0  0  0  0  0  0  0  0  0  0  0
   -2.3950  -11.6420  -23.4130 H   0  0  0  0  0  0  0  0  0  0  0  0
    3.0590  -12.7210  -23.7610 C   0  0  0  0  0  0  0  0  0  0  0  0
    4.1310  -12.9580  -23.3800 N   0  0  0  0  0  0  0  0  0  0  0  0
    0.5690   -6.8670  -24.3990 N   0  0  0  0  0  0  0  0  0  0  0  0
    0.9680   -7.6770  -23.9300 H   0  0  0  0  0  0  0  0  0  0  0  0
    0.9930   -6.9380  -25.7120 C   0  0  0  0  0  0  0  0  0  0  0  0
    0.4090   -6.0030  -26.4750 N   0  0  0  0  0  0  0  0  0  0  0  0
    0.8730   -5.8770  -27.7150 C   0  0  0  0  0  3  0  0  0  0  0  0
    1.8770   -6.5760  -28.2540 N   0  0  0  0  0  0  0  0  0  0  0  0
    2.4280   -7.5660  -27.5160 C   0  0  0  0  0  0  0  0  0  0  0  0
    3.4910   -8.3620  -27.9960 C   0  0  0  0  0  0  0  0  0  0  0  0
    3.9820   -9.4520  -27.2540 C   0  0  0  0  0  3  0  0  0  0  0  0
    3.4130   -9.7860  -26.0350 C   0  0  0  0  0  3  0  0  0  0  0  0
    2.3960   -8.9880  -25.5260 C   0  0  0  0  0  3  0  0  0  0  0  0
    1.9410   -7.8410  -26.2230 C   0  0  0  0  0  0  0  0  0  0  0  0
    4.1750   -8.1090  -29.3060 C   0  0  0  0  0  0  0  0  0  0  0  0
    4.4170   -6.8160  -29.6700 N   0  0  0  0  0  0  0  0  0  0  0  0
    4.5180   -9.0230  -30.0500 O   0  0  0  0  0  0  0  0  0  0  0  0
    4.8770   -6.6280  -30.5480 H   0  0  0  0  0  0  0  0  0  0  0  0
    4.1350   -6.0480  -29.0680 H   0  0  0  0  0  0  0  0  0  0  0  0
  2  1  1  1  0  0  0
  2  3  1  0  0  0  0
  3  4  1  0  0  0  0
  4  5  2  0  0  0  0
  6  5  1  0  0  0  0
  7  6  2  0  0  0  0
  8  3  2  0  0  0  0
  8  7  1  0  0  0  0
  9  7  1  0  0  0  0
 10 11  1  0  0  0  0
 10  9  1  0  0  0  0
 12 17  1  0  0  0  0
 12 11  2  0  0  0  0
 13 12  1  0  0  0  0
 14 13  2  0  0  0  0
 14 15  1  0  0  0  0
 15 10  2  0  0  0  0
 16  9  1  0  0  0  0
 17 18  3  0  0  0  0
 19  2  1  0  0  0  0
 19 20  1  0  0  0  0
 21 19  1  0  0  0  0
 22 21  2  0  0  0  0
 23 22  1  0  0  0  0
 24 23  2  0  0  0  0
 24 25  1  0  0  0  0
 25 30  1  0  0  0  0
 26 25  2  0  0  0  0
 26 27  1  0  0  0  0
 27 28  2  0  0  0  0
 28 29  1  0  0  0  0
 30 21  1  0  0  0  0
 30 29  2  0  0  0  0
 31 26  1  0  0  0  0
 32 31  1  0  0  0  0
 32 35  1  0  0  0  0
 33 31  2  0  0  0  0
 34 32  1  0  0  0  0
M  END
>  <minimizedAffinity>
-8.9756937

$$$$

 OpenBabel10152419403D

 35 38  0  0  1  0  0  0  0  0999 V2000
   -2.9830   -8.4510  -21.1840 C   0  0  0  0  0  1  0  0  0  0  0  0
   -2.0450   -8.9810  -22.2810 C   0  0  2  0  0  3  0  0  0  0  0  0
   -1.6240  -10.4220  -22.0160 C   0  0  0  0  0  0  0  0  0  0  0  0
   -2.0880  -11.1760  -20.9300 C   0  0  0  0  0  3  0  0  0  0  0  0
   -1.5720  -12.4520  -20.6830 C   0  0  0  0  0  3  0  0  0  0  0  0
   -0.5300  -12.9590  -21.4620 C   0  0  0  0  0  3  0  0  0  0  0  0
   -0.0170  -12.2080  -22.5180 C   0  0  0  0  0  0  0  0  0  0  0  0
   -0.6520  -11.0040  -22.8470 C   0  0  0  0  0  3  0  0  0  0  0  0
    1.1560  -12.5490  -23.2350 N   0  0  0  0  0  0  0  0  0  0  0  0
    1.5190  -12.0980  -24.5070 C   0  0  0  0  0  0  0  0  0  0  0  0
    2.0800  -10.8460  -24.6960 C   0  0  0  0  0  3  0  0  0  0  0  0
    2.4250  -10.4660  -25.9910 C   0  0  0  0  0  0  0  0  0  0  0  0
    2.1530  -11.3180  -27.0600 C   0  0  0  0  0  3  0  0  0  0  0  0
    1.5870  -12.5430  -26.7770 C   0  0  0  0  0  3  0  0  0  0  0  0
    1.3000  -12.9520  -25.5240 N   0  0  0  0  0  0  0  0  0  0  0  0
    1.1890  -13.5670  -23.2990 H   0  0  0  0  0  0  0  0  0  0  0  0
    3.0790   -9.2140  -26.2170 C   0  0  0  0  0  0  0  0  0  0  0  0
    3.5960   -8.1900  -26.3970 N   0  0  0  0  0  0  0  0  0  0  0  0
   -0.9260   -8.0310  -22.4220 N   0  0  0  0  0  0  0  0  0  0  0  0
   -0.0270   -8.4980  -22.5160 H   0  0  0  0  0  0  0  0  0  0  0  0
   -0.8960   -6.9650  -23.3010 C   0  0  0  0  0  0  0  0  0  0  0  0
   -1.0410   -5.7930  -22.6670 N   0  0  0  0  0  0  0  0  0  0  0  0
   -0.8590   -4.6980  -23.4000 C   0  0  0  0  0  3  0  0  0  0  0  0
   -0.5200   -4.6630  -24.6930 N   0  0  0  0  0  0  0  0  0  0  0  0
   -0.4360   -5.8390  -25.3570 C   0  0  0  0  0  0  0  0  0  0  0  0
   -0.0880   -5.9080  -26.7230 C   0  0  0  0  0  0  0  0  0  0  0  0
   -0.1040   -7.1300  -27.4210 C   0  0  0  0  0  3  0  0  0  0  0  0
   -0.4880   -8.2990  -26.7830 C   0  0  0  0  0  3  0  0  0  0  0  0
   -0.7910   -8.2570  -25.4280 C   0  0  0  0  0  3  0  0  0  0  0  0
   -0.7060   -7.0500  -24.6910 C   0  0  0  0  0  0  0  0  0  0  0  0
    0.3290   -4.7100  -27.5230 C   0  0  0  0  0  0  0  0  0  0  0  0
   -0.3020   -3.5240  -27.2880 N   0  0  0  0  0  0  0  0  0  0  0  0
    1.2110   -4.7700  -28.3750 O   0  0  0  0  0  0  0  0  0  0  0  0
   -0.0330   -2.7080  -27.8170 H   0  0  0  0  0  0  0  0  0  0  0  0
   -1.0380   -3.4580  -26.5910 H   0  0  0  0  0  0  0  0  0  0  0  0
  2  3  1  0  0  0  0
  2  1  1  1  0  0  0
  3  4  1  0  0  0  0
  4  5  2  0  0  0  0
  6  5  1  0  0  0  0
  7  6  2  0  0  0  0
  8  7  1  0  0  0  0
  8  3  2  0  0  0  0
  9  7  1  0  0  0  0
 10  9  1  0  0  0  0
 11 10  1  0  0  0  0
 12 11  2  0  0  0  0
 13 14  2  0  0  0  0
 13 12  1  0  0  0  0
 14 15  1  0  0  0  0
 15 10  2  0  0  0  0
 16  9  1  0  0  0  0
 17 12  1  0  0  0  0
 18 17  3  0  0  0  0
 19  2  1  0  0  0  0
 20 19  1  0  0  0  0
 21 22  1  0  0  0  0
 21 19  1  0  0  0  0
 23 22  2  0  0  0  0
 24 23  1  0  0  0  0
 25 24  2  0  0  0  0
 25 30  1  0  0  0  0
 26 25  1  0  0  0  0
 27 28  1  0  0  0  0
 27 26  2  0  0  0  0
 28 29  2  0  0  0  0
 29 30  1  0  0  0  0
 30 21  2  0  0  0  0
 31 32  1  0  0  0  0
 31 26  1  0  0  0  0
 32 35  1  0  0  0  0
 33 31  2  0  0  0  0
 34 32  1  0  0  0  0
M  END
>  <minimizedAffinity>
-8.75301838

$$$$

 OpenBabel10152419403D

 35 38  0  0  1  0  0  0  0  0999 V2000
   -3.6700   -7.5880  -22.9190 C   0  0  0  0  0  1  0  0  0  0  0  0
   -2.3170   -8.2060  -23.3110 C   0  0  2  0  0  3  0  0  0  0  0  0
   -1.9450   -9.3710  -22.4010 C   0  0  0  0  0  0  0  0  0  0  0  0
   -1.8000   -9.2530  -21.0130 C   0  0  0  0  0  3  0  0  0  0  0  0
   -1.3440  -10.3350  -20.2540 C   0  0  0  0  0  3  0  0  0  0  0  0
   -0.9460  -11.5200  -20.8770 C   0  0  0  0  0  3  0  0  0  0  0  0
   -1.0350  -11.6460  -22.2610 C   0  0  0  0  0  0  0  0  0  0  0  0
   -1.6410  -10.6120  -22.9860 C   0  0  0  0  0  3  0  0  0  0  0  0
   -0.4800  -12.7240  -22.9950 N   0  0  0  0  0  0  0  0  0  0  0  0
    0.2100  -12.6420  -24.2080 C   0  0  0  0  0  0  0  0  0  0  0  0
    1.5410  -12.2660  -24.2560 C   0  0  0  0  0  3  0  0  0  0  0  0
    2.1690  -12.2150  -25.4990 C   0  0  0  0  0  0  0  0  0  0  0  0
    1.4400  -12.4860  -26.6560 C   0  0  0  0  0  3  0  0  0  0  0  0
    0.1160  -12.8470  -26.5110 C   0  0  0  0  0  3  0  0  0  0  0  0
   -0.4910  -12.9590  -25.3120 N   0  0  0  0  0  0  0  0  0  0  0  0
   -1.2320  -13.3940  -23.1660 H   0  0  0  0  0  0  0  0  0  0  0  0
    3.5630  -11.9070  -25.5830 C   0  0  0  0  0  0  0  0  0  0  0  0
    4.6930  -11.6480  -25.6630 N   0  0  0  0  0  0  0  0  0  0  0  0
   -1.3190   -7.1220  -23.3610 N   0  0  0  0  0  0  0  0  0  0  0  0
   -0.7880   -7.0410  -22.4970 H   0  0  0  0  0  0  0  0  0  0  0  0
   -0.4130   -6.9240  -24.3850 C   0  0  0  0  0  0  0  0  0  0  0  0
    0.3210   -8.0210  -24.6200 N   0  0  0  0  0  0  0  0  0  0  0  0
    1.1030   -7.9900  -25.6950 C   0  0  0  0  0  3  0  0  0  0  0  0
    1.2020   -6.9820  -26.5680 N   0  0  0  0  0  0  0  0  0  0  0  0
    0.5160   -5.8470  -26.3050 C   0  0  0  0  0  0  0  0  0  0  0  0
    0.5550   -4.7270  -27.1640 C   0  0  0  0  0  0  0  0  0  0  0  0
   -0.0830   -3.5200  -26.8210 C   0  0  0  0  0  3  0  0  0  0  0  0
   -0.7510   -3.3960  -25.6130 C   0  0  0  0  0  3  0  0  0  0  0  0
   -0.8380   -4.5010  -24.7760 C   0  0  0  0  0  3  0  0  0  0  0  0
   -0.2670   -5.7460  -25.1390 C   0  0  0  0  0  0  0  0  0  0  0  0
    1.2580   -4.7360  -28.4880 C   0  0  0  0  0  0  0  0  0  0  0  0
    2.0970   -5.7750  -28.7680 N   0  0  0  0  0  0  0  0  0  0  0  0
    1.1030   -3.8410  -29.3150 O   0  0  0  0  0  0  0  0  0  0  0  0
    2.5780   -5.7960  -29.6550 H   0  0  0  0  0  0  0  0  0  0  0  0
    2.2410   -6.5190  -28.0930 H   0  0  0  0  0  0  0  0  0  0  0  0
  2  1  1  1  0  0  0
  2  3  1  0  0  0  0
  3  4  1  0  0  0  0
  4  5  2  0  0  0  0
  6  5  1  0  0  0  0
  7  6  2  0  0  0  0
  8  3  2  0  0  0  0
  8  7  1  0  0  0  0
  9  7  1  0  0  0  0
 10  9  1  0  0  0  0
 11 10  1  0  0  0  0
 12 11  2  0  0  0  0
 13 14  2  0  0  0  0
 13 12  1  0  0  0  0
 14 15  1  0  0  0  0
 15 10  2  0  0  0  0
 16  9  1  0  0  0  0
 17 12  1  0  0  0  0
 18 17  3  0  0  0  0
 19  2  1  0  0  0  0
 19 20  1  0  0  0  0
 21 19  1  0  0  0  0
 22 21  1  0  0  0  0
 23 22  2  0  0  0  0
 24 25  2  0  0  0  0
 24 23  1  0  0  0  0
 25 30  1  0  0  0  0
 26 27  2  0  0  0  0
 26 25  1  0  0  0  0
 27 28  1  0  0  0  0
 28 29  2  0  0  0  0
 30 29  1  0  0  0  0
 30 21  2  0  0  0  0
 31 26  1  0  0  0  0
 32 31  1  0  0  0  0
 32 35  1  0  0  0  0
 33 31  2  0  0  0  0
 34 32  1  0  0  0  0
M  END
>  <minimizedAffinity>
-7.37097692

$$$$

 OpenBabel10152419403D

 35 38  0  0  1  0  0  0  0  0999 V2000
   -1.2990   -7.9980  -21.4760 C   0  0  0  0  0  1  0  0  0  0  0  0
   -2.3900   -9.0220  -21.8330 C   0  0  2  0  0  3  0  0  0  0  0  0
   -1.9300  -10.4520  -21.5730 C   0  0  0  0  0  0  0  0  0  0  0  0
   -2.3680  -11.2210  -20.4870 C   0  0  0  0  0  3  0  0  0  0  0  0
   -1.8170  -12.4820  -20.2450 C   0  0  0  0  0  3  0  0  0  0  0  0
   -0.7650  -12.9590  -21.0290 C   0  0  0  0  0  3  0  0  0  0  0  0
   -0.2770  -12.1930  -22.0850 C   0  0  0  0  0  0  0  0  0  0  0  0
   -0.9450  -11.0050  -22.4090 C   0  0  0  0  0  3  0  0  0  0  0  0
    0.9020  -12.4990  -22.8080 N   0  0  0  0  0  0  0  0  0  0  0  0
    1.2400  -12.0500  -24.0870 C   0  0  0  0  0  0  0  0  0  0  0  0
    1.7550  -10.7810  -24.2940 C   0  0  0  0  0  3  0  0  0  0  0  0
    2.0770  -10.4030  -25.5960 C   0  0  0  0  0  0  0  0  0  0  0  0
    1.8280  -11.2750  -26.6530 C   0  0  0  0  0  3  0  0  0  0  0  0
    1.3070  -12.5170  -26.3530 C   0  0  0  0  0  3  0  0  0  0  0  0
    1.0440  -12.9220  -25.0940 N   0  0  0  0  0  0  0  0  0  0  0  0
    0.9700  -13.5170  -22.8610 H   0  0  0  0  0  0  0  0  0  0  0  0
    2.6850   -9.1320  -25.8390 C   0  0  0  0  0  0  0  0  0  0  0  0
    3.1910   -8.1040  -26.0300 N   0  0  0  0  0  0  0  0  0  0  0  0
   -2.8250   -8.7590  -23.2180 N   0  0  0  0  0  0  0  0  0  0  0  0
   -3.5170   -8.0160  -23.2750 H   0  0  0  0  0  0  0  0  0  0  0  0
   -1.9780   -8.5750  -24.2940 C   0  0  0  0  0  0  0  0  0  0  0  0
   -1.9270   -9.6600  -25.0790 N   0  0  0  0  0  0  0  0  0  0  0  0
   -1.2730   -9.5270  -26.2290 C   0  0  0  0  0  3  0  0  0  0  0  0
   -0.6910   -8.4110  -26.6800 N   0  0  0  0  0  0  0  0  0  0  0  0
   -0.6800   -7.3300  -25.8670 C   0  0  0  0  0  0  0  0  0  0  0  0
   -0.0890   -6.1060  -26.2490 C   0  0  0  0  0  0  0  0  0  0  0  0
    0.0020   -5.0260  -25.3510 C   0  0  0  0  0  3  0  0  0  0  0  0
   -0.4690   -5.1480  -24.0530 C   0  0  0  0  0  3  0  0  0  0  0  0
   -1.0940   -6.3300  -23.6730 C   0  0  0  0  0  3  0  0  0  0  0  0
   -1.2630   -7.4000  -24.5870 C   0  0  0  0  0  0  0  0  0  0  0  0
    0.4690   -5.8590  -27.6180 C   0  0  0  0  0  0  0  0  0  0  0  0
    1.5530   -6.5860  -28.0150 N   0  0  0  0  0  0  0  0  0  0  0  0
   -0.0170   -5.0280  -28.3810 O   0  0  0  0  0  0  0  0  0  0  0  0
    1.9420   -6.4330  -28.9340 H   0  0  0  0  0  0  0  0  0  0  0  0
    1.9710   -7.2730  -27.3950 H   0  0  0  0  0  0  0  0  0  0  0  0
  2  3  1  0  0  0  0
  2  1  1  6  0  0  0
  3  4  1  0  0  0  0
  4  5  2  0  0  0  0
  6  5  1  0  0  0  0
  7  6  2  0  0  0  0
  8  7  1  0  0  0  0
  8  3  2  0  0  0  0
  9  7  1  0  0  0  0
 10  9  1  0  0  0  0
 11 10  1  0  0  0  0
 12 11  2  0  0  0  0
 13 14  2  0  0  0  0
 13 12  1  0  0  0  0
 14 15  1  0  0  0  0
 15 10  2  0  0  0  0
 16  9  1  0  0  0  0
 17 12  1  0  0  0  0
 18 17  3  0  0  0  0
 19  2  1  0  0  0  0
 20 19  1  0  0  0  0
 21 19  1  0  0  0  0
 22 21  2  0  0  0  0
 23 22  1  0  0  0  0
 24 23  2  0  0  0  0
 24 25  1  0  0  0  0
 25 30  1  0  0  0  0
 26 25  2  0  0  0  0
 26 27  1  0  0  0  0
 27 28  2  0  0  0  0
 28 29  1  0  0  0  0
 30 21  1  0  0  0  0
 30 29  2  0  0  0  0
 31 26  1  0  0  0  0
 32 31  1  0  0  0  0
 32 35  1  0  0  0  0
 33 31  2  0  0  0  0
 34 32  1  0  0  0  0
M  END
>  <minimizedAffinity>
-7.2758584

$$$$

 OpenBabel10152419403D

 35 38  0  0  1  0  0  0  0  0999 V2000
   -2.4790  -12.7260  -20.8590 C   0  0  0  0  0  1  0  0  0  0  0  0
   -1.1880  -12.0530  -21.3560 C   0  0  2  0  0  3  0  0  0  0  0  0
   -1.3620  -10.5470  -21.5150 C   0  0  0  0  0  0  0  0  0  0  0  0
   -1.7210   -9.6940  -20.4640 C   0  0  0  0  0  3  0  0  0  0  0  0
   -1.9760   -8.3410  -20.7060 C   0  0  0  0  0  3  0  0  0  0  0  0
   -1.9590   -7.8380  -22.0090 C   0  0  0  0  0  3  0  0  0  0  0  0
   -1.6530   -8.6770  -23.0780 C   0  0  0  0  0  0  0  0  0  0  0  0
   -1.2470   -9.9890  -22.8000 C   0  0  0  0  0  3  0  0  0  0  0  0
   -1.7980   -8.3120  -24.4390 N   0  0  0  0  0  0  0  0  0  0  0  0
   -0.9620   -7.4650  -25.1720 C   0  0  0  0  0  0  0  0  0  0  0  0
    0.2410   -7.9120  -25.6910 C   0  0  0  0  0  3  0  0  0  0  0  0
    1.0200   -7.0140  -26.4190 C   0  0  0  0  0  0  0  0  0  0  0  0
    0.6060   -5.6920  -26.5610 C   0  0  0  0  0  3  0  0  0  0  0  0
   -0.6050   -5.3350  -26.0040 C   0  0  0  0  0  3  0  0  0  0  0  0
   -1.4000   -6.2040  -25.3470 N   0  0  0  0  0  0  0  0  0  0  0  0
   -2.7330   -7.9160  -24.5490 H   0  0  0  0  0  0  0  0  0  0  0  0
    2.2310   -7.4590  -27.0370 C   0  0  0  0  0  0  0  0  0  0  0  0
    3.2190   -7.8260  -27.5250 N   0  0  0  0  0  0  0  0  0  0  0  0
   -0.7500  -12.7540  -22.5770 N   0  0  0  0  0  0  0  0  0  0  0  0
   -1.4530  -12.7330  -23.3120 H   0  0  0  0  0  0  0  0  0  0  0  0
    0.4660  -12.5680  -23.2060 C   0  0  0  0  0  0  0  0  0  0  0  0
    1.4920  -12.9320  -22.4250 N   0  0  0  0  0  0  0  0  0  0  0  0
    2.6930  -12.9510  -22.9970 C   0  0  0  0  0  3  0  0  0  0  0  0
    2.9610  -12.6660  -24.2750 N   0  0  0  0  0  0  0  0  0  0  0  0
    1.9430  -12.2340  -25.0550 C   0  0  0  0  0  0  0  0  0  0  0  0
    2.1240  -11.9070  -26.4160 C   0  0  0  0  0  0  0  0  0  0  0  0
    1.0760  -11.3630  -27.1820 C   0  0  0  0  0  3  0  0  0  0  0  0
   -0.1600  -11.1130  -26.6070 C   0  0  0  0  0  3  0  0  0  0  0  0
   -0.3690  -11.4700  -25.2810 C   0  0  0  0  0  3  0  0  0  0  0  0
    0.6500  -12.0890  -24.5150 C   0  0  0  0  0  0  0  0  0  0  0  0
    3.4170  -12.1180  -27.1430 C   0  0  0  0  0  0  0  0  0  0  0  0
    4.5220  -11.4470  -26.7060 N   0  0  0  0  0  0  0  0  0  0  0  0
    3.5060  -12.8670  -28.1120 O   0  0  0  0  0  0  0  0  0  0  0  0
    5.4010  -11.5780  -27.1840 H   0  0  0  0  0  0  0  0  0  0  0  0
    4.4640  -10.8190  -25.9100 H   0  0  0  0  0  0  0  0  0  0  0  0
  2  1  1  6  0  0  0
  3  2  1  0  0  0  0
  3  4  1  0  0  0  0
  5  4  2  0  0  0  0
  6  5  1  0  0  0  0
  7  8  1  0  0  0  0
  7  6  2  0  0  0  0
  8  3  2  0  0  0  0
  9  7  1  0  0  0  0
 10  9  1  0  0  0  0
 11 10  2  0  0  0  0
 12 11  1  0  0  0  0
 13 12  2  0  0  0  0
 13 14  1  0  0  0  0
 14 15  2  0  0  0  0
 15 10  1  0  0  0  0
 16  9  1  0  0  0  0
 17 12  1  0  0  0  0
 18 17  3  0  0  0  0
 19  2  1  0  0  0  0
 20 19  1  0  0  0  0
 21 19  1  0  0  0  0
 21 22  1  0  0  0  0
 23 22  2  0  0  0  0
 24 23  1  0  0  0  0
 25 30  1  0  0  0  0
 25 24  2  0  0  0  0
 26 25  1  0  0  0  0
 27 28  1  0  0  0  0
 27 26  2  0  0  0  0
 28 29  2  0  0  0  0
 29 30  1  0  0  0  0
 30 21  2  0  0  0  0
 31 32  1  0  0  0  0
 31 26  1  0  0  0  0
 32 35  1  0  0  0  0
 33 31  2  0  0  0  0
 34 32  1  0  0  0  0
M  END
>  <minimizedAffinity>
-7.24552393

$$$$
