
 OpenBabel10152419403D

 35 38  0  0  1  0  0  0  0  0999 V2000
   -2.9830   -8.4510  -21.1840 C   0  0  0  0  0  1  0  0  0  0  0  0
   -2.0450   -8.9810  -22.2810 C   0  0  2  0  0  3  0  0  0  0  0  0
   -1.6240  -10.4220  -22.0160 C   0  0  0  0  0  0  0  0  0  0  0  0
   -2.0880  -11.1760  -20.9300 C   0  0  0  0  0  3  0  0  0  0  0  0
   -1.5720  -12.4520  -20.6830 C   0  0  0  0  0  3  0  0  0  0  0  0
   -0.5300  -12.9590  -21.4620 C   0  0  0  0  0  3  0  0  0  0  0  0
   -0.0170  -12.2080  -22.5180 C   0  0  0  0  0  0  0  0  0  0  0  0
   -0.6520  -11.0040  -22.8470 C   0  0  0  0  0  3  0  0  0  0  0  0
    1.1560  -12.5490  -23.2350 N   0  0  0  0  0  0  0  0  0  0  0  0
    1.5190  -12.0980  -24.5070 C   0  0  0  0  0  0  0  0  0  0  0  0
    2.0800  -10.8460  -24.6960 C   0  0  0  0  0  3  0  0  0  0  0  0
    2.4250  -10.4660  -25.9910 C   0  0  0  0  0  0  0  0  0  0  0  0
    2.1530  -11.3180  -27.0600 C   0  0  0  0  0  3  0  0  0  0  0  0
    1.5870  -12.5430  -26.7770 C   0  0  0  0  0  3  0  0  0  0  0  0
    1.3000  -12.9520  -25.5240 N   0  0  0  0  0  0  0  0  0  0  0  0
    1.1890  -13.5670  -23.2990 H   0  0  0  0  0  0  0  0  0  0  0  0
    3.0790   -9.2140  -26.2170 C   0  0  0  0  0  0  0  0  0  0  0  0
    3.5960   -8.1900  -26.3970 N   0  0  0  0  0  0  0  0  0  0  0  0
   -0.9260   -8.0310  -22.4220 N   0  0  0  0  0  0  0  0  0  0  0  0
   -0.0270   -8.4980  -22.5160 H   0  0  0  0  0  0  0  0  0  0  0  0
   -0.8960   -6.9650  -23.3010 C   0  0  0  0  0  0  0  0  0  0  0  0
   -1.0410   -5.7930  -22.6670 N   0  0  0  0  0  0  0  0  0  0  0  0
   -0.8590   -4.6980  -23.4000 C   0  0  0  0  0  3  0  0  0  0  0  0
   -0.5200   -4.6630  -24.6930 N   0  0  0  0  0  0  0  0  0  0  0  0
   -0.4360   -5.8390  -25.3570 C   0  0  0  0  0  0  0  0  0  0  0  0
   -0.0880   -5.9080  -26.7230 C   0  0  0  0  0  0  0  0  0  0  0  0
   -0.1040   -7.1300  -27.4210 C   0  0  0  0  0  3  0  0  0  0  0  0
   -0.4880   -8.2990  -26.7830 C   0  0  0  0  0  3  0  0  0  0  0  0
   -0.7910   -8.2570  -25.4280 C   0  0  0  0  0  3  0  0  0  0  0  0
   -0.7060   -7.0500  -24.6910 C   0  0  0  0  0  0  0  0  0  0  0  0
    0.3290   -4.7100  -27.5230 C   0  0  0  0  0  0  0  0  0  0  0  0
   -0.3020   -3.5240  -27.2880 N   0  0  0  0  0  0  0  0  0  0  0  0
    1.2110   -4.7700  -28.3750 O   0  0  0  0  0  0  0  0  0  0  0  0
   -0.0330   -2.7080  -27.8170 H   0  0  0  0  0  0  0  0  0  0  0  0
   -1.0380   -3.4580  -26.5910 H   0  0  0  0  0  0  0  0  0  0  0  0
  2  3  1  0  0  0  0
  2  1  1  1  0  0  0
  3  4  1  0  0  0  0
  4  5  2  0  0  0  0
  6  5  1  0  0  0  0
  7  6  2  0  0  0  0
  8  7  1  0  0  0  0
  8  3  2  0  0  0  0
  9  7  1  0  0  0  0
 10  9  1  0  0  0  0
 11 10  1  0  0  0  0
 12 11  2  0  0  0  0
 13 14  2  0  0  0  0
 13 12  1  0  0  0  0
 14 15  1  0  0  0  0
 15 10  2  0  0  0  0
 16  9  1  0  0  0  0
 17 12  1  0  0  0  0
 18 17  3  0  0  0  0
 19  2  1  0  0  0  0
 20 19  1  0  0  0  0
 21 22  1  0  0  0  0
 21 19  1  0  0  0  0
 23 22  2  0  0  0  0
 24 23  1  0  0  0  0
 25 24  2  0  0  0  0
 25 30  1  0  0  0  0
 26 25  1  0  0  0  0
 27 28  1  0  0  0  0
 27 26  2  0  0  0  0
 28 29  2  0  0  0  0
 29 30  1  0  0  0  0
 30 21  2  0  0  0  0
 31 32  1  0  0  0  0
 31 26  1  0  0  0  0
 32 35  1  0  0  0  0
 33 31  2  0  0  0  0
 34 32  1  0  0  0  0
M  END
>  <minimizedAffinity>
-8.75301838

$$$$
