
 OpenBabel10152419403D

 35 38  0  0  1  0  0  0  0  0999 V2000
    2.5010  -12.1470  -23.4480 C   0  0  0  0  0  1  0  0  0  0  0  0
    1.9820  -12.8630  -24.7060 C   0  0  2  0  0  3  0  0  0  0  0  0
    2.4860  -12.1990  -25.9820 C   0  0  0  0  0  0  0  0  0  0  0  0
    2.9680  -12.9120  -27.0880 C   0  0  0  0  0  3  0  0  0  0  0  0
    3.5220  -12.2370  -28.1790 C   0  0  0  0  0  3  0  0  0  0  0  0
    3.6810  -10.8500  -28.1490 C   0  0  0  0  0  3  0  0  0  0  0  0
    3.2540  -10.1220  -27.0400 C   0  0  0  0  0  0  0  0  0  0  0  0
    2.5600  -10.7970  -26.0280 C   0  0  0  0  0  3  0  0  0  0  0  0
    3.5440   -8.7510  -26.8340 N   0  0  0  0  0  0  0  0  0  0  0  0
    2.6790   -7.6730  -27.0390 C   0  0  0  0  0  0  0  0  0  0  0  0
    1.7090   -7.3390  -26.1090 C   0  0  0  0  0  3  0  0  0  0  0  0
    0.8870   -6.2460  -26.3750 C   0  0  0  0  0  0  0  0  0  0  0  0
    1.0190   -5.5550  -27.5780 C   0  0  0  0  0  3  0  0  0  0  0  0
    2.0100   -5.9630  -28.4470 C   0  0  0  0  0  3  0  0  0  0  0  0
    2.8530   -6.9810  -28.1800 N   0  0  0  0  0  0  0  0  0  0  0  0
    4.3740   -8.5290  -27.3860 H   0  0  0  0  0  0  0  0  0  0  0  0
   -0.0730   -5.8220  -25.4040 C   0  0  0  0  0  0  0  0  0  0  0  0
   -0.8470   -5.4640  -24.6140 N   0  0  0  0  0  0  0  0  0  0  0  0
    0.5140  -12.9590  -24.6020 N   0  0  0  0  0  0  0  0  0  0  0  0
    0.1890  -13.9220  -24.5470 H   0  0  0  0  0  0  0  0  0  0  0  0
   -0.2670  -12.2400  -23.7180 C   0  0  0  0  0  0  0  0  0  0  0  0
   -0.3110  -12.8180  -22.5090 N   0  0  0  0  0  0  0  0  0  0  0  0
   -0.8970  -12.1190  -21.5410 C   0  0  0  0  0  3  0  0  0  0  0  0
   -1.4180  -10.8930  -21.6590 N   0  0  0  0  0  0  0  0  0  0  0  0
   -1.4380  -10.3300  -22.8880 C   0  0  0  0  0  0  0  0  0  0  0  0
   -1.9680   -9.0410  -23.1170 C   0  0  0  0  0  0  0  0  0  0  0  0
   -2.0720   -8.5150  -24.4190 C   0  0  0  0  0  3  0  0  0  0  0  0
   -1.6760   -9.2640  -25.5150 C   0  0  0  0  0  3  0  0  0  0  0  0
   -1.1110  -10.5160  -25.3050 C   0  0  0  0  0  3  0  0  0  0  0  0
   -0.9270  -11.0310  -23.9980 C   0  0  0  0  0  0  0  0  0  0  0  0
   -2.4430   -8.1440  -22.0150 C   0  0  0  0  0  0  0  0  0  0  0  0
   -2.0450   -6.8390  -22.0260 N   0  0  0  0  0  0  0  0  0  0  0  0
   -3.1700   -8.5490  -21.1120 O   0  0  0  0  0  0  0  0  0  0  0  0
   -2.3560   -6.2210  -21.2910 H   0  0  0  0  0  0  0  0  0  0  0  0
   -1.4390   -6.4890  -22.7620 H   0  0  0  0  0  0  0  0  0  0  0  0
  2 19  1  0  0  0  0
  2  1  1  1  0  0  0
  3  2  1  0  0  0  0
  4  3  2  0  0  0  0
  5  6  2  0  0  0  0
  5  4  1  0  0  0  0
  6  7  1  0  0  0  0
  7  9  1  0  0  0  0
  7  8  2  0  0  0  0
  8  3  1  0  0  0  0
 10  9  1  0  0  0  0
 10 11  1  0  0  0  0
 12 11  2  0  0  0  0
 12 17  1  0  0  0  0
 13 12  1  0  0  0  0
 14 15  1  0  0  0  0
 14 13  2  0  0  0  0
 15 10  2  0  0  0  0
 16  9  1  0  0  0  0
 17 18  3  0  0  0  0
 19 20  1  0  0  0  0
 19 21  1  0  0  0  0
 21 22  1  0  0  0  0
 22 23  2  0  0  0  0
 24 23  1  0  0  0  0
 25 24  2  0  0  0  0
 26 25  1  0  0  0  0
 26 31  1  0  0  0  0
 27 26  2  0  0  0  0
 28 29  2  0  0  0  0
 28 27  1  0  0  0  0
 29 30  1  0  0  0  0
 30 21  2  0  0  0  0
 30 25  1  0  0  0  0
 31 33  2  0  0  0  0
 32 31  1  0  0  0  0
 32 34  1  0  0  0  0
 35 32  1  0  0  0  0
M  END
>  <minimizedAffinity>
-9.18744469

$$$$
