
 OpenBabel10152419403D

 35 38  0  0  1  0  0  0  0  0999 V2000
   -2.4790  -12.7260  -20.8590 C   0  0  0  0  0  1  0  0  0  0  0  0
   -1.1880  -12.0530  -21.3560 C   0  0  2  0  0  3  0  0  0  0  0  0
   -1.3620  -10.5470  -21.5150 C   0  0  0  0  0  0  0  0  0  0  0  0
   -1.7210   -9.6940  -20.4640 C   0  0  0  0  0  3  0  0  0  0  0  0
   -1.9760   -8.3410  -20.7060 C   0  0  0  0  0  3  0  0  0  0  0  0
   -1.9590   -7.8380  -22.0090 C   0  0  0  0  0  3  0  0  0  0  0  0
   -1.6530   -8.6770  -23.0780 C   0  0  0  0  0  0  0  0  0  0  0  0
   -1.2470   -9.9890  -22.8000 C   0  0  0  0  0  3  0  0  0  0  0  0
   -1.7980   -8.3120  -24.4390 N   0  0  0  0  0  0  0  0  0  0  0  0
   -0.9620   -7.4650  -25.1720 C   0  0  0  0  0  0  0  0  0  0  0  0
    0.2410   -7.9120  -25.6910 C   0  0  0  0  0  3  0  0  0  0  0  0
    1.0200   -7.0140  -26.4190 C   0  0  0  0  0  0  0  0  0  0  0  0
    0.6060   -5.6920  -26.5610 C   0  0  0  0  0  3  0  0  0  0  0  0
   -0.6050   -5.3350  -26.0040 C   0  0  0  0  0  3  0  0  0  0  0  0
   -1.4000   -6.2040  -25.3470 N   0  0  0  0  0  0  0  0  0  0  0  0
   -2.7330   -7.9160  -24.5490 H   0  0  0  0  0  0  0  0  0  0  0  0
    2.2310   -7.4590  -27.0370 C   0  0  0  0  0  0  0  0  0  0  0  0
    3.2190   -7.8260  -27.5250 N   0  0  0  0  0  0  0  0  0  0  0  0
   -0.7500  -12.7540  -22.5770 N   0  0  0  0  0  0  0  0  0  0  0  0
   -1.4530  -12.7330  -23.3120 H   0  0  0  0  0  0  0  0  0  0  0  0
    0.4660  -12.5680  -23.2060 C   0  0  0  0  0  0  0  0  0  0  0  0
    1.4920  -12.9320  -22.4250 N   0  0  0  0  0  0  0  0  0  0  0  0
    2.6930  -12.9510  -22.9970 C   0  0  0  0  0  3  0  0  0  0  0  0
    2.9610  -12.6660  -24.2750 N   0  0  0  0  0  0  0  0  0  0  0  0
    1.9430  -12.2340  -25.0550 C   0  0  0  0  0  0  0  0  0  0  0  0
    2.1240  -11.9070  -26.4160 C   0  0  0  0  0  0  0  0  0  0  0  0
    1.0760  -11.3630  -27.1820 C   0  0  0  0  0  3  0  0  0  0  0  0
   -0.1600  -11.1130  -26.6070 C   0  0  0  0  0  3  0  0  0  0  0  0
   -0.3690  -11.4700  -25.2810 C   0  0  0  0  0  3  0  0  0  0  0  0
    0.6500  -12.0890  -24.5150 C   0  0  0  0  0  0  0  0  0  0  0  0
    3.4170  -12.1180  -27.1430 C   0  0  0  0  0  0  0  0  0  0  0  0
    4.5220  -11.4470  -26.7060 N   0  0  0  0  0  0  0  0  0  0  0  0
    3.5060  -12.8670  -28.1120 O   0  0  0  0  0  0  0  0  0  0  0  0
    5.4010  -11.5780  -27.1840 H   0  0  0  0  0  0  0  0  0  0  0  0
    4.4640  -10.8190  -25.9100 H   0  0  0  0  0  0  0  0  0  0  0  0
  2  1  1  6  0  0  0
  3  2  1  0  0  0  0
  3  4  1  0  0  0  0
  5  4  2  0  0  0  0
  6  5  1  0  0  0  0
  7  8  1  0  0  0  0
  7  6  2  0  0  0  0
  8  3  2  0  0  0  0
  9  7  1  0  0  0  0
 10  9  1  0  0  0  0
 11 10  2  0  0  0  0
 12 11  1  0  0  0  0
 13 12  2  0  0  0  0
 13 14  1  0  0  0  0
 14 15  2  0  0  0  0
 15 10  1  0  0  0  0
 16  9  1  0  0  0  0
 17 12  1  0  0  0  0
 18 17  3  0  0  0  0
 19  2  1  0  0  0  0
 20 19  1  0  0  0  0
 21 19  1  0  0  0  0
 21 22  1  0  0  0  0
 23 22  2  0  0  0  0
 24 23  1  0  0  0  0
 25 30  1  0  0  0  0
 25 24  2  0  0  0  0
 26 25  1  0  0  0  0
 27 28  1  0  0  0  0
 27 26  2  0  0  0  0
 28 29  2  0  0  0  0
 29 30  1  0  0  0  0
 30 21  2  0  0  0  0
 31 32  1  0  0  0  0
 31 26  1  0  0  0  0
 32 35  1  0  0  0  0
 33 31  2  0  0  0  0
 34 32  1  0  0  0  0
M  END
>  <minimizedAffinity>
-7.24552393

$$$$
