
 OpenBabel10152419403D

 35 38  0  0  1  0  0  0  0  0999 V2000
    1.2680   -5.3640  -28.0880 C   0  0  0  0  0  1  0  0  0  0  0  0
    1.2360   -6.5410  -27.0980 C   0  0  2  0  0  3  0  0  0  0  0  0
    2.4750   -7.4200  -27.2270 C   0  0  0  0  0  0  0  0  0  0  0  0
    3.6570   -7.0050  -27.8540 C   0  0  0  0  0  3  0  0  0  0  0  0
    4.7140   -7.9010  -28.0390 C   0  0  0  0  0  3  0  0  0  0  0  0
    4.5760   -9.2430  -27.6770 C   0  0  0  0  0  3  0  0  0  0  0  0
    3.3930   -9.6930  -27.0960 C   0  0  0  0  0  0  0  0  0  0  0  0
    2.4080   -8.7490  -26.7760 C   0  0  0  0  0  3  0  0  0  0  0  0
    3.0880  -11.0580  -26.8750 N   0  0  0  0  0  0  0  0  0  0  0  0
    2.8660  -11.6780  -25.6420 C   0  0  0  0  0  0  0  0  0  0  0  0
    1.6500  -11.5700  -24.9880 C   0  0  0  0  0  3  0  0  0  0  0  0
    1.4980  -12.2210  -23.7660 C   0  0  0  0  0  0  0  0  0  0  0  0
    2.5720  -12.9110  -23.2080 C   0  0  0  0  0  3  0  0  0  0  0  0
    3.7480  -12.9590  -23.9290 C   0  0  0  0  0  3  0  0  0  0  0  0
    3.8950  -12.3850  -25.1400 N   0  0  0  0  0  0  0  0  0  0  0  0
    3.8250  -11.6100  -27.3170 H   0  0  0  0  0  0  0  0  0  0  0  0
    0.2330  -12.1980  -23.0990 C   0  0  0  0  0  0  0  0  0  0  0  0
   -0.7940  -12.1960  -22.5550 N   0  0  0  0  0  0  0  0  0  0  0  0
   -0.0430   -7.2530  -27.2790 N   0  0  0  0  0  0  0  0  0  0  0  0
   -0.0130   -7.9210  -28.0460 H   0  0  0  0  0  0  0  0  0  0  0  0
   -0.7600   -7.8640  -26.2680 C   0  0  0  0  0  0  0  0  0  0  0  0
   -1.2160   -9.0690  -26.6390 N   0  0  0  0  0  0  0  0  0  0  0  0
   -1.7740   -9.8090  -25.6850 C   0  0  0  0  0  3  0  0  0  0  0  0
   -1.8950   -9.4720  -24.3970 N   0  0  0  0  0  0  0  0  0  0  0  0
   -1.4990   -8.2330  -24.0260 C   0  0  0  0  0  0  0  0  0  0  0  0
   -1.5880   -7.7820  -22.6910 C   0  0  0  0  0  0  0  0  0  0  0  0
   -1.2660   -6.4560  -22.3450 C   0  0  0  0  0  3  0  0  0  0  0  0
   -0.8730   -5.5500  -23.3170 C   0  0  0  0  0  3  0  0  0  0  0  0
   -0.7370   -5.9890  -24.6290 C   0  0  0  0  0  3  0  0  0  0  0  0
   -0.9830   -7.3380  -24.9830 C   0  0  0  0  0  0  0  0  0  0  0  0
   -2.0150   -8.6630  -21.5560 C   0  0  0  0  0  0  0  0  0  0  0  0
   -1.0710   -9.4380  -20.9490 N   0  0  0  0  0  0  0  0  0  0  0  0
   -3.1790   -8.7060  -21.1660 O   0  0  0  0  0  0  0  0  0  0  0  0
   -1.3410  -10.0380  -20.1830 H   0  0  0  0  0  0  0  0  0  0  0  0
   -0.1060   -9.4190  -21.2640 H   0  0  0  0  0  0  0  0  0  0  0  0
  2  1  1  6  0  0  0
  3  2  1  0  0  0  0
  3  8  1  0  0  0  0
  4  3  2  0  0  0  0
  5  4  1  0  0  0  0
  5  6  2  0  0  0  0
  6  7  1  0  0  0  0
  7  9  1  0  0  0  0
  7  8  2  0  0  0  0
  9 10  1  0  0  0  0
 10 15  2  0  0  0  0
 10 11  1  0  0  0  0
 11 12  2  0  0  0  0
 12 13  1  0  0  0  0
 12 17  1  0  0  0  0
 14 13  2  0  0  0  0
 15 14  1  0  0  0  0
 16  9  1  0  0  0  0
 17 18  3  0  0  0  0
 19  2  1  0  0  0  0
 19 21  1  0  0  0  0
 20 19  1  0  0  0  0
 21 30  1  0  0  0  0
 22 21  2  0  0  0  0
 22 23  1  0  0  0  0
 23 24  2  0  0  0  0
 24 25  1  0  0  0  0
 25 26  1  0  0  0  0
 26 27  2  0  0  0  0
 26 31  1  0  0  0  0
 28 27  1  0  0  0  0
 29 28  2  0  0  0  0
 30 29  1  0  0  0  0
 30 25  2  0  0  0  0
 31 33  2  0  0  0  0
 31 32  1  0  0  0  0
 32 34  1  0  0  0  0
 35 32  1  0  0  0  0
M  END
>  <minimizedAffinity>
-9.22777557

$$$$
