
 OpenBabel10152419403D

 35 38  0  0  1  0  0  0  0  0999 V2000
   -0.8530   -5.1690  -23.3830 C   0  0  0  0  0  1  0  0  0  0  0  0
   -0.8140   -6.5910  -23.9690 C   0  0  2  0  0  3  0  0  0  0  0  0
   -1.3950   -7.6150  -23.0020 C   0  0  0  0  0  0  0  0  0  0  0  0
   -1.7510   -7.3170  -21.6800 C   0  0  0  0  0  3  0  0  0  0  0  0
   -2.1700   -8.3310  -20.8130 C   0  0  0  0  0  3  0  0  0  0  0  0
   -2.1590   -9.6660  -21.2260 C   0  0  0  0  0  3  0  0  0  0  0  0
   -1.7630   -9.9940  -22.5210 C   0  0  0  0  0  0  0  0  0  0  0  0
   -1.5000   -8.9530  -23.4200 C   0  0  0  0  0  3  0  0  0  0  0  0
   -1.5360  -11.3190  -22.9670 N   0  0  0  0  0  0  0  0  0  0  0  0
   -0.5090  -11.7530  -23.8100 C   0  0  0  0  0  0  0  0  0  0  0  0
    0.7730  -11.9700  -23.3340 C   0  0  0  0  0  3  0  0  0  0  0  0
    1.7450  -12.4100  -24.2310 C   0  0  0  0  0  0  0  0  0  0  0  0
    1.4260  -12.5680  -25.5780 C   0  0  0  0  0  3  0  0  0  0  0  0
    0.1230  -12.3220  -25.9620 C   0  0  0  0  0  3  0  0  0  0  0  0
   -0.8440  -11.9520  -25.0990 N   0  0  0  0  0  0  0  0  0  0  0  0
   -2.3950  -11.6420  -23.4130 H   0  0  0  0  0  0  0  0  0  0  0  0
    3.0590  -12.7210  -23.7610 C   0  0  0  0  0  0  0  0  0  0  0  0
    4.1310  -12.9580  -23.3800 N   0  0  0  0  0  0  0  0  0  0  0  0
    0.5690   -6.8670  -24.3990 N   0  0  0  0  0  0  0  0  0  0  0  0
    0.9680   -7.6770  -23.9300 H   0  0  0  0  0  0  0  0  0  0  0  0
    0.9930   -6.9380  -25.7120 C   0  0  0  0  0  0  0  0  0  0  0  0
    0.4090   -6.0030  -26.4750 N   0  0  0  0  0  0  0  0  0  0  0  0
    0.8730   -5.8770  -27.7150 C   0  0  0  0  0  3  0  0  0  0  0  0
    1.8770   -6.5760  -28.2540 N   0  0  0  0  0  0  0  0  0  0  0  0
    2.4280   -7.5660  -27.5160 C   0  0  0  0  0  0  0  0  0  0  0  0
    3.4910   -8.3620  -27.9960 C   0  0  0  0  0  0  0  0  0  0  0  0
    3.9820   -9.4520  -27.2540 C   0  0  0  0  0  3  0  0  0  0  0  0
    3.4130   -9.7860  -26.0350 C   0  0  0  0  0  3  0  0  0  0  0  0
    2.3960   -8.9880  -25.5260 C   0  0  0  0  0  3  0  0  0  0  0  0
    1.9410   -7.8410  -26.2230 C   0  0  0  0  0  0  0  0  0  0  0  0
    4.1750   -8.1090  -29.3060 C   0  0  0  0  0  0  0  0  0  0  0  0
    4.4170   -6.8160  -29.6700 N   0  0  0  0  0  0  0  0  0  0  0  0
    4.5180   -9.0230  -30.0500 O   0  0  0  0  0  0  0  0  0  0  0  0
    4.8770   -6.6280  -30.5480 H   0  0  0  0  0  0  0  0  0  0  0  0
    4.1350   -6.0480  -29.0680 H   0  0  0  0  0  0  0  0  0  0  0  0
  2  1  1  1  0  0  0
  2  3  1  0  0  0  0
  3  4  1  0  0  0  0
  4  5  2  0  0  0  0
  6  5  1  0  0  0  0
  7  6  2  0  0  0  0
  8  3  2  0  0  0  0
  8  7  1  0  0  0  0
  9  7  1  0  0  0  0
 10 11  1  0  0  0  0
 10  9  1  0  0  0  0
 12 17  1  0  0  0  0
 12 11  2  0  0  0  0
 13 12  1  0  0  0  0
 14 13  2  0  0  0  0
 14 15  1  0  0  0  0
 15 10  2  0  0  0  0
 16  9  1  0  0  0  0
 17 18  3  0  0  0  0
 19  2  1  0  0  0  0
 19 20  1  0  0  0  0
 21 19  1  0  0  0  0
 22 21  2  0  0  0  0
 23 22  1  0  0  0  0
 24 23  2  0  0  0  0
 24 25  1  0  0  0  0
 25 30  1  0  0  0  0
 26 25  2  0  0  0  0
 26 27  1  0  0  0  0
 27 28  2  0  0  0  0
 28 29  1  0  0  0  0
 30 21  1  0  0  0  0
 30 29  2  0  0  0  0
 31 26  1  0  0  0  0
 32 31  1  0  0  0  0
 32 35  1  0  0  0  0
 33 31  2  0  0  0  0
 34 32  1  0  0  0  0
M  END
>  <minimizedAffinity>
-8.9756937

$$$$
