
 OpenBabel10152419403D

 35 38  0  0  1  0  0  0  0  0999 V2000
   -1.2990   -7.9980  -21.4760 C   0  0  0  0  0  1  0  0  0  0  0  0
   -2.3900   -9.0220  -21.8330 C   0  0  2  0  0  3  0  0  0  0  0  0
   -1.9300  -10.4520  -21.5730 C   0  0  0  0  0  0  0  0  0  0  0  0
   -2.3680  -11.2210  -20.4870 C   0  0  0  0  0  3  0  0  0  0  0  0
   -1.8170  -12.4820  -20.2450 C   0  0  0  0  0  3  0  0  0  0  0  0
   -0.7650  -12.9590  -21.0290 C   0  0  0  0  0  3  0  0  0  0  0  0
   -0.2770  -12.1930  -22.0850 C   0  0  0  0  0  0  0  0  0  0  0  0
   -0.9450  -11.0050  -22.4090 C   0  0  0  0  0  3  0  0  0  0  0  0
    0.9020  -12.4990  -22.8080 N   0  0  0  0  0  0  0  0  0  0  0  0
    1.2400  -12.0500  -24.0870 C   0  0  0  0  0  0  0  0  0  0  0  0
    1.7550  -10.7810  -24.2940 C   0  0  0  0  0  3  0  0  0  0  0  0
    2.0770  -10.4030  -25.5960 C   0  0  0  0  0  0  0  0  0  0  0  0
    1.8280  -11.2750  -26.6530 C   0  0  0  0  0  3  0  0  0  0  0  0
    1.3070  -12.5170  -26.3530 C   0  0  0  0  0  3  0  0  0  0  0  0
    1.0440  -12.9220  -25.0940 N   0  0  0  0  0  0  0  0  0  0  0  0
    0.9700  -13.5170  -22.8610 H   0  0  0  0  0  0  0  0  0  0  0  0
    2.6850   -9.1320  -25.8390 C   0  0  0  0  0  0  0  0  0  0  0  0
    3.1910   -8.1040  -26.0300 N   0  0  0  0  0  0  0  0  0  0  0  0
   -2.8250   -8.7590  -23.2180 N   0  0  0  0  0  0  0  0  0  0  0  0
   -3.5170   -8.0160  -23.2750 H   0  0  0  0  0  0  0  0  0  0  0  0
   -1.9780   -8.5750  -24.2940 C   0  0  0  0  0  0  0  0  0  0  0  0
   -1.9270   -9.6600  -25.0790 N   0  0  0  0  0  0  0  0  0  0  0  0
   -1.2730   -9.5270  -26.2290 C   0  0  0  0  0  3  0  0  0  0  0  0
   -0.6910   -8.4110  -26.6800 N   0  0  0  0  0  0  0  0  0  0  0  0
   -0.6800   -7.3300  -25.8670 C   0  0  0  0  0  0  0  0  0  0  0  0
   -0.0890   -6.1060  -26.2490 C   0  0  0  0  0  0  0  0  0  0  0  0
    0.0020   -5.0260  -25.3510 C   0  0  0  0  0  3  0  0  0  0  0  0
   -0.4690   -5.1480  -24.0530 C   0  0  0  0  0  3  0  0  0  0  0  0
   -1.0940   -6.3300  -23.6730 C   0  0  0  0  0  3  0  0  0  0  0  0
   -1.2630   -7.4000  -24.5870 C   0  0  0  0  0  0  0  0  0  0  0  0
    0.4690   -5.8590  -27.6180 C   0  0  0  0  0  0  0  0  0  0  0  0
    1.5530   -6.5860  -28.0150 N   0  0  0  0  0  0  0  0  0  0  0  0
   -0.0170   -5.0280  -28.3810 O   0  0  0  0  0  0  0  0  0  0  0  0
    1.9420   -6.4330  -28.9340 H   0  0  0  0  0  0  0  0  0  0  0  0
    1.9710   -7.2730  -27.3950 H   0  0  0  0  0  0  0  0  0  0  0  0
  2  3  1  0  0  0  0
  2  1  1  6  0  0  0
  3  4  1  0  0  0  0
  4  5  2  0  0  0  0
  6  5  1  0  0  0  0
  7  6  2  0  0  0  0
  8  7  1  0  0  0  0
  8  3  2  0  0  0  0
  9  7  1  0  0  0  0
 10  9  1  0  0  0  0
 11 10  1  0  0  0  0
 12 11  2  0  0  0  0
 13 14  2  0  0  0  0
 13 12  1  0  0  0  0
 14 15  1  0  0  0  0
 15 10  2  0  0  0  0
 16  9  1  0  0  0  0
 17 12  1  0  0  0  0
 18 17  3  0  0  0  0
 19  2  1  0  0  0  0
 20 19  1  0  0  0  0
 21 19  1  0  0  0  0
 22 21  2  0  0  0  0
 23 22  1  0  0  0  0
 24 23  2  0  0  0  0
 24 25  1  0  0  0  0
 25 30  1  0  0  0  0
 26 25  2  0  0  0  0
 26 27  1  0  0  0  0
 27 28  2  0  0  0  0
 28 29  1  0  0  0  0
 30 21  1  0  0  0  0
 30 29  2  0  0  0  0
 31 26  1  0  0  0  0
 32 31  1  0  0  0  0
 32 35  1  0  0  0  0
 33 31  2  0  0  0  0
 34 32  1  0  0  0  0
M  END
>  <minimizedAffinity>
-7.2758584

$$$$
