
 OpenBabel10152419393D

 39 42  0  0  0  0  0  0  0  0999 V2000
    2.0460  -12.1810  -26.3380 C   0  0  0  0  0  0  0  0  0  0  0  0
    3.0310  -12.8550  -25.6030 C   0  0  0  0  0  3  0  0  0  0  0  0
    4.3550  -12.4210  -25.6260 C   0  0  0  0  0  3  0  0  0  0  0  0
    4.7220  -11.3300  -26.4160 C   0  0  0  0  0  3  0  0  0  0  0  0
    3.7740  -10.6790  -27.2040 C   0  0  0  0  0  0  0  0  0  0  0  0
    2.4360  -11.0920  -27.1370 C   0  0  0  0  0  3  0  0  0  0  0  0
    4.0650   -9.5820  -28.0370 N   0  0  0  0  0  0  0  0  0  0  0  0
    3.4450   -8.3660  -28.2020 C   0  0  0  0  0  0  0  0  0  0  0  0
    3.6780   -7.6820  -29.1980 O   0  0  0  0  0  0  0  0  0  0  0  0
    4.8390   -9.6990  -28.6820 H   0  0  0  0  0  0  0  0  0  0  0  0
    2.5710   -7.7940  -27.1530 C   0  0  0  0  0  0  0  0  0  0  0  0
    2.7840   -8.1640  -25.8240 C   0  0  0  0  0  3  0  0  0  0  0  0
    1.9590   -7.6500  -24.8230 C   0  0  0  0  0  3  0  0  0  0  0  0
    0.9100   -6.7800  -25.1460 C   0  0  0  0  0  0  0  0  0  0  0  0
   -0.0530   -6.1790  -23.8450 Cl  0  0  0  0  0  0  0  0  0  0  0  0
    0.6630   -6.4250  -26.4790 C   0  0  0  0  0  0  0  0  0  0  0  0
    1.5000   -6.9530  -27.4830 C   0  0  0  0  0  3  0  0  0  0  0  0
   -0.4630   -5.4970  -26.8520 C   0  0  0  0  0  0  0  0  0  0  0  0
   -0.3000   -4.2360  -26.3680 F   0  0  0  0  0  0  0  0  0  0  0  0
   -0.6270   -5.3780  -28.1980 F   0  0  0  0  0  0  0  0  0  0  0  0
   -1.6720   -5.9130  -26.3760 F   0  0  0  0  0  0  0  0  0  0  0  0
    0.6050  -12.6480  -26.3590 C   0  0  0  0  0  2  0  0  0  0  0  0
   -2.2210   -9.4160  -22.0240 C   0  0  0  0  0  0  0  0  0  0  0  0
   -1.9760  -10.2450  -20.9210 C   0  0  0  0  0  3  0  0  0  0  0  0
   -1.2760  -11.4270  -21.1010 C   0  0  0  0  0  3  0  0  0  0  0  0
   -0.8500  -11.7700  -22.3820 C   0  0  0  0  0  3  0  0  0  0  0  0
   -1.1160  -10.9370  -23.5020 C   0  0  0  0  0  0  0  0  0  0  0  0
   -0.7190  -11.2390  -24.8210 C   0  0  0  0  0  0  0  0  0  0  0  0
   -0.0660  -12.4400  -25.0890 N   0  0  0  0  0  0  0  0  0  0  0  0
   -0.9290  -10.3930  -25.8400 N   0  0  0  0  0  0  0  0  0  0  0  0
   -1.5720   -9.2580  -25.5550 C   0  0  0  0  0  3  0  0  0  0  0  0
   -2.0170   -8.8850  -24.3530 N   0  0  0  0  0  0  0  0  0  0  0  0
   -1.7980   -9.7220  -23.3240 C   0  0  0  0  0  0  0  0  0  0  0  0
   -0.4800  -13.2600  -24.6680 H   0  0  0  0  0  0  0  0  0  0  0  0
   -2.2320   -7.0960  -21.4070 N   0  0  0  0  0  0  0  0  0  0  0  0
   -2.9790   -8.1810  -21.7680 C   0  0  0  0  0  0  0  0  0  0  0  0
   -4.2010   -8.1630  -21.7970 O   0  0  0  0  0  0  0  0  0  0  0  0
   -2.7230   -6.2330  -21.2100 H   0  0  0  0  0  0  0  0  0  0  0  0
   -1.2230   -7.1010  -21.3860 H   0  0  0  0  0  0  0  0  0  0  0  0
  1  2  1  0  0  0  0
  3  2  2  0  0  0  0
  4  3  1  0  0  0  0
  5  6  1  0  0  0  0
  5  4  2  0  0  0  0
  6  1  2  0  0  0  0
  7  5  1  0  0  0  0
  8  7  1  0  0  0  0
  8 11  1  0  0  0  0
  9  8  2  0  0  0  0
 10  7  1  0  0  0  0
 11 12  1  0  0  0  0
 12 13  2  0  0  0  0
 14 13  1  0  0  0  0
 14 15  1  0  0  0  0
 16 14  2  0  0  0  0
 17 11  2  0  0  0  0
 17 16  1  0  0  0  0
 18 16  1  0  0  0  0
 18 21  1  0  0  0  0
 18 19  1  0  0  0  0
 20 18  1  0  0  0  0
 22  1  1  0  0  0  0
 22 29  1  0  0  0  0
 23 36  1  0  0  0  0
 23 24  1  0  0  0  0
 25 24  2  0  0  0  0
 26 25  1  0  0  0  0
 27 33  1  0  0  0  0
 27 26  2  0  0  0  0
 28 27  1  0  0  0  0
 29 28  1  0  0  0  0
 29 34  1  0  0  0  0
 30 31  1  0  0  0  0
 30 28  2  0  0  0  0
 31 32  2  0  0  0  0
 32 33  1  0  0  0  0
 33 23  2  0  0  0  0
 35 39  1  0  0  0  0
 35 38  1  0  0  0  0
 36 35  1  0  0  0  0
 37 36  2  0  0  0  0
M  END
>  <minimizedAffinity>
-10.160079

$$$$

 OpenBabel10152419393D

 39 42  0  0  0  0  0  0  0  0999 V2000
   -0.6180   -6.0980  -26.9580 C   0  0  0  0  0  0  0  0  0  0  0  0
   -0.7410   -4.7130  -26.7850 C   0  0  0  0  0  3  0  0  0  0  0  0
    0.2500   -3.8500  -27.2470 C   0  0  0  0  0  3  0  0  0  0  0  0
    1.3970   -4.3600  -27.8570 C   0  0  0  0  0  3  0  0  0  0  0  0
    1.5730   -5.7370  -27.9880 C   0  0  0  0  0  0  0  0  0  0  0  0
    0.5500   -6.5960  -27.5630 C   0  0  0  0  0  3  0  0  0  0  0  0
    2.7050   -6.3310  -28.5770 N   0  0  0  0  0  0  0  0  0  0  0  0
    3.5490   -7.3260  -28.1420 C   0  0  0  0  0  0  0  0  0  0  0  0
    4.6500   -7.4770  -28.6700 O   0  0  0  0  0  0  0  0  0  0  0  0
    3.0080   -5.9430  -29.4640 H   0  0  0  0  0  0  0  0  0  0  0  0
    3.1300   -8.3020  -27.1130 C   0  0  0  0  0  0  0  0  0  0  0  0
    2.6170   -7.8280  -25.9040 C   0  0  0  0  0  3  0  0  0  0  0  0
    2.2330   -8.7320  -24.9140 C   0  0  0  0  0  3  0  0  0  0  0  0
    2.3740  -10.1100  -25.1190 C   0  0  0  0  0  0  0  0  0  0  0  0
    1.8610  -11.1600  -23.8480 Cl  0  0  0  0  0  0  0  0  0  0  0  0
    2.9180  -10.6020  -26.3140 C   0  0  0  0  0  0  0  0  0  0  0  0
    3.3060   -9.6790  -27.3070 C   0  0  0  0  0  3  0  0  0  0  0  0
    3.0860  -12.0780  -26.5550 C   0  0  0  0  0  0  0  0  0  0  0  0
    3.8900  -12.6820  -25.6380 F   0  0  0  0  0  0  0  0  0  0  0  0
    1.9050  -12.7550  -26.5410 F   0  0  0  0  0  0  0  0  0  0  0  0
    3.6470  -12.3580  -27.7670 F   0  0  0  0  0  0  0  0  0  0  0  0
   -1.6620   -7.0660  -26.4370 C   0  0  0  0  0  2  0  0  0  0  0  0
   -1.4640  -10.8610  -21.6640 C   0  0  0  0  0  0  0  0  0  0  0  0
   -1.5650   -9.9280  -20.6230 C   0  0  0  0  0  3  0  0  0  0  0  0
   -1.6430   -8.5790  -20.9240 C   0  0  0  0  0  3  0  0  0  0  0  0
   -1.5990   -8.1810  -22.2590 C   0  0  0  0  0  3  0  0  0  0  0  0
   -1.4790   -9.1280  -23.3120 C   0  0  0  0  0  0  0  0  0  0  0  0
   -1.4190   -8.7830  -24.6780 C   0  0  0  0  0  0  0  0  0  0  0  0
   -1.4300   -7.4420  -25.0550 N   0  0  0  0  0  0  0  0  0  0  0  0
   -1.3740   -9.7110  -25.6460 N   0  0  0  0  0  0  0  0  0  0  0  0
   -1.3490  -10.9870  -25.2540 C   0  0  0  0  0  3  0  0  0  0  0  0
   -1.3720  -11.4240  -23.9920 N   0  0  0  0  0  0  0  0  0  0  0  0
   -1.4300  -10.5010  -23.0170 C   0  0  0  0  0  0  0  0  0  0  0  0
   -0.8080   -6.8420  -24.5310 H   0  0  0  0  0  0  0  0  0  0  0  0
   -2.5620  -12.9440  -21.2020 N   0  0  0  0  0  0  0  0  0  0  0  0
   -1.3730  -12.2770  -21.2760 C   0  0  0  0  0  0  0  0  0  0  0  0
   -0.3080  -12.7870  -20.9630 O   0  0  0  0  0  0  0  0  0  0  0  0
   -2.5380  -13.9180  -20.9240 H   0  0  0  0  0  0  0  0  0  0  0  0
   -3.4460  -12.5320  -21.4650 H   0  0  0  0  0  0  0  0  0  0  0  0
  1  2  1  0  0  0  0
  1 22  1  0  0  0  0
  3  2  2  0  0  0  0
  4  3  1  0  0  0  0
  5  4  2  0  0  0  0
  5  6  1  0  0  0  0
  6  1  2  0  0  0  0
  7  8  1  0  0  0  0
  7  5  1  0  0  0  0
  8 11  1  0  0  0  0
  9  8  2  0  0  0  0
 10  7  1  0  0  0  0
 11 12  1  0  0  0  0
 12 13  2  0  0  0  0
 14 13  1  0  0  0  0
 14 15  1  0  0  0  0
 16 14  2  0  0  0  0
 17 11  2  0  0  0  0
 17 16  1  0  0  0  0
 18 20  1  0  0  0  0
 18 16  1  0  0  0  0
 18 19  1  0  0  0  0
 21 18  1  0  0  0  0
 22 29  1  0  0  0  0
 23 36  1  0  0  0  0
 23 24  1  0  0  0  0
 25 24  2  0  0  0  0
 26 25  1  0  0  0  0
 27 33  1  0  0  0  0
 27 26  2  0  0  0  0
 28 27  1  0  0  0  0
 29 28  1  0  0  0  0
 29 34  1  0  0  0  0
 30 31  1  0  0  0  0
 30 28  2  0  0  0  0
 31 32  2  0  0  0  0
 32 33  1  0  0  0  0
 33 23  2  0  0  0  0
 35 38  1  0  0  0  0
 36 35  1  0  0  0  0
 36 37  2  0  0  0  0
 39 35  1  0  0  0  0
M  END
>  <minimizedAffinity>
-10.0565319

$$$$

 OpenBabel10152419393D

 39 42  0  0  0  0  0  0  0  0999 V2000
   -0.3190   -6.4460  -25.5910 C   0  0  0  0  0  0  0  0  0  0  0  0
   -1.3690   -5.9540  -26.3790 C   0  0  0  0  0  3  0  0  0  0  0  0
   -1.1440   -5.5670  -27.6990 C   0  0  0  0  0  3  0  0  0  0  0  0
    0.1410   -5.6300  -28.2390 C   0  0  0  0  0  3  0  0  0  0  0  0
    1.2140   -6.0580  -27.4600 C   0  0  0  0  0  0  0  0  0  0  0  0
    0.9710   -6.4900  -26.1480 C   0  0  0  0  0  3  0  0  0  0  0  0
    2.5400   -6.1370  -27.9250 N   0  0  0  0  0  0  0  0  0  0  0  0
    3.5580   -7.0190  -27.6490 C   0  0  0  0  0  0  0  0  0  0  0  0
    4.7210   -6.7280  -27.9220 O   0  0  0  0  0  0  0  0  0  0  0  0
    2.8470   -5.3920  -28.5400 H   0  0  0  0  0  0  0  0  0  0  0  0
    3.2860   -8.3740  -27.1190 C   0  0  0  0  0  0  0  0  0  0  0  0
    2.6440   -8.4980  -25.8860 C   0  0  0  0  0  3  0  0  0  0  0  0
    2.3940   -9.7670  -25.3610 C   0  0  0  0  0  3  0  0  0  0  0  0
    2.7990  -10.9130  -26.0560 C   0  0  0  0  0  0  0  0  0  0  0  0
    2.4380  -12.4440  -25.3430 Cl  0  0  0  0  0  0  0  0  0  0  0  0
    3.4730  -10.8050  -27.2800 C   0  0  0  0  0  0  0  0  0  0  0  0
    3.7230   -9.5190  -27.7990 C   0  0  0  0  0  3  0  0  0  0  0  0
    3.9240  -12.0230  -28.0420 C   0  0  0  0  0  0  0  0  0  0  0  0
    4.6190  -11.7210  -29.1730 F   0  0  0  0  0  0  0  0  0  0  0  0
    4.7200  -12.8440  -27.3050 F   0  0  0  0  0  0  0  0  0  0  0  0
    2.8850  -12.8050  -28.4560 F   0  0  0  0  0  0  0  0  0  0  0  0
   -0.5230   -6.8430  -24.1430 C   0  0  0  0  0  2  0  0  0  0  0  0
   -1.4530  -12.0180  -21.0480 C   0  0  0  0  0  0  0  0  0  0  0  0
   -0.7970  -12.9180  -21.9000 C   0  0  0  0  0  3  0  0  0  0  0  0
   -0.2200  -12.4500  -23.0680 C   0  0  0  0  0  3  0  0  0  0  0  0
   -0.3230  -11.0950  -23.3760 C   0  0  0  0  0  3  0  0  0  0  0  0
   -1.0050  -10.1880  -22.5210 C   0  0  0  0  0  0  0  0  0  0  0  0
   -1.1500   -8.8110  -22.7870 C   0  0  0  0  0  0  0  0  0  0  0  0
   -0.6490   -8.2790  -23.9730 N   0  0  0  0  0  0  0  0  0  0  0  0
   -1.7410   -7.9760  -21.9210 N   0  0  0  0  0  0  0  0  0  0  0  0
   -2.2260   -8.5170  -20.8010 C   0  0  0  0  0  3  0  0  0  0  0  0
   -2.1700   -9.8070  -20.4610 N   0  0  0  0  0  0  0  0  0  0  0  0
   -1.5680  -10.6480  -21.3180 C   0  0  0  0  0  0  0  0  0  0  0  0
   -0.8650   -8.8070  -24.8080 H   0  0  0  0  0  0  0  0  0  0  0  0
   -3.3970  -12.8270  -19.8950 N   0  0  0  0  0  0  0  0  0  0  0  0
   -2.0560  -12.5800  -19.8290 C   0  0  0  0  0  0  0  0  0  0  0  0
   -1.4050  -12.7320  -18.8060 O   0  0  0  0  0  0  0  0  0  0  0  0
   -3.8470  -13.2020  -19.0700 H   0  0  0  0  0  0  0  0  0  0  0  0
   -3.9400  -12.7110  -20.7390 H   0  0  0  0  0  0  0  0  0  0  0  0
  1 22  1  0  0  0  0
  2  1  2  0  0  0  0
  3  2  1  0  0  0  0
  4  3  2  0  0  0  0
  4  5  1  0  0  0  0
  5  6  2  0  0  0  0
  6  1  1  0  0  0  0
  7  8  1  0  0  0  0
  7  5  1  0  0  0  0
  8 11  1  0  0  0  0
  9  8  2  0  0  0  0
 10  7  1  0  0  0  0
 11 12  1  0  0  0  0
 12 13  2  0  0  0  0
 14 13  1  0  0  0  0
 14 15  1  0  0  0  0
 16 14  2  0  0  0  0
 17 16  1  0  0  0  0
 17 11  2  0  0  0  0
 18 20  1  0  0  0  0
 18 16  1  0  0  0  0
 19 18  1  0  0  0  0
 21 18  1  0  0  0  0
 22 29  1  0  0  0  0
 23 36  1  0  0  0  0
 24 23  2  0  0  0  0
 25 24  1  0  0  0  0
 26 25  2  0  0  0  0
 26 27  1  0  0  0  0
 27 33  1  0  0  0  0
 28 27  2  0  0  0  0
 28 30  1  0  0  0  0
 29 28  1  0  0  0  0
 30 31  2  0  0  0  0
 31 32  1  0  0  0  0
 33 23  1  0  0  0  0
 33 32  2  0  0  0  0
 34 29  1  0  0  0  0
 35 36  1  0  0  0  0
 35 38  1  0  0  0  0
 36 37  2  0  0  0  0
 39 35  1  0  0  0  0
M  END
>  <minimizedAffinity>
-9.35689259

$$$$

 OpenBabel10152419393D

 39 42  0  0  0  0  0  0  0  0999 V2000
   -0.0790   -6.2390  -25.1500 C   0  0  0  0  0  0  0  0  0  0  0  0
   -0.6940   -5.2270  -25.8980 C   0  0  0  0  0  3  0  0  0  0  0  0
   -0.1570   -4.8190  -27.1180 C   0  0  0  0  0  3  0  0  0  0  0  0
    1.0250   -5.3920  -27.5900 C   0  0  0  0  0  3  0  0  0  0  0  0
    1.6910   -6.3580  -26.8370 C   0  0  0  0  0  0  0  0  0  0  0  0
    1.1190   -6.7950  -25.6350 C   0  0  0  0  0  3  0  0  0  0  0  0
    2.8930   -6.9730  -27.2350 N   0  0  0  0  0  0  0  0  0  0  0  0
    3.3850   -8.2400  -27.0330 C   0  0  0  0  0  0  0  0  0  0  0  0
    4.5820   -8.4730  -27.1970 O   0  0  0  0  0  0  0  0  0  0  0  0
    3.5610   -6.3830  -27.7200 H   0  0  0  0  0  0  0  0  0  0  0  0
    2.4920   -9.3770  -26.7190 C   0  0  0  0  0  0  0  0  0  0  0  0
    3.0570  -10.6300  -26.4770 C   0  0  0  0  0  3  0  0  0  0  0  0
    2.2310  -11.7190  -26.1960 C   0  0  0  0  0  3  0  0  0  0  0  0
    0.8390  -11.5650  -26.1740 C   0  0  0  0  0  0  0  0  0  0  0  0
   -0.1090  -12.9590  -25.8040 Cl  0  0  0  0  0  0  0  0  0  0  0  0
    0.2540  -10.3200  -26.4470 C   0  0  0  0  0  0  0  0  0  0  0  0
    1.0980   -9.2280  -26.7320 C   0  0  0  0  0  3  0  0  0  0  0  0
   -1.2390  -10.1320  -26.4360 C   0  0  0  0  0  0  0  0  0  0  0  0
   -1.8200  -10.3820  -27.6400 F   0  0  0  0  0  0  0  0  0  0  0  0
   -1.8660  -10.9300  -25.5290 F   0  0  0  0  0  0  0  0  0  0  0  0
   -1.6110   -8.8590  -26.1140 F   0  0  0  0  0  0  0  0  0  0  0  0
   -0.6180   -6.6810  -23.8050 C   0  0  0  0  0  2  0  0  0  0  0  0
   -1.4010  -11.9580  -20.8450 C   0  0  0  0  0  0  0  0  0  0  0  0
   -0.4830  -12.7540  -21.5450 C   0  0  0  0  0  3  0  0  0  0  0  0
    0.2330  -12.2030  -22.5940 C   0  0  0  0  0  3  0  0  0  0  0  0
    0.0070  -10.8720  -22.9400 C   0  0  0  0  0  3  0  0  0  0  0  0
   -0.9380  -10.0730  -22.2410 C   0  0  0  0  0  0  0  0  0  0  0  0
   -1.2150   -8.7260  -22.5540 C   0  0  0  0  0  0  0  0  0  0  0  0
   -0.5790   -8.1220  -23.6360 N   0  0  0  0  0  0  0  0  0  0  0  0
   -2.0640   -7.9860  -21.8260 N   0  0  0  0  0  0  0  0  0  0  0  0
   -2.6700   -8.5960  -20.8050 C   0  0  0  0  0  3  0  0  0  0  0  0
   -2.5050   -9.8700  -20.4390 N   0  0  0  0  0  0  0  0  0  0  0  0
   -1.6460  -10.6150  -21.1560 C   0  0  0  0  0  0  0  0  0  0  0  0
   -0.5640   -8.6670  -24.4870 H   0  0  0  0  0  0  0  0  0  0  0  0
   -3.4690  -12.8100  -19.9730 N   0  0  0  0  0  0  0  0  0  0  0  0
   -2.1370  -12.6070  -19.7480 C   0  0  0  0  0  0  0  0  0  0  0  0
   -1.6000  -12.8650  -18.6820 O   0  0  0  0  0  0  0  0  0  0  0  0
   -4.0090  -13.2420  -19.2340 H   0  0  0  0  0  0  0  0  0  0  0  0
   -3.9190  -12.6060  -20.8540 H   0  0  0  0  0  0  0  0  0  0  0  0
  1 22  1  0  0  0  0
  2  1  2  0  0  0  0
  3  2  1  0  0  0  0
  4  3  2  0  0  0  0
  4  5  1  0  0  0  0
  5  6  2  0  0  0  0
  6  1  1  0  0  0  0
  7  8  1  0  0  0  0
  7  5  1  0  0  0  0
  8 11  1  0  0  0  0
  9  8  2  0  0  0  0
 10  7  1  0  0  0  0
 11 12  1  0  0  0  0
 12 13  2  0  0  0  0
 13 14  1  0  0  0  0
 14 15  1  0  0  0  0
 16 18  1  0  0  0  0
 16 14  2  0  0  0  0
 17 11  2  0  0  0  0
 17 16  1  0  0  0  0
 18 21  1  0  0  0  0
 18 20  1  0  0  0  0
 19 18  1  0  0  0  0
 22 29  1  0  0  0  0
 23 36  1  0  0  0  0
 24 23  2  0  0  0  0
 25 24  1  0  0  0  0
 26 25  2  0  0  0  0
 26 27  1  0  0  0  0
 27 33  1  0  0  0  0
 28 27  2  0  0  0  0
 28 30  1  0  0  0  0
 29 28  1  0  0  0  0
 30 31  2  0  0  0  0
 31 32  1  0  0  0  0
 33 23  1  0  0  0  0
 33 32  2  0  0  0  0
 34 29  1  0  0  0  0
 35 36  1  0  0  0  0
 35 38  1  0  0  0  0
 36 37  2  0  0  0  0
 39 35  1  0  0  0  0
M  END
>  <minimizedAffinity>
-9.14226627

$$$$

 OpenBabel10152419393D

 39 42  0  0  0  0  0  0  0  0999 V2000
   -0.5850   -5.1880  -26.8340 C   0  0  0  0  0  0  0  0  0  0  0  0
   -0.3170   -3.8220  -26.6760 C   0  0  0  0  0  3  0  0  0  0  0  0
    0.7310   -3.2190  -27.3690 C   0  0  0  0  0  3  0  0  0  0  0  0
    1.5520   -3.9820  -28.2010 C   0  0  0  0  0  3  0  0  0  0  0  0
    1.3460   -5.3550  -28.3300 C   0  0  0  0  0  0  0  0  0  0  0  0
    0.2610   -5.9430  -27.6670 C   0  0  0  0  0  3  0  0  0  0  0  0
    2.1360   -6.1950  -29.1370 N   0  0  0  0  0  0  0  0  0  0  0  0
    2.9570   -7.2540  -28.8290 C   0  0  0  0  0  0  0  0  0  0  0  0
    3.7900   -7.6490  -29.6440 O   0  0  0  0  0  0  0  0  0  0  0  0
    2.1650   -5.9730  -30.1260 H   0  0  0  0  0  0  0  0  0  0  0  0
    2.8000   -8.0150  -27.5700 C   0  0  0  0  0  0  0  0  0  0  0  0
    2.2900   -7.3610  -26.4470 C   0  0  0  0  0  3  0  0  0  0  0  0
    2.1510   -8.0560  -25.2450 C   0  0  0  0  0  3  0  0  0  0  0  0
    2.5350   -9.4000  -25.1560 C   0  0  0  0  0  0  0  0  0  0  0  0
    2.3160  -10.1890  -23.6360 Cl  0  0  0  0  0  0  0  0  0  0  0  0
    3.0790  -10.0620  -26.2650 C   0  0  0  0  0  0  0  0  0  0  0  0
    3.2180   -9.3490  -27.4730 C   0  0  0  0  0  3  0  0  0  0  0  0
    3.5060  -11.5040  -26.1910 C   0  0  0  0  0  0  0  0  0  0  0  0
    2.6480  -12.2810  -25.4750 F   0  0  0  0  0  0  0  0  0  0  0  0
    3.6250  -12.0840  -27.4160 F   0  0  0  0  0  0  0  0  0  0  0  0
    4.7220  -11.6670  -25.5940 F   0  0  0  0  0  0  0  0  0  0  0  0
   -1.6950   -5.8800  -26.0700 C   0  0  0  0  0  2  0  0  0  0  0  0
   -0.8270  -11.4650  -23.7730 C   0  0  0  0  0  0  0  0  0  0  0  0
   -0.4280  -12.1350  -24.9390 C   0  0  0  0  0  3  0  0  0  0  0  0
   -0.3750  -11.4420  -26.1360 C   0  0  0  0  0  3  0  0  0  0  0  0
   -0.7400  -10.0970  -26.1550 C   0  0  0  0  0  3  0  0  0  0  0  0
   -1.1620   -9.4260  -24.9760 C   0  0  0  0  0  0  0  0  0  0  0  0
   -1.5520   -8.0710  -24.9380 C   0  0  0  0  0  0  0  0  0  0  0  0
   -1.5840   -7.3270  -26.1150 N   0  0  0  0  0  0  0  0  0  0  0  0
   -1.8780   -7.4560  -23.7910 N   0  0  0  0  0  0  0  0  0  0  0  0
   -1.8540   -8.1990  -22.6830 C   0  0  0  0  0  3  0  0  0  0  0  0
   -1.5300   -9.4920  -22.6090 N   0  0  0  0  0  0  0  0  0  0  0  0
   -1.1890  -10.1130  -23.7510 C   0  0  0  0  0  0  0  0  0  0  0  0
   -2.0270   -7.7810  -26.9010 H   0  0  0  0  0  0  0  0  0  0  0  0
   -2.0660  -12.2470  -21.8730 N   0  0  0  0  0  0  0  0  0  0  0  0
   -0.8730  -12.2610  -22.5370 C   0  0  0  0  0  0  0  0  0  0  0  0
    0.1200  -12.8230  -22.1000 O   0  0  0  0  0  0  0  0  0  0  0  0
   -2.1300  -12.7730  -21.0100 H   0  0  0  0  0  0  0  0  0  0  0  0
   -2.8940  -11.7910  -22.2300 H   0  0  0  0  0  0  0  0  0  0  0  0
  1  2  1  0  0  0  0
  1 22  1  0  0  0  0
  3  2  2  0  0  0  0
  4  3  1  0  0  0  0
  5  4  2  0  0  0  0
  5  6  1  0  0  0  0
  6  1  2  0  0  0  0
  7  8  1  0  0  0  0
  7  5  1  0  0  0  0
  8 11  1  0  0  0  0
  9  8  2  0  0  0  0
 10  7  1  0  0  0  0
 11 17  2  0  0  0  0
 11 12  1  0  0  0  0
 12 13  2  0  0  0  0
 13 14  1  0  0  0  0
 14 15  1  0  0  0  0
 16 18  1  0  0  0  0
 16 14  2  0  0  0  0
 17 16  1  0  0  0  0
 18 21  1  0  0  0  0
 18 19  1  0  0  0  0
 20 18  1  0  0  0  0
 23 33  1  0  0  0  0
 23 36  1  0  0  0  0
 24 23  2  0  0  0  0
 25 24  1  0  0  0  0
 26 25  2  0  0  0  0
 26 27  1  0  0  0  0
 27 28  2  0  0  0  0
 27 33  1  0  0  0  0
 28 30  1  0  0  0  0
 29 22  1  0  0  0  0
 29 28  1  0  0  0  0
 30 31  2  0  0  0  0
 31 32  1  0  0  0  0
 33 32  2  0  0  0  0
 34 29  1  0  0  0  0
 35 38  1  0  0  0  0
 36 37  2  0  0  0  0
 36 35  1  0  0  0  0
 39 35  1  0  0  0  0
M  END
>  <minimizedAffinity>
-9.07021332

$$$$

 OpenBabel10152419393D

 39 42  0  0  0  0  0  0  0  0999 V2000
    1.9310  -12.1900  -26.5930 C   0  0  0  0  0  0  0  0  0  0  0  0
    2.7260  -12.8010  -25.6150 C   0  0  0  0  0  3  0  0  0  0  0  0
    4.1050  -12.5990  -25.5940 C   0  0  0  0  0  3  0  0  0  0  0  0
    4.7140  -11.8130  -26.5740 C   0  0  0  0  0  3  0  0  0  0  0  0
    3.9540  -11.2420  -27.5940 C   0  0  0  0  0  0  0  0  0  0  0  0
    2.5630  -11.4120  -27.5790 C   0  0  0  0  0  3  0  0  0  0  0  0
    4.4920  -10.4500  -28.6250 N   0  0  0  0  0  0  0  0  0  0  0  0
    4.0870   -9.2540  -29.1690 C   0  0  0  0  0  0  0  0  0  0  0  0
    4.5210   -8.8930  -30.2620 O   0  0  0  0  0  0  0  0  0  0  0  0
    5.3000  -10.8280  -29.1080 H   0  0  0  0  0  0  0  0  0  0  0  0
    3.2120   -8.3220  -28.4250 C   0  0  0  0  0  0  0  0  0  0  0  0
    2.7030   -7.2030  -29.0870 C   0  0  0  0  0  3  0  0  0  0  0  0
    1.8900   -6.3020  -28.3990 C   0  0  0  0  0  3  0  0  0  0  0  0
    1.5970   -6.5060  -27.0440 C   0  0  0  0  0  0  0  0  0  0  0  0
    0.5710   -5.3510  -26.2720 Cl  0  0  0  0  0  0  0  0  0  0  0  0
    2.1260   -7.6070  -26.3570 C   0  0  0  0  0  0  0  0  0  0  0  0
    2.9490   -8.5080  -27.0610 C   0  0  0  0  0  3  0  0  0  0  0  0
    1.8300   -7.8420  -24.8990 C   0  0  0  0  0  0  0  0  0  0  0  0
    1.5390   -9.1400  -24.6140 F   0  0  0  0  0  0  0  0  0  0  0  0
    2.8630   -7.4880  -24.0860 F   0  0  0  0  0  0  0  0  0  0  0  0
    0.7580   -7.1260  -24.4530 F   0  0  0  0  0  0  0  0  0  0  0  0
    0.4340  -12.4160  -26.6630 C   0  0  0  0  0  2  0  0  0  0  0  0
   -2.1890   -9.3760  -22.0690 C   0  0  0  0  0  0  0  0  0  0  0  0
   -1.9700  -10.2930  -21.0310 C   0  0  0  0  0  3  0  0  0  0  0  0
   -1.3280  -11.4890  -21.3040 C   0  0  0  0  0  3  0  0  0  0  0  0
   -0.9330  -11.7590  -22.6130 C   0  0  0  0  0  3  0  0  0  0  0  0
   -1.1730  -10.8370  -23.6670 C   0  0  0  0  0  0  0  0  0  0  0  0
   -0.8050  -11.0630  -25.0100 C   0  0  0  0  0  0  0  0  0  0  0  0
   -0.2120  -12.2690  -25.3710 N   0  0  0  0  0  0  0  0  0  0  0  0
   -0.9880  -10.1370  -25.9640 N   0  0  0  0  0  0  0  0  0  0  0  0
   -1.5750   -8.9980  -25.5900 C   0  0  0  0  0  3  0  0  0  0  0  0
   -1.9880   -8.6920  -24.3580 N   0  0  0  0  0  0  0  0  0  0  0  0
   -1.7970   -9.6080  -23.3940 C   0  0  0  0  0  0  0  0  0  0  0  0
   -0.6580  -13.0970  -25.0030 H   0  0  0  0  0  0  0  0  0  0  0  0
   -2.2260   -6.9770  -22.0280 N   0  0  0  0  0  0  0  0  0  0  0  0
   -2.8870   -8.1300  -21.7150 C   0  0  0  0  0  0  0  0  0  0  0  0
   -3.9470   -8.1410  -21.1070 O   0  0  0  0  0  0  0  0  0  0  0  0
   -2.6710   -6.1010  -21.7860 H   0  0  0  0  0  0  0  0  0  0  0  0
   -1.3530   -6.9590  -22.5360 H   0  0  0  0  0  0  0  0  0  0  0  0
  1  2  1  0  0  0  0
  2  3  2  0  0  0  0
  4  3  1  0  0  0  0
  5  6  1  0  0  0  0
  5  4  2  0  0  0  0
  6  1  2  0  0  0  0
  7  5  1  0  0  0  0
  8  7  1  0  0  0  0
  8 11  1  0  0  0  0
  9  8  2  0  0  0  0
 10  7  1  0  0  0  0
 11 17  1  0  0  0  0
 12 11  2  0  0  0  0
 12 13  1  0  0  0  0
 13 14  2  0  0  0  0
 14 16  1  0  0  0  0
 14 15  1  0  0  0  0
 16 18  1  0  0  0  0
 17 16  2  0  0  0  0
 18 19  1  0  0  0  0
 18 21  1  0  0  0  0
 18 20  1  0  0  0  0
 22  1  1  0  0  0  0
 22 29  1  0  0  0  0
 23 36  1  0  0  0  0
 23 24  1  0  0  0  0
 25 24  2  0  0  0  0
 26 25  1  0  0  0  0
 27 33  1  0  0  0  0
 27 26  2  0  0  0  0
 28 27  1  0  0  0  0
 29 28  1  0  0  0  0
 29 34  1  0  0  0  0
 30 31  1  0  0  0  0
 30 28  2  0  0  0  0
 31 32  2  0  0  0  0
 32 33  1  0  0  0  0
 33 23  2  0  0  0  0
 35 38  1  0  0  0  0
 35 36  1  0  0  0  0
 36 37  2  0  0  0  0
 39 35  1  0  0  0  0
M  END
>  <minimizedAffinity>
-8.08071613

$$$$

 OpenBabel10152419393D

 39 42  0  0  0  0  0  0  0  0999 V2000
   -1.1060   -7.1100  -22.8520 C   0  0  0  0  0  0  0  0  0  0  0  0
   -1.4000   -7.4710  -21.5300 C   0  0  0  0  0  3  0  0  0  0  0  0
   -1.9600   -8.7140  -21.2420 C   0  0  0  0  0  3  0  0  0  0  0  0
   -2.2700   -9.6000  -22.2740 C   0  0  0  0  0  3  0  0  0  0  0  0
   -2.0440   -9.2430  -23.6030 C   0  0  0  0  0  0  0  0  0  0  0  0
   -1.4370   -8.0100  -23.8800 C   0  0  0  0  0  3  0  0  0  0  0  0
   -2.3420  -10.0720  -24.7010 N   0  0  0  0  0  0  0  0  0  0  0  0
   -1.5470  -10.8710  -25.4880 C   0  0  0  0  0  0  0  0  0  0  0  0
   -1.9550  -11.2650  -26.5800 O   0  0  0  0  0  0  0  0  0  0  0  0
   -3.3030  -10.0620  -25.0250 H   0  0  0  0  0  0  0  0  0  0  0  0
   -0.2350  -11.3650  -25.0150 C   0  0  0  0  0  0  0  0  0  0  0  0
   -0.1310  -11.8540  -23.7120 C   0  0  0  0  0  3  0  0  0  0  0  0
    1.1010  -12.3090  -23.2400 C   0  0  0  0  0  3  0  0  0  0  0  0
    2.2350  -12.2600  -24.0610 C   0  0  0  0  0  0  0  0  0  0  0  0
    3.7170  -12.8550  -23.4040 Cl  0  0  0  0  0  0  0  0  0  0  0  0
    2.1540  -11.7410  -25.3600 C   0  0  0  0  0  0  0  0  0  0  0  0
    0.9050  -11.2820  -25.8250 C   0  0  0  0  0  3  0  0  0  0  0  0
    3.3610  -11.6710  -26.2580 C   0  0  0  0  0  0  0  0  0  0  0  0
    4.2990  -10.7850  -25.8270 F   0  0  0  0  0  0  0  0  0  0  0  0
    3.9920  -12.8700  -26.3900 F   0  0  0  0  0  0  0  0  0  0  0  0
    3.0550  -11.2830  -27.5290 F   0  0  0  0  0  0  0  0  0  0  0  0
   -0.5280   -5.7530  -23.2020 C   0  0  0  0  0  2  0  0  0  0  0  0
    2.3210   -6.3640  -28.5620 C   0  0  0  0  0  0  0  0  0  0  0  0
    1.7670   -5.2710  -29.2440 C   0  0  0  0  0  3  0  0  0  0  0  0
    0.8300   -4.4760  -28.6060 C   0  0  0  0  0  3  0  0  0  0  0  0
    0.4460   -4.7960  -27.3050 C   0  0  0  0  0  3  0  0  0  0  0  0
    0.9950   -5.9160  -26.6230 C   0  0  0  0  0  0  0  0  0  0  0  0
    0.6360   -6.2930  -25.3130 C   0  0  0  0  0  0  0  0  0  0  0  0
   -0.3460   -5.5780  -24.6310 N   0  0  0  0  0  0  0  0  0  0  0  0
    1.2280   -7.3170  -24.6790 N   0  0  0  0  0  0  0  0  0  0  0  0
    2.1530   -7.9930  -25.3630 C   0  0  0  0  0  3  0  0  0  0  0  0
    2.5470   -7.7410  -26.6140 N   0  0  0  0  0  0  0  0  0  0  0  0
    1.9690   -6.7100  -27.2510 C   0  0  0  0  0  0  0  0  0  0  0  0
   -1.1820   -5.3780  -25.1620 H   0  0  0  0  0  0  0  0  0  0  0  0
    4.5680   -7.1760  -28.7870 N   0  0  0  0  0  0  0  0  0  0  0  0
    3.3020   -7.1750  -29.3000 C   0  0  0  0  0  0  0  0  0  0  0  0
    3.0110   -7.7360  -30.3460 O   0  0  0  0  0  0  0  0  0  0  0  0
    5.2720   -7.7130  -29.2780 H   0  0  0  0  0  0  0  0  0  0  0  0
    4.8150   -6.7210  -27.9200 H   0  0  0  0  0  0  0  0  0  0  0  0
  1  2  1  0  0  0  0
  2  3  2  0  0  0  0
  4  3  1  0  0  0  0
  5  4  2  0  0  0  0
  6  5  1  0  0  0  0
  6  1  2  0  0  0  0
  7  5  1  0  0  0  0
  8 11  1  0  0  0  0
  8  7  1  0  0  0  0
  9  8  2  0  0  0  0
 10  7  1  0  0  0  0
 11 12  1  0  0  0  0
 12 13  2  0  0  0  0
 14 15  1  0  0  0  0
 14 13  1  0  0  0  0
 16 14  2  0  0  0  0
 17 16  1  0  0  0  0
 17 11  2  0  0  0  0
 18 19  1  0  0  0  0
 18 16  1  0  0  0  0
 20 18  1  0  0  0  0
 21 18  1  0  0  0  0
 22  1  1  0  0  0  0
 23 33  1  0  0  0  0
 24 25  1  0  0  0  0
 24 23  2  0  0  0  0
 25 26  2  0  0  0  0
 26 27  1  0  0  0  0
 27 28  1  0  0  0  0
 28 30  2  0  0  0  0
 28 29  1  0  0  0  0
 29 22  1  0  0  0  0
 31 30  1  0  0  0  0
 32 31  2  0  0  0  0
 33 27  2  0  0  0  0
 33 32  1  0  0  0  0
 34 29  1  0  0  0  0
 35 39  1  0  0  0  0
 36 35  1  0  0  0  0
 36 23  1  0  0  0  0
 37 36  2  0  0  0  0
 38 35  1  0  0  0  0
M  END
>  <minimizedAffinity>
-7.44194937

$$$$
