
 OpenBabel10152419393D

 39 42  0  0  0  0  0  0  0  0999 V2000
   -1.1060   -7.1100  -22.8520 C   0  0  0  0  0  0  0  0  0  0  0  0
   -1.4000   -7.4710  -21.5300 C   0  0  0  0  0  3  0  0  0  0  0  0
   -1.9600   -8.7140  -21.2420 C   0  0  0  0  0  3  0  0  0  0  0  0
   -2.2700   -9.6000  -22.2740 C   0  0  0  0  0  3  0  0  0  0  0  0
   -2.0440   -9.2430  -23.6030 C   0  0  0  0  0  0  0  0  0  0  0  0
   -1.4370   -8.0100  -23.8800 C   0  0  0  0  0  3  0  0  0  0  0  0
   -2.3420  -10.0720  -24.7010 N   0  0  0  0  0  0  0  0  0  0  0  0
   -1.5470  -10.8710  -25.4880 C   0  0  0  0  0  0  0  0  0  0  0  0
   -1.9550  -11.2650  -26.5800 O   0  0  0  0  0  0  0  0  0  0  0  0
   -3.3030  -10.0620  -25.0250 H   0  0  0  0  0  0  0  0  0  0  0  0
   -0.2350  -11.3650  -25.0150 C   0  0  0  0  0  0  0  0  0  0  0  0
   -0.1310  -11.8540  -23.7120 C   0  0  0  0  0  3  0  0  0  0  0  0
    1.1010  -12.3090  -23.2400 C   0  0  0  0  0  3  0  0  0  0  0  0
    2.2350  -12.2600  -24.0610 C   0  0  0  0  0  0  0  0  0  0  0  0
    3.7170  -12.8550  -23.4040 Cl  0  0  0  0  0  0  0  0  0  0  0  0
    2.1540  -11.7410  -25.3600 C   0  0  0  0  0  0  0  0  0  0  0  0
    0.9050  -11.2820  -25.8250 C   0  0  0  0  0  3  0  0  0  0  0  0
    3.3610  -11.6710  -26.2580 C   0  0  0  0  0  0  0  0  0  0  0  0
    4.2990  -10.7850  -25.8270 F   0  0  0  0  0  0  0  0  0  0  0  0
    3.9920  -12.8700  -26.3900 F   0  0  0  0  0  0  0  0  0  0  0  0
    3.0550  -11.2830  -27.5290 F   0  0  0  0  0  0  0  0  0  0  0  0
   -0.5280   -5.7530  -23.2020 C   0  0  0  0  0  2  0  0  0  0  0  0
    2.3210   -6.3640  -28.5620 C   0  0  0  0  0  0  0  0  0  0  0  0
    1.7670   -5.2710  -29.2440 C   0  0  0  0  0  3  0  0  0  0  0  0
    0.8300   -4.4760  -28.6060 C   0  0  0  0  0  3  0  0  0  0  0  0
    0.4460   -4.7960  -27.3050 C   0  0  0  0  0  3  0  0  0  0  0  0
    0.9950   -5.9160  -26.6230 C   0  0  0  0  0  0  0  0  0  0  0  0
    0.6360   -6.2930  -25.3130 C   0  0  0  0  0  0  0  0  0  0  0  0
   -0.3460   -5.5780  -24.6310 N   0  0  0  0  0  0  0  0  0  0  0  0
    1.2280   -7.3170  -24.6790 N   0  0  0  0  0  0  0  0  0  0  0  0
    2.1530   -7.9930  -25.3630 C   0  0  0  0  0  3  0  0  0  0  0  0
    2.5470   -7.7410  -26.6140 N   0  0  0  0  0  0  0  0  0  0  0  0
    1.9690   -6.7100  -27.2510 C   0  0  0  0  0  0  0  0  0  0  0  0
   -1.1820   -5.3780  -25.1620 H   0  0  0  0  0  0  0  0  0  0  0  0
    4.5680   -7.1760  -28.7870 N   0  0  0  0  0  0  0  0  0  0  0  0
    3.3020   -7.1750  -29.3000 C   0  0  0  0  0  0  0  0  0  0  0  0
    3.0110   -7.7360  -30.3460 O   0  0  0  0  0  0  0  0  0  0  0  0
    5.2720   -7.7130  -29.2780 H   0  0  0  0  0  0  0  0  0  0  0  0
    4.8150   -6.7210  -27.9200 H   0  0  0  0  0  0  0  0  0  0  0  0
  1  2  1  0  0  0  0
  2  3  2  0  0  0  0
  4  3  1  0  0  0  0
  5  4  2  0  0  0  0
  6  5  1  0  0  0  0
  6  1  2  0  0  0  0
  7  5  1  0  0  0  0
  8 11  1  0  0  0  0
  8  7  1  0  0  0  0
  9  8  2  0  0  0  0
 10  7  1  0  0  0  0
 11 12  1  0  0  0  0
 12 13  2  0  0  0  0
 14 15  1  0  0  0  0
 14 13  1  0  0  0  0
 16 14  2  0  0  0  0
 17 16  1  0  0  0  0
 17 11  2  0  0  0  0
 18 19  1  0  0  0  0
 18 16  1  0  0  0  0
 20 18  1  0  0  0  0
 21 18  1  0  0  0  0
 22  1  1  0  0  0  0
 23 33  1  0  0  0  0
 24 25  1  0  0  0  0
 24 23  2  0  0  0  0
 25 26  2  0  0  0  0
 26 27  1  0  0  0  0
 27 28  1  0  0  0  0
 28 30  2  0  0  0  0
 28 29  1  0  0  0  0
 29 22  1  0  0  0  0
 31 30  1  0  0  0  0
 32 31  2  0  0  0  0
 33 27  2  0  0  0  0
 33 32  1  0  0  0  0
 34 29  1  0  0  0  0
 35 39  1  0  0  0  0
 36 35  1  0  0  0  0
 36 23  1  0  0  0  0
 37 36  2  0  0  0  0
 38 35  1  0  0  0  0
M  END
>  <minimizedAffinity>
-7.44194937

$$$$
