
 OpenBabel10152419393D

 39 42  0  0  0  0  0  0  0  0999 V2000
    2.0460  -12.1810  -26.3380 C   0  0  0  0  0  0  0  0  0  0  0  0
    3.0310  -12.8550  -25.6030 C   0  0  0  0  0  3  0  0  0  0  0  0
    4.3550  -12.4210  -25.6260 C   0  0  0  0  0  3  0  0  0  0  0  0
    4.7220  -11.3300  -26.4160 C   0  0  0  0  0  3  0  0  0  0  0  0
    3.7740  -10.6790  -27.2040 C   0  0  0  0  0  0  0  0  0  0  0  0
    2.4360  -11.0920  -27.1370 C   0  0  0  0  0  3  0  0  0  0  0  0
    4.0650   -9.5820  -28.0370 N   0  0  0  0  0  0  0  0  0  0  0  0
    3.4450   -8.3660  -28.2020 C   0  0  0  0  0  0  0  0  0  0  0  0
    3.6780   -7.6820  -29.1980 O   0  0  0  0  0  0  0  0  0  0  0  0
    4.8390   -9.6990  -28.6820 H   0  0  0  0  0  0  0  0  0  0  0  0
    2.5710   -7.7940  -27.1530 C   0  0  0  0  0  0  0  0  0  0  0  0
    2.7840   -8.1640  -25.8240 C   0  0  0  0  0  3  0  0  0  0  0  0
    1.9590   -7.6500  -24.8230 C   0  0  0  0  0  3  0  0  0  0  0  0
    0.9100   -6.7800  -25.1460 C   0  0  0  0  0  0  0  0  0  0  0  0
   -0.0530   -6.1790  -23.8450 Cl  0  0  0  0  0  0  0  0  0  0  0  0
    0.6630   -6.4250  -26.4790 C   0  0  0  0  0  0  0  0  0  0  0  0
    1.5000   -6.9530  -27.4830 C   0  0  0  0  0  3  0  0  0  0  0  0
   -0.4630   -5.4970  -26.8520 C   0  0  0  0  0  0  0  0  0  0  0  0
   -0.3000   -4.2360  -26.3680 F   0  0  0  0  0  0  0  0  0  0  0  0
   -0.6270   -5.3780  -28.1980 F   0  0  0  0  0  0  0  0  0  0  0  0
   -1.6720   -5.9130  -26.3760 F   0  0  0  0  0  0  0  0  0  0  0  0
    0.6050  -12.6480  -26.3590 C   0  0  0  0  0  2  0  0  0  0  0  0
   -2.2210   -9.4160  -22.0240 C   0  0  0  0  0  0  0  0  0  0  0  0
   -1.9760  -10.2450  -20.9210 C   0  0  0  0  0  3  0  0  0  0  0  0
   -1.2760  -11.4270  -21.1010 C   0  0  0  0  0  3  0  0  0  0  0  0
   -0.8500  -11.7700  -22.3820 C   0  0  0  0  0  3  0  0  0  0  0  0
   -1.1160  -10.9370  -23.5020 C   0  0  0  0  0  0  0  0  0  0  0  0
   -0.7190  -11.2390  -24.8210 C   0  0  0  0  0  0  0  0  0  0  0  0
   -0.0660  -12.4400  -25.0890 N   0  0  0  0  0  0  0  0  0  0  0  0
   -0.9290  -10.3930  -25.8400 N   0  0  0  0  0  0  0  0  0  0  0  0
   -1.5720   -9.2580  -25.5550 C   0  0  0  0  0  3  0  0  0  0  0  0
   -2.0170   -8.8850  -24.3530 N   0  0  0  0  0  0  0  0  0  0  0  0
   -1.7980   -9.7220  -23.3240 C   0  0  0  0  0  0  0  0  0  0  0  0
   -0.4800  -13.2600  -24.6680 H   0  0  0  0  0  0  0  0  0  0  0  0
   -2.2320   -7.0960  -21.4070 N   0  0  0  0  0  0  0  0  0  0  0  0
   -2.9790   -8.1810  -21.7680 C   0  0  0  0  0  0  0  0  0  0  0  0
   -4.2010   -8.1630  -21.7970 O   0  0  0  0  0  0  0  0  0  0  0  0
   -2.7230   -6.2330  -21.2100 H   0  0  0  0  0  0  0  0  0  0  0  0
   -1.2230   -7.1010  -21.3860 H   0  0  0  0  0  0  0  0  0  0  0  0
  1  2  1  0  0  0  0
  3  2  2  0  0  0  0
  4  3  1  0  0  0  0
  5  6  1  0  0  0  0
  5  4  2  0  0  0  0
  6  1  2  0  0  0  0
  7  5  1  0  0  0  0
  8  7  1  0  0  0  0
  8 11  1  0  0  0  0
  9  8  2  0  0  0  0
 10  7  1  0  0  0  0
 11 12  1  0  0  0  0
 12 13  2  0  0  0  0
 14 13  1  0  0  0  0
 14 15  1  0  0  0  0
 16 14  2  0  0  0  0
 17 11  2  0  0  0  0
 17 16  1  0  0  0  0
 18 16  1  0  0  0  0
 18 21  1  0  0  0  0
 18 19  1  0  0  0  0
 20 18  1  0  0  0  0
 22  1  1  0  0  0  0
 22 29  1  0  0  0  0
 23 36  1  0  0  0  0
 23 24  1  0  0  0  0
 25 24  2  0  0  0  0
 26 25  1  0  0  0  0
 27 33  1  0  0  0  0
 27 26  2  0  0  0  0
 28 27  1  0  0  0  0
 29 28  1  0  0  0  0
 29 34  1  0  0  0  0
 30 31  1  0  0  0  0
 30 28  2  0  0  0  0
 31 32  2  0  0  0  0
 32 33  1  0  0  0  0
 33 23  2  0  0  0  0
 35 39  1  0  0  0  0
 35 38  1  0  0  0  0
 36 35  1  0  0  0  0
 37 36  2  0  0  0  0
M  END
>  <minimizedAffinity>
-10.160079

$$$$
