
 OpenBabel10152419393D

 39 42  0  0  0  0  0  0  0  0999 V2000
   -0.0790   -6.2390  -25.1500 C   0  0  0  0  0  0  0  0  0  0  0  0
   -0.6940   -5.2270  -25.8980 C   0  0  0  0  0  3  0  0  0  0  0  0
   -0.1570   -4.8190  -27.1180 C   0  0  0  0  0  3  0  0  0  0  0  0
    1.0250   -5.3920  -27.5900 C   0  0  0  0  0  3  0  0  0  0  0  0
    1.6910   -6.3580  -26.8370 C   0  0  0  0  0  0  0  0  0  0  0  0
    1.1190   -6.7950  -25.6350 C   0  0  0  0  0  3  0  0  0  0  0  0
    2.8930   -6.9730  -27.2350 N   0  0  0  0  0  0  0  0  0  0  0  0
    3.3850   -8.2400  -27.0330 C   0  0  0  0  0  0  0  0  0  0  0  0
    4.5820   -8.4730  -27.1970 O   0  0  0  0  0  0  0  0  0  0  0  0
    3.5610   -6.3830  -27.7200 H   0  0  0  0  0  0  0  0  0  0  0  0
    2.4920   -9.3770  -26.7190 C   0  0  0  0  0  0  0  0  0  0  0  0
    3.0570  -10.6300  -26.4770 C   0  0  0  0  0  3  0  0  0  0  0  0
    2.2310  -11.7190  -26.1960 C   0  0  0  0  0  3  0  0  0  0  0  0
    0.8390  -11.5650  -26.1740 C   0  0  0  0  0  0  0  0  0  0  0  0
   -0.1090  -12.9590  -25.8040 Cl  0  0  0  0  0  0  0  0  0  0  0  0
    0.2540  -10.3200  -26.4470 C   0  0  0  0  0  0  0  0  0  0  0  0
    1.0980   -9.2280  -26.7320 C   0  0  0  0  0  3  0  0  0  0  0  0
   -1.2390  -10.1320  -26.4360 C   0  0  0  0  0  0  0  0  0  0  0  0
   -1.8200  -10.3820  -27.6400 F   0  0  0  0  0  0  0  0  0  0  0  0
   -1.8660  -10.9300  -25.5290 F   0  0  0  0  0  0  0  0  0  0  0  0
   -1.6110   -8.8590  -26.1140 F   0  0  0  0  0  0  0  0  0  0  0  0
   -0.6180   -6.6810  -23.8050 C   0  0  0  0  0  2  0  0  0  0  0  0
   -1.4010  -11.9580  -20.8450 C   0  0  0  0  0  0  0  0  0  0  0  0
   -0.4830  -12.7540  -21.5450 C   0  0  0  0  0  3  0  0  0  0  0  0
    0.2330  -12.2030  -22.5940 C   0  0  0  0  0  3  0  0  0  0  0  0
    0.0070  -10.8720  -22.9400 C   0  0  0  0  0  3  0  0  0  0  0  0
   -0.9380  -10.0730  -22.2410 C   0  0  0  0  0  0  0  0  0  0  0  0
   -1.2150   -8.7260  -22.5540 C   0  0  0  0  0  0  0  0  0  0  0  0
   -0.5790   -8.1220  -23.6360 N   0  0  0  0  0  0  0  0  0  0  0  0
   -2.0640   -7.9860  -21.8260 N   0  0  0  0  0  0  0  0  0  0  0  0
   -2.6700   -8.5960  -20.8050 C   0  0  0  0  0  3  0  0  0  0  0  0
   -2.5050   -9.8700  -20.4390 N   0  0  0  0  0  0  0  0  0  0  0  0
   -1.6460  -10.6150  -21.1560 C   0  0  0  0  0  0  0  0  0  0  0  0
   -0.5640   -8.6670  -24.4870 H   0  0  0  0  0  0  0  0  0  0  0  0
   -3.4690  -12.8100  -19.9730 N   0  0  0  0  0  0  0  0  0  0  0  0
   -2.1370  -12.6070  -19.7480 C   0  0  0  0  0  0  0  0  0  0  0  0
   -1.6000  -12.8650  -18.6820 O   0  0  0  0  0  0  0  0  0  0  0  0
   -4.0090  -13.2420  -19.2340 H   0  0  0  0  0  0  0  0  0  0  0  0
   -3.9190  -12.6060  -20.8540 H   0  0  0  0  0  0  0  0  0  0  0  0
  1 22  1  0  0  0  0
  2  1  2  0  0  0  0
  3  2  1  0  0  0  0
  4  3  2  0  0  0  0
  4  5  1  0  0  0  0
  5  6  2  0  0  0  0
  6  1  1  0  0  0  0
  7  8  1  0  0  0  0
  7  5  1  0  0  0  0
  8 11  1  0  0  0  0
  9  8  2  0  0  0  0
 10  7  1  0  0  0  0
 11 12  1  0  0  0  0
 12 13  2  0  0  0  0
 13 14  1  0  0  0  0
 14 15  1  0  0  0  0
 16 18  1  0  0  0  0
 16 14  2  0  0  0  0
 17 11  2  0  0  0  0
 17 16  1  0  0  0  0
 18 21  1  0  0  0  0
 18 20  1  0  0  0  0
 19 18  1  0  0  0  0
 22 29  1  0  0  0  0
 23 36  1  0  0  0  0
 24 23  2  0  0  0  0
 25 24  1  0  0  0  0
 26 25  2  0  0  0  0
 26 27  1  0  0  0  0
 27 33  1  0  0  0  0
 28 27  2  0  0  0  0
 28 30  1  0  0  0  0
 29 28  1  0  0  0  0
 30 31  2  0  0  0  0
 31 32  1  0  0  0  0
 33 23  1  0  0  0  0
 33 32  2  0  0  0  0
 34 29  1  0  0  0  0
 35 36  1  0  0  0  0
 35 38  1  0  0  0  0
 36 37  2  0  0  0  0
 39 35  1  0  0  0  0
M  END
>  <minimizedAffinity>
-9.14226627

$$$$
