
 OpenBabel10152419393D

 39 42  0  0  0  0  0  0  0  0999 V2000
    1.9310  -12.1900  -26.5930 C   0  0  0  0  0  0  0  0  0  0  0  0
    2.7260  -12.8010  -25.6150 C   0  0  0  0  0  3  0  0  0  0  0  0
    4.1050  -12.5990  -25.5940 C   0  0  0  0  0  3  0  0  0  0  0  0
    4.7140  -11.8130  -26.5740 C   0  0  0  0  0  3  0  0  0  0  0  0
    3.9540  -11.2420  -27.5940 C   0  0  0  0  0  0  0  0  0  0  0  0
    2.5630  -11.4120  -27.5790 C   0  0  0  0  0  3  0  0  0  0  0  0
    4.4920  -10.4500  -28.6250 N   0  0  0  0  0  0  0  0  0  0  0  0
    4.0870   -9.2540  -29.1690 C   0  0  0  0  0  0  0  0  0  0  0  0
    4.5210   -8.8930  -30.2620 O   0  0  0  0  0  0  0  0  0  0  0  0
    5.3000  -10.8280  -29.1080 H   0  0  0  0  0  0  0  0  0  0  0  0
    3.2120   -8.3220  -28.4250 C   0  0  0  0  0  0  0  0  0  0  0  0
    2.7030   -7.2030  -29.0870 C   0  0  0  0  0  3  0  0  0  0  0  0
    1.8900   -6.3020  -28.3990 C   0  0  0  0  0  3  0  0  0  0  0  0
    1.5970   -6.5060  -27.0440 C   0  0  0  0  0  0  0  0  0  0  0  0
    0.5710   -5.3510  -26.2720 Cl  0  0  0  0  0  0  0  0  0  0  0  0
    2.1260   -7.6070  -26.3570 C   0  0  0  0  0  0  0  0  0  0  0  0
    2.9490   -8.5080  -27.0610 C   0  0  0  0  0  3  0  0  0  0  0  0
    1.8300   -7.8420  -24.8990 C   0  0  0  0  0  0  0  0  0  0  0  0
    1.5390   -9.1400  -24.6140 F   0  0  0  0  0  0  0  0  0  0  0  0
    2.8630   -7.4880  -24.0860 F   0  0  0  0  0  0  0  0  0  0  0  0
    0.7580   -7.1260  -24.4530 F   0  0  0  0  0  0  0  0  0  0  0  0
    0.4340  -12.4160  -26.6630 C   0  0  0  0  0  2  0  0  0  0  0  0
   -2.1890   -9.3760  -22.0690 C   0  0  0  0  0  0  0  0  0  0  0  0
   -1.9700  -10.2930  -21.0310 C   0  0  0  0  0  3  0  0  0  0  0  0
   -1.3280  -11.4890  -21.3040 C   0  0  0  0  0  3  0  0  0  0  0  0
   -0.9330  -11.7590  -22.6130 C   0  0  0  0  0  3  0  0  0  0  0  0
   -1.1730  -10.8370  -23.6670 C   0  0  0  0  0  0  0  0  0  0  0  0
   -0.8050  -11.0630  -25.0100 C   0  0  0  0  0  0  0  0  0  0  0  0
   -0.2120  -12.2690  -25.3710 N   0  0  0  0  0  0  0  0  0  0  0  0
   -0.9880  -10.1370  -25.9640 N   0  0  0  0  0  0  0  0  0  0  0  0
   -1.5750   -8.9980  -25.5900 C   0  0  0  0  0  3  0  0  0  0  0  0
   -1.9880   -8.6920  -24.3580 N   0  0  0  0  0  0  0  0  0  0  0  0
   -1.7970   -9.6080  -23.3940 C   0  0  0  0  0  0  0  0  0  0  0  0
   -0.6580  -13.0970  -25.0030 H   0  0  0  0  0  0  0  0  0  0  0  0
   -2.2260   -6.9770  -22.0280 N   0  0  0  0  0  0  0  0  0  0  0  0
   -2.8870   -8.1300  -21.7150 C   0  0  0  0  0  0  0  0  0  0  0  0
   -3.9470   -8.1410  -21.1070 O   0  0  0  0  0  0  0  0  0  0  0  0
   -2.6710   -6.1010  -21.7860 H   0  0  0  0  0  0  0  0  0  0  0  0
   -1.3530   -6.9590  -22.5360 H   0  0  0  0  0  0  0  0  0  0  0  0
  1  2  1  0  0  0  0
  2  3  2  0  0  0  0
  4  3  1  0  0  0  0
  5  6  1  0  0  0  0
  5  4  2  0  0  0  0
  6  1  2  0  0  0  0
  7  5  1  0  0  0  0
  8  7  1  0  0  0  0
  8 11  1  0  0  0  0
  9  8  2  0  0  0  0
 10  7  1  0  0  0  0
 11 17  1  0  0  0  0
 12 11  2  0  0  0  0
 12 13  1  0  0  0  0
 13 14  2  0  0  0  0
 14 16  1  0  0  0  0
 14 15  1  0  0  0  0
 16 18  1  0  0  0  0
 17 16  2  0  0  0  0
 18 19  1  0  0  0  0
 18 21  1  0  0  0  0
 18 20  1  0  0  0  0
 22  1  1  0  0  0  0
 22 29  1  0  0  0  0
 23 36  1  0  0  0  0
 23 24  1  0  0  0  0
 25 24  2  0  0  0  0
 26 25  1  0  0  0  0
 27 33  1  0  0  0  0
 27 26  2  0  0  0  0
 28 27  1  0  0  0  0
 29 28  1  0  0  0  0
 29 34  1  0  0  0  0
 30 31  1  0  0  0  0
 30 28  2  0  0  0  0
 31 32  2  0  0  0  0
 32 33  1  0  0  0  0
 33 23  2  0  0  0  0
 35 38  1  0  0  0  0
 35 36  1  0  0  0  0
 36 37  2  0  0  0  0
 39 35  1  0  0  0  0
M  END
>  <minimizedAffinity>
-8.08071613

$$$$
