
 OpenBabel11232420453D

 37 41  0  0  1  0  0  0  0  0999 V2000
  -19.7240   20.6920   11.0740 C   0  0  2  0  0  3  0  0  0  0  0  0
  -19.5530   21.8540   11.6850 N   0  0  0  0  0  2  0  0  0  0  0  0
  -18.9430   22.6990   10.7970 C   0  0  2  0  0  3  0  0  0  0  0  0
  -18.5910   21.9940    9.6720 C   0  0  0  0  0  2  0  0  0  0  0  0
  -18.9650   20.6930    9.9210 N   0  0  0  0  0  0  0  0  0  0  0  0
  -18.6940   24.1070   11.0680 C   0  0  0  0  0  0  0  0  0  0  0  0
  -19.6820   24.8660   11.7130 C   0  0  0  0  0  3  0  0  0  0  0  0
  -19.4710   26.2160   11.9980 C   0  0  0  0  0  3  0  0  0  0  0  0
  -18.2740   26.8160   11.6260 C   0  0  0  0  0  0  0  0  0  0  0  0
  -18.0810   28.1100   11.9160 F   0  0  0  0  0  0  0  0  0  0  0  0
  -17.2800   26.0970   10.9610 C   0  0  0  0  0  0  0  0  0  0  0  0
  -15.9960   26.7690   10.5770 C   0  0  0  0  0  1  0  0  0  0  0  0
  -17.4940   24.7350   10.6950 C   0  0  0  0  0  3  0  0  0  0  0  0
  -21.4070   17.4830   13.4470 N   0  0  0  0  0  0  0  0  0  0  0  0
  -20.7790   17.1440   12.1710 C   0  0  0  0  0  2  0  0  0  0  0  0
  -19.9040   18.2810   11.6480 C   0  0  0  0  0  2  0  0  0  0  0  0
  -20.6420   19.6370   11.6630 C   0  0  1  0  0  3  0  0  0  0  0  0
  -21.2280   19.8960   13.0510 C   0  0  0  0  0  2  0  0  0  0  0  0
  -22.1330   18.7420   13.4910 C   0  0  0  0  0  2  0  0  0  0  0  0
  -21.1480   17.5430   15.8620 C   0  0  0  0  0  0  0  0  0  0  0  0
  -20.3540   17.1550   16.9370 C   0  0  0  0  0  0  0  0  0  0  0  0
  -20.6680   17.4740   18.2450 N   0  0  0  0  0  0  0  0  0  0  0  0
  -19.2050   16.4870   16.7930 N   0  0  0  0  0  0  0  0  0  0  0  0
  -18.8710   16.1520   15.5460 C   0  0  0  0  0  3  0  0  0  0  0  0
  -19.5560   16.4540   14.4390 N   0  0  0  0  0  0  0  0  0  0  0  0
  -20.6940   17.1520   14.6010 C   0  0  0  0  0  0  0  0  0  0  0  0
  -19.9710   17.1270   18.8950 H   0  0  0  0  0  0  0  0  0  0  0  0
  -21.6290   17.3680   18.5360 H   0  0  0  0  0  0  0  0  0  0  0  0
  -23.6060   17.4050   16.4610 C   0  0  0  0  0  1  0  0  0  0  0  0
  -22.4390   18.2990   16.0620 C   0  0  0  0  0  2  0  0  0  0  0  0
  -18.4360   19.5890    9.1370 C   0  0  0  0  0  2  0  0  0  0  0  0
  -17.7320   20.0210    7.8540 C   0  0  0  0  0  3  0  0  0  0  0  0
  -16.1960   20.2070    7.8620 C   0  0  0  0  0  2  0  0  0  0  0  0
  -16.1650   19.6540    6.4950 N   0  0  0  0  0  4  0  0  0  0  0  0
  -15.0900   18.6390    6.3480 C   0  0  0  0  0  1  0  0  0  0  0  0
  -17.4780   19.0160    6.7070 C   0  0  0  0  0  2  0  0  0  0  0  0
  -16.1570   20.3680    5.7530 H   0  0  0  0  0  0  0  0  0  0  0  0
  1 17  1  0  0  0  0
  1  2  1  6  0  0  0
  3  6  1  1  0  0  0
  3  2  1  0  0  0  0
  4  5  1  0  0  0  0
  4  3  1  0  0  0  0
  5  1  1  0  0  0  0
  6  7  1  0  0  0  0
  7  8  2  0  0  0  0
  9 10  1  0  0  0  0
  9  8  1  0  0  0  0
 11  9  2  0  0  0  0
 12 11  1  0  0  0  0
 13 11  1  0  0  0  0
 13  6  2  0  0  0  0
 14 19  1  0  0  0  0
 14 26  1  0  0  0  0
 15 14  1  0  0  0  0
 16 15  1  0  0  0  0
 17 16  1  1  0  0  0
 17 18  1  0  0  0  0
 18 19  1  0  0  0  0
 20 30  1  0  0  0  0
 20 21  1  0  0  0  0
 21 22  1  0  0  0  0
 22 28  1  0  0  0  0
 22 27  1  0  0  0  0
 23 21  2  0  0  0  0
 24 23  1  0  0  0  0
 25 26  1  0  0  0  0
 25 24  2  0  0  0  0
 26 20  2  0  0  0  0
 30 29  1  0  0  0  0
 31  5  1  0  0  0  0
 32 33  1  0  0  0  0
 32 31  1  0  0  0  0
 34 36  1  0  0  0  0
 34 33  1  0  0  0  0
 35 34  1  0  0  0  0
 36 32  1  0  0  0  0
 37 34  1  0  0  0  0
M  END
>  <minimizedAffinity>
-9.70446968

$$$$
