
 OpenBabel11232420453D

 37 41  0  0  1  0  0  0  0  0999 V2000
  -18.8720   20.3680   10.0530 C   0  0  2  0  0  3  0  0  0  0  0  0
  -19.7240   20.0950   11.0280 N   0  0  0  0  0  2  0  0  0  0  0  0
  -19.8270   18.7320   11.1140 C   0  0  2  0  0  3  0  0  0  0  0  0
  -19.1450   18.1620   10.0680 C   0  0  0  0  0  2  0  0  0  0  0  0
  -18.6630   19.2160    9.3230 N   0  0  0  0  0  0  0  0  0  0  0  0
  -20.5860   18.0470   12.1490 C   0  0  0  0  0  0  0  0  0  0  0  0
  -20.8190   16.6680   12.0300 C   0  0  0  0  0  3  0  0  0  0  0  0
  -21.5350   15.9790   13.0110 C   0  0  0  0  0  3  0  0  0  0  0  0
  -22.0310   16.6700   14.1090 C   0  0  0  0  0  0  0  0  0  0  0  0
  -22.7060   15.9930   15.0480 F   0  0  0  0  0  0  0  0  0  0  0  0
  -21.8390   18.0450   14.2470 C   0  0  0  0  0  0  0  0  0  0  0  0
  -22.3810   18.7640   15.4460 C   0  0  0  0  0  1  0  0  0  0  0  0
  -21.1020   18.7260   13.2650 C   0  0  0  0  0  3  0  0  0  0  0  0
  -18.2570   24.6550   10.1150 N   0  0  0  0  0  0  0  0  0  0  0  0
  -18.8140   24.0540    8.9050 C   0  0  0  0  0  2  0  0  0  0  0  0
  -19.3330   22.6410    9.1590 C   0  0  0  0  0  2  0  0  0  0  0  0
  -18.2980   21.7640    9.8970 C   0  0  1  0  0  3  0  0  0  0  0  0
  -17.8120   22.4810   11.1570 C   0  0  0  0  0  2  0  0  0  0  0  0
  -17.2580   23.8690   10.8220 C   0  0  0  0  0  2  0  0  0  0  0  0
  -18.9970   26.7560   11.0880 C   0  0  0  0  0  0  0  0  0  0  0  0
  -19.9390   27.3650   11.9110 C   0  0  0  0  0  0  0  0  0  0  0  0
  -19.9210   28.7210   12.1810 N   0  0  0  0  0  0  0  0  0  0  0  0
  -20.9050   26.6890   12.5420 N   0  0  0  0  0  0  0  0  0  0  0  0
  -20.9610   25.3800   12.3000 C   0  0  0  0  0  3  0  0  0  0  0  0
  -20.1250   24.6860   11.5220 N   0  0  0  0  0  0  0  0  0  0  0  0
  -19.1420   25.3770   10.9180 C   0  0  0  0  0  0  0  0  0  0  0  0
  -20.6690   28.9890   12.8120 H   0  0  0  0  0  0  0  0  0  0  0  0
  -19.7530   29.3510   11.4110 H   0  0  0  0  0  0  0  0  0  0  0  0
  -16.6080   27.5960   11.1680 C   0  0  0  0  0  1  0  0  0  0  0  0
  -17.9190   27.5500   10.3940 C   0  0  0  0  0  2  0  0  0  0  0  0
  -18.2110   19.0320    7.9540 C   0  0  0  0  0  2  0  0  0  0  0  0
  -16.6950   19.0940    7.7880 C   0  0  0  0  0  3  0  0  0  0  0  0
  -16.0670   18.6830    6.4360 C   0  0  0  0  0  2  0  0  0  0  0  0
  -15.0770   19.7620    6.6160 N   0  0  0  0  0  4  0  0  0  0  0  0
  -14.9120   20.5570    5.3720 C   0  0  0  0  0  1  0  0  0  0  0  0
  -15.9720   20.4440    7.5710 C   0  0  0  0  0  2  0  0  0  0  0  0
  -14.1850   19.4500    7.0240 H   0  0  0  0  0  0  0  0  0  0  0  0
  1  2  1  1  0  0  0
  2  3  1  0  0  0  0
  3  6  1  6  0  0  0
  4  3  1  0  0  0  0
  5  1  1  0  0  0  0
  5  4  1  0  0  0  0
  6 13  1  0  0  0  0
  7  6  2  0  0  0  0
  7  8  1  0  0  0  0
  8  9  2  0  0  0  0
  9 11  1  0  0  0  0
  9 10  1  0  0  0  0
 11 12  1  0  0  0  0
 13 11  2  0  0  0  0
 14 19  1  0  0  0  0
 14 26  1  0  0  0  0
 15 16  1  0  0  0  0
 15 14  1  0  0  0  0
 17 16  1  1  0  0  0
 17  1  1  0  0  0  0
 17 18  1  0  0  0  0
 19 18  1  0  0  0  0
 20 21  1  0  0  0  0
 21 22  1  0  0  0  0
 21 23  2  0  0  0  0
 22 27  1  0  0  0  0
 24 23  1  0  0  0  0
 25 24  2  0  0  0  0
 26 20  2  0  0  0  0
 26 25  1  0  0  0  0
 28 22  1  0  0  0  0
 30 20  1  0  0  0  0
 30 29  1  0  0  0  0
 31  5  1  0  0  0  0
 32 31  1  0  0  0  0
 33 34  1  0  0  0  0
 33 32  1  0  0  0  0
 34 37  1  0  0  0  0
 34 36  1  0  0  0  0
 35 34  1  0  0  0  0
 36 32  1  0  0  0  0
M  END
>  <minimizedAffinity>
-10.462347

$$$$

 OpenBabel11232420453D

 37 41  0  0  1  0  0  0  0  0999 V2000
  -19.4630   20.5390   10.8230 C   0  0  2  0  0  3  0  0  0  0  0  0
  -18.9530   20.2130    9.6460 N   0  0  0  0  0  2  0  0  0  0  0  0
  -17.8660   21.0180    9.4330 C   0  0  2  0  0  3  0  0  0  0  0  0
  -17.8020   21.9630   10.4270 C   0  0  0  0  0  2  0  0  0  0  0  0
  -18.9030   21.7350   11.2230 N   0  0  0  0  0  0  0  0  0  0  0  0
  -16.9730   20.8770    8.2930 C   0  0  0  0  0  0  0  0  0  0  0  0
  -16.5550   22.0250    7.6030 C   0  0  0  0  0  3  0  0  0  0  0  0
  -15.6900   21.9250    6.5120 C   0  0  0  0  0  3  0  0  0  0  0  0
  -15.2490   20.6740    6.0980 C   0  0  0  0  0  0  0  0  0  0  0  0
  -14.4110   20.5950    5.0560 F   0  0  0  0  0  0  0  0  0  0  0  0
  -15.6650   19.5100    6.7460 C   0  0  0  0  0  0  0  0  0  0  0  0
  -15.1690   18.1730    6.2820 C   0  0  0  0  0  1  0  0  0  0  0  0
  -16.5200   19.6220    7.8540 C   0  0  0  0  0  3  0  0  0  0  0  0
  -21.4280   17.6580   13.3920 N   0  0  0  0  0  0  0  0  0  0  0  0
  -20.9360   17.2030   12.0930 C   0  0  0  0  0  2  0  0  0  0  0  0
  -19.9450   18.1920   11.4830 C   0  0  0  0  0  2  0  0  0  0  0  0
  -20.4820   19.6390   11.4990 C   0  0  1  0  0  3  0  0  0  0  0  0
  -20.9370   20.0100   12.9100 C   0  0  0  0  0  2  0  0  0  0  0  0
  -21.9670   19.0080   13.4380 C   0  0  0  0  0  2  0  0  0  0  0  0
  -21.0830   17.6440   15.7970 C   0  0  0  0  0  0  0  0  0  0  0  0
  -20.2780   17.1830   16.8340 C   0  0  0  0  0  0  0  0  0  0  0  0
  -20.5250   17.4890   18.1590 N   0  0  0  0  0  0  0  0  0  0  0  0
  -19.1790   16.4470   16.6330 N   0  0  0  0  0  0  0  0  0  0  0  0
  -18.9110   16.1210   15.3690 C   0  0  0  0  0  3  0  0  0  0  0  0
  -19.6130   16.4920   14.2940 N   0  0  0  0  0  0  0  0  0  0  0  0
  -20.6990   17.2560   14.5120 C   0  0  0  0  0  0  0  0  0  0  0  0
  -19.8290   17.0840   18.7750 H   0  0  0  0  0  0  0  0  0  0  0  0
  -21.4790   17.4360   18.4820 H   0  0  0  0  0  0  0  0  0  0  0  0
  -23.5210   17.6470   16.4820 C   0  0  0  0  0  1  0  0  0  0  0  0
  -22.3150   18.4740   16.0600 C   0  0  0  0  0  2  0  0  0  0  0  0
  -19.3860   22.7410   12.1540 C   0  0  0  0  0  2  0  0  0  0  0  0
  -20.3770   23.7280   11.5440 C   0  0  0  0  0  3  0  0  0  0  0  0
  -20.6080   25.0910   12.2360 C   0  0  0  0  0  2  0  0  0  0  0  0
  -20.7270   25.7020   10.8990 N   0  0  0  0  0  4  0  0  0  0  0  0
  -19.9340   26.9550   10.8050 C   0  0  0  0  0  1  0  0  0  0  0  0
  -20.0030   24.5650   10.2990 C   0  0  0  0  0  2  0  0  0  0  0  0
  -21.6960   25.8060   10.5690 H   0  0  0  0  0  0  0  0  0  0  0  0
  1  2  1  1  0  0  0
  1  5  1  0  0  0  0
  1 17  1  0  0  0  0
  3  6  1  6  0  0  0
  3  2  1  0  0  0  0
  3  4  1  0  0  0  0
  4  5  1  0  0  0  0
  5 31  1  0  0  0  0
  7  6  2  0  0  0  0
  8  7  1  0  0  0  0
  9  8  2  0  0  0  0
  9 11  1  0  0  0  0
 10  9  1  0  0  0  0
 11 13  2  0  0  0  0
 12 11  1  0  0  0  0
 13  6  1  0  0  0  0
 14 19  1  0  0  0  0
 14 26  1  0  0  0  0
 15 14  1  0  0  0  0
 16 15  1  0  0  0  0
 17 16  1  1  0  0  0
 17 18  1  0  0  0  0
 18 19  1  0  0  0  0
 20 30  1  0  0  0  0
 20 21  1  0  0  0  0
 21 22  1  0  0  0  0
 22 28  1  0  0  0  0
 22 27  1  0  0  0  0
 23 21  2  0  0  0  0
 24 23  1  0  0  0  0
 25 26  1  0  0  0  0
 25 24  2  0  0  0  0
 26 20  2  0  0  0  0
 30 29  1  0  0  0  0
 32 31  1  0  0  0  0
 32 33  1  0  0  0  0
 34 33  1  0  0  0  0
 35 34  1  0  0  0  0
 36 34  1  0  0  0  0
 36 32  1  0  0  0  0
 37 34  1  0  0  0  0
M  END
>  <minimizedAffinity>
-10.2835217

$$$$

 OpenBabel11232420453D

 37 41  0  0  1  0  0  0  0  0999 V2000
  -20.0500   20.8260   11.0510 C   0  0  2  0  0  3  0  0  0  0  0  0
  -20.6430   19.9490   11.8450 N   0  0  0  0  0  2  0  0  0  0  0  0
  -20.0790   18.7250   11.5980 C   0  0  2  0  0  3  0  0  0  0  0  0
  -19.2340   18.8280   10.5200 C   0  0  0  0  0  2  0  0  0  0  0  0
  -19.3350   20.1340   10.0960 N   0  0  0  0  0  0  0  0  0  0  0  0
  -20.3910   17.5270   12.3610 C   0  0  0  0  0  0  0  0  0  0  0  0
  -19.4710   16.4670   12.3820 C   0  0  0  0  0  3  0  0  0  0  0  0
  -19.7360   15.3080   13.1140 C   0  0  0  0  0  3  0  0  0  0  0  0
  -20.9280   15.2000   13.8190 C   0  0  0  0  0  0  0  0  0  0  0  0
  -21.1630   14.0860   14.5250 F   0  0  0  0  0  0  0  0  0  0  0  0
  -21.8760   16.2230   13.7990 C   0  0  0  0  0  0  0  0  0  0  0  0
  -23.1520   16.0820   14.5740 C   0  0  0  0  0  1  0  0  0  0  0  0
  -21.5930   17.3930   13.0760 C   0  0  0  0  0  3  0  0  0  0  0  0
  -19.3710   25.0800   11.5040 N   0  0  0  0  0  0  0  0  0  0  0  0
  -19.3380   24.2440   12.7020 C   0  0  0  0  0  2  0  0  0  0  0  0
  -19.2000   22.7620   12.3570 C   0  0  0  0  0  2  0  0  0  0  0  0
  -20.2190   22.3160   11.2860 C   0  0  1  0  0  3  0  0  0  0  0  0
  -20.1400   23.2440   10.0740 C   0  0  0  0  0  2  0  0  0  0  0  0
  -20.3380   24.7060   10.4840 C   0  0  0  0  0  2  0  0  0  0  0  0
  -17.7460   26.8690   11.2410 C   0  0  0  0  0  0  0  0  0  0  0  0
  -16.5010   27.2150   10.7270 C   0  0  0  0  0  0  0  0  0  0  0  0
  -15.9770   28.4890   10.8460 N   0  0  0  0  0  0  0  0  0  0  0  0
  -15.7320   26.3650   10.0380 N   0  0  0  0  0  0  0  0  0  0  0  0
  -16.1990   25.1230    9.9090 C   0  0  0  0  0  3  0  0  0  0  0  0
  -17.3680   24.6680   10.3690 N   0  0  0  0  0  0  0  0  0  0  0  0
  -18.1420   25.5450   11.0340 C   0  0  0  0  0  0  0  0  0  0  0  0
  -15.0700   28.5670   10.3980 H   0  0  0  0  0  0  0  0  0  0  0  0
  -16.0640   28.9500   11.7400 H   0  0  0  0  0  0  0  0  0  0  0  0
  -19.6060   28.5860   11.1470 C   0  0  0  0  0  1  0  0  0  0  0  0
  -18.5880   27.8550   12.0120 C   0  0  0  0  0  2  0  0  0  0  0  0
  -18.8840   20.5380    8.7750 C   0  0  0  0  0  2  0  0  0  0  0  0
  -17.3700   20.4880    8.5930 C   0  0  0  0  0  3  0  0  0  0  0  0
  -16.7480   19.3450    7.7580 C   0  0  0  0  0  2  0  0  0  0  0  0
  -15.7620   20.3140    7.2430 N   0  0  0  0  0  4  0  0  0  0  0  0
  -15.6080   20.1960    5.7700 C   0  0  0  0  0  1  0  0  0  0  0  0
  -16.6550   21.4330    7.5990 C   0  0  0  0  0  2  0  0  0  0  0  0
  -14.8660   20.3120    7.7490 H   0  0  0  0  0  0  0  0  0  0  0  0
  1 17  1  0  0  0  0
  1  2  1  1  0  0  0
  3  2  1  0  0  0  0
  3  6  1  6  0  0  0
  4  3  1  0  0  0  0
  5  4  1  0  0  0  0
  5  1  1  0  0  0  0
  6  7  2  0  0  0  0
  6 13  1  0  0  0  0
  7  8  1  0  0  0  0
  8  9  2  0  0  0  0
  9 10  1  0  0  0  0
 11  9  1  0  0  0  0
 11 12  1  0  0  0  0
 13 11  2  0  0  0  0
 14 15  1  0  0  0  0
 16 15  1  0  0  0  0
 17 18  1  6  0  0  0
 17 16  1  0  0  0  0
 18 19  1  0  0  0  0
 19 14  1  0  0  0  0
 20 30  1  0  0  0  0
 21 22  1  0  0  0  0
 21 20  2  0  0  0  0
 22 28  1  0  0  0  0
 23 21  1  0  0  0  0
 24 23  2  0  0  0  0
 24 25  1  0  0  0  0
 25 26  2  0  0  0  0
 26 20  1  0  0  0  0
 26 14  1  0  0  0  0
 27 22  1  0  0  0  0
 29 30  1  0  0  0  0
 31  5  1  0  0  0  0
 32 31  1  0  0  0  0
 33 32  1  0  0  0  0
 34 36  1  0  0  0  0
 34 37  1  0  0  0  0
 34 33  1  0  0  0  0
 35 34  1  0  0  0  0
 36 32  1  0  0  0  0
M  END
>  <minimizedAffinity>
-10.2233744

$$$$

 OpenBabel11232420453D

 37 41  0  0  1  0  0  0  0  0999 V2000
  -20.2220   20.2510   11.7020 C   0  0  2  0  0  3  0  0  0  0  0  0
  -19.6410   19.5120   10.7700 N   0  0  0  0  0  2  0  0  0  0  0  0
  -19.0960   20.3660    9.8480 C   0  0  2  0  0  3  0  0  0  0  0  0
  -19.4860   21.6500   10.1380 C   0  0  0  0  0  2  0  0  0  0  0  0
  -20.3150   21.5460   11.2330 N   0  0  0  0  0  0  0  0  0  0  0  0
  -18.2740   19.9260    8.7330 C   0  0  0  0  0  0  0  0  0  0  0  0
  -17.6770   18.6560    8.7790 C   0  0  0  0  0  3  0  0  0  0  0  0
  -16.8910   18.2000    7.7200 C   0  0  0  0  0  3  0  0  0  0  0  0
  -16.6870   19.0160    6.6150 C   0  0  0  0  0  0  0  0  0  0  0  0
  -15.9390   18.5590    5.6010 F   0  0  0  0  0  0  0  0  0  0  0  0
  -17.2440   20.2940    6.5470 C   0  0  0  0  0  0  0  0  0  0  0  0
  -17.0120   21.1520    5.3390 C   0  0  0  0  0  1  0  0  0  0  0  0
  -18.0490   20.7380    7.6080 C   0  0  0  0  0  3  0  0  0  0  0  0
  -22.0970   17.8140   14.7520 N   0  0  0  0  0  0  0  0  0  0  0  0
  -22.7150   19.0950   14.4150 C   0  0  0  0  0  2  0  0  0  0  0  0
  -22.1930   19.6450   13.0890 C   0  0  0  0  0  2  0  0  0  0  0  0
  -20.6500   19.6350   13.0200 C   0  0  1  0  0  3  0  0  0  0  0  0
  -20.1240   18.2410   13.3620 C   0  0  0  0  0  2  0  0  0  0  0  0
  -20.6440   17.7740   14.7250 C   0  0  0  0  0  2  0  0  0  0  0  0
  -23.2960   15.7440   15.1820 C   0  0  0  0  0  0  0  0  0  0  0  0
  -23.9160   14.6410   14.6040 C   0  0  0  0  0  0  0  0  0  0  0  0
  -24.5010   13.6390   15.3560 N   0  0  0  0  0  0  0  0  0  0  0  0
  -23.9580   14.4360   13.2830 N   0  0  0  0  0  0  0  0  0  0  0  0
  -23.4120   15.3850   12.5220 C   0  0  0  0  0  3  0  0  0  0  0  0
  -22.8030   16.4910   12.9580 N   0  0  0  0  0  0  0  0  0  0  0  0
  -22.7450   16.6670   14.2900 C   0  0  0  0  0  0  0  0  0  0  0  0
  -24.8880   12.9070   14.7710 H   0  0  0  0  0  0  0  0  0  0  0  0
  -25.0670   13.9150   16.1440 H   0  0  0  0  0  0  0  0  0  0  0  0
  -24.4100   16.8070   17.1940 C   0  0  0  0  0  1  0  0  0  0  0  0
  -23.2670   15.9440   16.6770 C   0  0  0  0  0  2  0  0  0  0  0  0
  -21.2120   22.6260   11.6100 C   0  0  0  0  0  2  0  0  0  0  0  0
  -20.5000   23.8620   12.1530 C   0  0  0  0  0  3  0  0  0  0  0  0
  -19.0050   23.7650   12.5350 C   0  0  0  0  0  2  0  0  0  0  0  0
  -18.8270   25.1340   12.0160 N   0  0  0  0  0  4  0  0  0  0  0  0
  -17.6230   25.2310   11.1510 C   0  0  0  0  0  1  0  0  0  0  0  0
  -20.0560   25.0040   11.2100 C   0  0  0  0  0  2  0  0  0  0  0  0
  -18.8720   25.8660   12.7380 H   0  0  0  0  0  0  0  0  0  0  0  0
  1  2  1  1  0  0  0
  1 17  1  0  0  0  0
  3  6  1  6  0  0  0
  3  4  1  0  0  0  0
  3  2  1  0  0  0  0
  4  5  1  0  0  0  0
  5 31  1  0  0  0  0
  5  1  1  0  0  0  0
  6  7  1  0  0  0  0
  8  7  2  0  0  0  0
  9  8  1  0  0  0  0
 10  9  1  0  0  0  0
 11  9  2  0  0  0  0
 11 13  1  0  0  0  0
 12 11  1  0  0  0  0
 13  6  2  0  0  0  0
 15 14  1  0  0  0  0
 16 15  1  0  0  0  0
 17 16  1  6  0  0  0
 17 18  1  0  0  0  0
 18 19  1  0  0  0  0
 19 14  1  0  0  0  0
 20 30  1  0  0  0  0
 21 20  1  0  0  0  0
 21 22  1  0  0  0  0
 22 28  1  0  0  0  0
 23 21  2  0  0  0  0
 24 25  2  0  0  0  0
 24 23  1  0  0  0  0
 25 26  1  0  0  0  0
 26 14  1  0  0  0  0
 26 20  2  0  0  0  0
 27 22  1  0  0  0  0
 30 29  1  0  0  0  0
 31 32  1  0  0  0  0
 32 33  1  0  0  0  0
 34 33  1  0  0  0  0
 34 37  1  0  0  0  0
 35 34  1  0  0  0  0
 36 34  1  0  0  0  0
 36 32  1  0  0  0  0
M  END
>  <minimizedAffinity>
-9.91412067

$$$$

 OpenBabel11232420453D

 37 41  0  0  1  0  0  0  0  0999 V2000
  -19.7560   19.6120   10.9510 C   0  0  2  0  0  3  0  0  0  0  0  0
  -19.2240   19.1730    9.8220 N   0  0  0  0  0  2  0  0  0  0  0  0
  -18.2140   20.0330    9.4820 C   0  0  2  0  0  3  0  0  0  0  0  0
  -18.2300   21.1070   10.3360 C   0  0  0  0  0  2  0  0  0  0  0  0
  -19.3020   20.8960   11.1750 N   0  0  0  0  0  0  0  0  0  0  0  0
  -17.3180   19.8160    8.3570 C   0  0  0  0  0  0  0  0  0  0  0  0
  -16.7920   18.5330    8.1360 C   0  0  0  0  0  3  0  0  0  0  0  0
  -15.9380   18.2890    7.0590 C   0  0  0  0  0  3  0  0  0  0  0  0
  -15.5960   19.3300    6.2050 C   0  0  0  0  0  0  0  0  0  0  0  0
  -14.7850   19.0770    5.1690 F   0  0  0  0  0  0  0  0  0  0  0  0
  -16.0810   20.6220    6.4090 C   0  0  0  0  0  0  0  0  0  0  0  0
  -15.7010   21.7260    5.4680 C   0  0  0  0  0  1  0  0  0  0  0  0
  -16.9540   20.8550    7.4840 C   0  0  0  0  0  3  0  0  0  0  0  0
  -21.4060   16.5180   13.4950 N   0  0  0  0  0  0  0  0  0  0  0  0
  -21.4180   16.3030   12.0490 C   0  0  0  0  0  2  0  0  0  0  0  0
  -20.4750   17.2620   11.3250 C   0  0  0  0  0  2  0  0  0  0  0  0
  -20.6870   18.7280   11.7610 C   0  0  1  0  0  3  0  0  0  0  0  0
  -20.6250   18.8320   13.2850 C   0  0  0  0  0  2  0  0  0  0  0  0
  -21.6300   17.8830   13.9440 C   0  0  0  0  0  2  0  0  0  0  0  0
  -20.8300   14.5810   14.8450 C   0  0  0  0  0  0  0  0  0  0  0  0
  -19.8150   13.9390   15.5480 C   0  0  0  0  0  0  0  0  0  0  0  0
  -20.0160   12.7460   16.2170 N   0  0  0  0  0  0  0  0  0  0  0  0
  -18.5820   14.4410   15.6720 N   0  0  0  0  0  0  0  0  0  0  0  0
  -18.3450   15.5860   15.0330 C   0  0  0  0  0  3  0  0  0  0  0  0
  -19.2300   16.2880   14.3190 N   0  0  0  0  0  0  0  0  0  0  0  0
  -20.4740   15.7830   14.2280 C   0  0  0  0  0  0  0  0  0  0  0  0
  -19.1740   12.4320   16.6870 H   0  0  0  0  0  0  0  0  0  0  0  0
  -20.5480   12.0290   15.7460 H   0  0  0  0  0  0  0  0  0  0  0  0
  -23.1810   14.4960   15.7840 C   0  0  0  0  0  1  0  0  0  0  0  0
  -22.2110   13.9870   14.7260 C   0  0  0  0  0  2  0  0  0  0  0  0
  -19.8680   21.9740   11.9680 C   0  0  0  0  0  2  0  0  0  0  0  0
  -19.3360   23.3570   11.6040 C   0  0  0  0  0  3  0  0  0  0  0  0
  -20.2780   24.3690   10.9110 C   0  0  0  0  0  2  0  0  0  0  0  0
  -19.6350   25.4400   11.6970 N   0  0  0  0  0  4  0  0  0  0  0  0
  -20.6450   26.3520   12.2930 C   0  0  0  0  0  1  0  0  0  0  0  0
  -19.1580   24.4520   12.6820 C   0  0  0  0  0  2  0  0  0  0  0  0
  -18.8830   25.9340   11.1970 H   0  0  0  0  0  0  0  0  0  0  0  0
  1  2  1  1  0  0  0
  1  5  1  0  0  0  0
  1 17  1  0  0  0  0
  3  6  1  6  0  0  0
  3  2  1  0  0  0  0
  3  4  1  0  0  0  0
  4  5  1  0  0  0  0
  5 31  1  0  0  0  0
  7  6  1  0  0  0  0
  8  7  2  0  0  0  0
  9 11  2  0  0  0  0
  9  8  1  0  0  0  0
 10  9  1  0  0  0  0
 11 13  1  0  0  0  0
 12 11  1  0  0  0  0
 13  6  2  0  0  0  0
 14 19  1  0  0  0  0
 14 26  1  0  0  0  0
 15 14  1  0  0  0  0
 16 15  1  0  0  0  0
 17 16  1  1  0  0  0
 17 18  1  0  0  0  0
 18 19  1  0  0  0  0
 20 21  1  0  0  0  0
 21 23  2  0  0  0  0
 21 22  1  0  0  0  0
 22 27  1  0  0  0  0
 24 23  1  0  0  0  0
 25 24  2  0  0  0  0
 26 25  1  0  0  0  0
 26 20  2  0  0  0  0
 28 22  1  0  0  0  0
 30 20  1  0  0  0  0
 30 29  1  0  0  0  0
 32 31  1  0  0  0  0
 32 36  1  0  0  0  0
 33 32  1  0  0  0  0
 33 34  1  0  0  0  0
 34 35  1  0  0  0  0
 34 36  1  0  0  0  0
 37 34  1  0  0  0  0
M  END
>  <minimizedAffinity>
-9.77591228

$$$$

 OpenBabel11232420453D

 37 41  0  0  1  0  0  0  0  0999 V2000
  -19.7240   20.6920   11.0740 C   0  0  2  0  0  3  0  0  0  0  0  0
  -19.5530   21.8540   11.6850 N   0  0  0  0  0  2  0  0  0  0  0  0
  -18.9430   22.6990   10.7970 C   0  0  2  0  0  3  0  0  0  0  0  0
  -18.5910   21.9940    9.6720 C   0  0  0  0  0  2  0  0  0  0  0  0
  -18.9650   20.6930    9.9210 N   0  0  0  0  0  0  0  0  0  0  0  0
  -18.6940   24.1070   11.0680 C   0  0  0  0  0  0  0  0  0  0  0  0
  -19.6820   24.8660   11.7130 C   0  0  0  0  0  3  0  0  0  0  0  0
  -19.4710   26.2160   11.9980 C   0  0  0  0  0  3  0  0  0  0  0  0
  -18.2740   26.8160   11.6260 C   0  0  0  0  0  0  0  0  0  0  0  0
  -18.0810   28.1100   11.9160 F   0  0  0  0  0  0  0  0  0  0  0  0
  -17.2800   26.0970   10.9610 C   0  0  0  0  0  0  0  0  0  0  0  0
  -15.9960   26.7690   10.5770 C   0  0  0  0  0  1  0  0  0  0  0  0
  -17.4940   24.7350   10.6950 C   0  0  0  0  0  3  0  0  0  0  0  0
  -21.4070   17.4830   13.4470 N   0  0  0  0  0  0  0  0  0  0  0  0
  -20.7790   17.1440   12.1710 C   0  0  0  0  0  2  0  0  0  0  0  0
  -19.9040   18.2810   11.6480 C   0  0  0  0  0  2  0  0  0  0  0  0
  -20.6420   19.6370   11.6630 C   0  0  1  0  0  3  0  0  0  0  0  0
  -21.2280   19.8960   13.0510 C   0  0  0  0  0  2  0  0  0  0  0  0
  -22.1330   18.7420   13.4910 C   0  0  0  0  0  2  0  0  0  0  0  0
  -21.1480   17.5430   15.8620 C   0  0  0  0  0  0  0  0  0  0  0  0
  -20.3540   17.1550   16.9370 C   0  0  0  0  0  0  0  0  0  0  0  0
  -20.6680   17.4740   18.2450 N   0  0  0  0  0  0  0  0  0  0  0  0
  -19.2050   16.4870   16.7930 N   0  0  0  0  0  0  0  0  0  0  0  0
  -18.8710   16.1520   15.5460 C   0  0  0  0  0  3  0  0  0  0  0  0
  -19.5560   16.4540   14.4390 N   0  0  0  0  0  0  0  0  0  0  0  0
  -20.6940   17.1520   14.6010 C   0  0  0  0  0  0  0  0  0  0  0  0
  -19.9710   17.1270   18.8950 H   0  0  0  0  0  0  0  0  0  0  0  0
  -21.6290   17.3680   18.5360 H   0  0  0  0  0  0  0  0  0  0  0  0
  -23.6060   17.4050   16.4610 C   0  0  0  0  0  1  0  0  0  0  0  0
  -22.4390   18.2990   16.0620 C   0  0  0  0  0  2  0  0  0  0  0  0
  -18.4360   19.5890    9.1370 C   0  0  0  0  0  2  0  0  0  0  0  0
  -17.7320   20.0210    7.8540 C   0  0  0  0  0  3  0  0  0  0  0  0
  -16.1960   20.2070    7.8620 C   0  0  0  0  0  2  0  0  0  0  0  0
  -16.1650   19.6540    6.4950 N   0  0  0  0  0  4  0  0  0  0  0  0
  -15.0900   18.6390    6.3480 C   0  0  0  0  0  1  0  0  0  0  0  0
  -17.4780   19.0160    6.7070 C   0  0  0  0  0  2  0  0  0  0  0  0
  -16.1570   20.3680    5.7530 H   0  0  0  0  0  0  0  0  0  0  0  0
  1 17  1  0  0  0  0
  1  2  1  6  0  0  0
  3  6  1  1  0  0  0
  3  2  1  0  0  0  0
  4  5  1  0  0  0  0
  4  3  1  0  0  0  0
  5  1  1  0  0  0  0
  6  7  1  0  0  0  0
  7  8  2  0  0  0  0
  9 10  1  0  0  0  0
  9  8  1  0  0  0  0
 11  9  2  0  0  0  0
 12 11  1  0  0  0  0
 13 11  1  0  0  0  0
 13  6  2  0  0  0  0
 14 19  1  0  0  0  0
 14 26  1  0  0  0  0
 15 14  1  0  0  0  0
 16 15  1  0  0  0  0
 17 16  1  1  0  0  0
 17 18  1  0  0  0  0
 18 19  1  0  0  0  0
 20 30  1  0  0  0  0
 20 21  1  0  0  0  0
 21 22  1  0  0  0  0
 22 28  1  0  0  0  0
 22 27  1  0  0  0  0
 23 21  2  0  0  0  0
 24 23  1  0  0  0  0
 25 26  1  0  0  0  0
 25 24  2  0  0  0  0
 26 20  2  0  0  0  0
 30 29  1  0  0  0  0
 31  5  1  0  0  0  0
 32 33  1  0  0  0  0
 32 31  1  0  0  0  0
 34 36  1  0  0  0  0
 34 33  1  0  0  0  0
 35 34  1  0  0  0  0
 36 32  1  0  0  0  0
 37 34  1  0  0  0  0
M  END
>  <minimizedAffinity>
-9.70446968

$$$$

 OpenBabel11232420453D

 37 41  0  0  1  0  0  0  0  0999 V2000
  -20.0360   18.7790   11.0480 C   0  0  2  0  0  3  0  0  0  0  0  0
  -19.5820   18.6510    9.8110 N   0  0  0  0  0  2  0  0  0  0  0  0
  -18.7540   19.7150    9.5660 C   0  0  2  0  0  3  0  0  0  0  0  0
  -18.8250   20.5930   10.6180 C   0  0  0  0  0  2  0  0  0  0  0  0
  -19.7500   20.0550   11.4860 N   0  0  0  0  0  0  0  0  0  0  0  0
  -17.9740   19.8610    8.3470 C   0  0  0  0  0  0  0  0  0  0  0  0
  -18.2740   20.9090    7.4620 C   0  0  0  0  0  3  0  0  0  0  0  0
  -17.5370   21.0830    6.2890 C   0  0  0  0  0  3  0  0  0  0  0  0
  -16.5050   20.2030    5.9900 C   0  0  0  0  0  0  0  0  0  0  0  0
  -15.8000   20.3900    4.8660 F   0  0  0  0  0  0  0  0  0  0  0  0
  -16.1960   19.1360    6.8350 C   0  0  0  0  0  0  0  0  0  0  0  0
  -15.0730   18.2040    6.4900 C   0  0  0  0  0  1  0  0  0  0  0  0
  -16.9300   18.9790    8.0220 C   0  0  0  0  0  3  0  0  0  0  0  0
  -21.3130   15.7950   13.9160 N   0  0  0  0  0  0  0  0  0  0  0  0
  -20.2550   15.4380   12.9730 C   0  0  0  0  0  2  0  0  0  0  0  0
  -19.6480   16.6720   12.3080 C   0  0  0  0  0  2  0  0  0  0  0  0
  -20.7270   17.6180   11.7390 C   0  0  1  0  0  3  0  0  0  0  0  0
  -21.7570   17.9430   12.8210 C   0  0  0  0  0  2  0  0  0  0  0  0
  -22.3620   16.6640   13.4080 C   0  0  0  0  0  2  0  0  0  0  0  0
  -21.3300   15.1740   16.2660 C   0  0  0  0  0  0  0  0  0  0  0  0
  -20.8760   15.5040   17.5390 C   0  0  0  0  0  0  0  0  0  0  0  0
  -21.2020   14.7630   18.6590 N   0  0  0  0  0  0  0  0  0  0  0  0
  -20.1300   16.5850   17.7910 N   0  0  0  0  0  0  0  0  0  0  0  0
  -19.7860   17.3220   16.7350 C   0  0  0  0  0  3  0  0  0  0  0  0
  -20.1470   17.1000   15.4670 N   0  0  0  0  0  0  0  0  0  0  0  0
  -20.9210   16.0250   15.2360 C   0  0  0  0  0  0  0  0  0  0  0  0
  -20.8000   15.1580   19.5020 H   0  0  0  0  0  0  0  0  0  0  0  0
  -21.1600   13.7570   18.5840 H   0  0  0  0  0  0  0  0  0  0  0  0
  -23.6690   14.2250   16.0500 C   0  0  0  0  0  1  0  0  0  0  0  0
  -22.1720   13.9470   16.0180 C   0  0  0  0  0  2  0  0  0  0  0  0
  -20.3680   20.8590   12.5270 C   0  0  0  0  0  2  0  0  0  0  0  0
  -20.8150   22.2410   12.0610 C   0  0  0  0  0  3  0  0  0  0  0  0
  -19.8320   23.4300   12.1760 C   0  0  0  0  0  2  0  0  0  0  0  0
  -20.3660   23.9390   10.8980 N   0  0  0  0  0  4  0  0  0  0  0  0
  -19.2720   24.3500    9.9810 C   0  0  0  0  0  1  0  0  0  0  0  0
  -20.8720   22.5950   10.5570 C   0  0  0  0  0  2  0  0  0  0  0  0
  -21.1010   24.6520   11.0040 H   0  0  0  0  0  0  0  0  0  0  0  0
  1  2  1  1  0  0  0
  1  5  1  0  0  0  0
  1 17  1  0  0  0  0
  3  6  1  6  0  0  0
  3  2  1  0  0  0  0
  3  4  1  0  0  0  0
  4  5  1  0  0  0  0
  5 31  1  0  0  0  0
  7  6  2  0  0  0  0
  8  7  1  0  0  0  0
  9  8  2  0  0  0  0
  9 11  1  0  0  0  0
 10  9  1  0  0  0  0
 11 13  2  0  0  0  0
 12 11  1  0  0  0  0
 13  6  1  0  0  0  0
 14 26  1  0  0  0  0
 15 14  1  0  0  0  0
 16 15  1  0  0  0  0
 17 16  1  1  0  0  0
 17 18  1  0  0  0  0
 18 19  1  0  0  0  0
 19 14  1  0  0  0  0
 20 21  1  0  0  0  0
 21 23  2  0  0  0  0
 21 22  1  0  0  0  0
 22 27  1  0  0  0  0
 24 23  1  0  0  0  0
 25 24  2  0  0  0  0
 26 25  1  0  0  0  0
 26 20  2  0  0  0  0
 28 22  1  0  0  0  0
 30 29  1  0  0  0  0
 30 20  1  0  0  0  0
 32 33  1  0  0  0  0
 32 31  1  0  0  0  0
 34 37  1  0  0  0  0
 34 33  1  0  0  0  0
 35 34  1  0  0  0  0
 36 34  1  0  0  0  0
 36 32  1  0  0  0  0
M  END
>  <minimizedAffinity>
-9.23972797

$$$$

 OpenBabel11232420453D

 37 41  0  0  1  0  0  0  0  0999 V2000
  -19.3770   25.9980   11.1920 C   0  0  2  0  0  3  0  0  0  0  0  0
  -20.1730   24.9410   11.1800 N   0  0  0  0  0  2  0  0  0  0  0  0
  -19.4100   23.8470   11.4910 C   0  0  2  0  0  3  0  0  0  0  0  0
  -18.0890   24.2190   11.5400 C   0  0  0  0  0  2  0  0  0  0  0  0
  -18.0700   25.5560   11.2090 N   0  0  0  0  0  0  0  0  0  0  0  0
  -19.9580   22.5140   11.6880 C   0  0  0  0  0  0  0  0  0  0  0  0
  -19.2010   21.3970   11.3020 C   0  0  0  0  0  3  0  0  0  0  0  0
  -19.6940   20.1040   11.4880 C   0  0  0  0  0  3  0  0  0  0  0  0
  -20.9520   19.9240   12.0480 C   0  0  0  0  0  0  0  0  0  0  0  0
  -21.4070   18.6770   12.2300 F   0  0  0  0  0  0  0  0  0  0  0  0
  -21.7420   21.0130   12.4200 C   0  0  0  0  0  0  0  0  0  0  0  0
  -23.0940   20.7880   13.0280 C   0  0  0  0  0  1  0  0  0  0  0  0
  -21.2310   22.3090   12.2470 C   0  0  0  0  0  3  0  0  0  0  0  0
  -19.9460   30.2740   11.5850 N   0  0  0  0  0  0  0  0  0  0  0  0
  -20.3400   29.4180   12.7030 C   0  0  0  0  0  2  0  0  0  0  0  0
  -19.7340   28.0210   12.5900 C   0  0  0  0  0  2  0  0  0  0  0  0
  -19.9550   27.4010   11.1940 C   0  0  1  0  0  3  0  0  0  0  0  0
  -19.4800   28.3700   10.1120 C   0  0  0  0  0  2  0  0  0  0  0  0
  -20.1650   29.7330   10.2530 C   0  0  0  0  0  2  0  0  0  0  0  0
  -18.6070   31.8440   12.8680 C   0  0  0  0  0  0  0  0  0  0  0  0
  -17.4030   32.5410   12.9250 C   0  0  0  0  0  0  0  0  0  0  0  0
  -17.0910   33.3990   13.9630 N   0  0  0  0  0  0  0  0  0  0  0  0
  -16.4750   32.4740   11.9650 N   0  0  0  0  0  0  0  0  0  0  0  0
  -16.7350   31.6490   10.9510 C   0  0  0  0  0  3  0  0  0  0  0  0
  -17.8430   30.9210   10.7920 N   0  0  0  0  0  0  0  0  0  0  0  0
  -18.7800   31.0220   11.7520 C   0  0  0  0  0  0  0  0  0  0  0  0
  -16.1840   33.8330   13.8320 H   0  0  0  0  0  0  0  0  0  0  0  0
  -17.2990   33.0940   14.9020 H   0  0  0  0  0  0  0  0  0  0  0  0
  -20.6640   33.0410   13.7350 C   0  0  0  0  0  1  0  0  0  0  0  0
  -19.6330   31.9440   13.9690 C   0  0  0  0  0  2  0  0  0  0  0  0
  -16.8420   26.2160   10.7960 C   0  0  0  0  0  2  0  0  0  0  0  0
  -16.1280   25.5280    9.6360 C   0  0  0  0  0  3  0  0  0  0  0  0
  -16.2560   26.1210    8.2140 C   0  0  0  0  0  2  0  0  0  0  0  0
  -14.8480   25.7460    7.9770 N   0  0  0  0  0  4  0  0  0  0  0  0
  -14.0920   26.8590    7.3470 C   0  0  0  0  0  1  0  0  0  0  0  0
  -14.6040   25.6900    9.4310 C   0  0  0  0  0  2  0  0  0  0  0  0
  -14.7290   24.8450    7.4940 H   0  0  0  0  0  0  0  0  0  0  0  0
  1  2  1  1  0  0  0
  1 17  1  0  0  0  0
  1  5  1  0  0  0  0
  2  3  1  0  0  0  0
  3  4  1  0  0  0  0
  3  6  1  6  0  0  0
  5  4  1  0  0  0  0
  6 13  1  0  0  0  0
  7  8  1  0  0  0  0
  7  6  2  0  0  0  0
  8  9  2  0  0  0  0
  9 10  1  0  0  0  0
  9 11  1  0  0  0  0
 11 12  1  0  0  0  0
 13 11  2  0  0  0  0
 14 26  1  0  0  0  0
 14 15  1  0  0  0  0
 16 15  1  0  0  0  0
 17 18  1  6  0  0  0
 17 16  1  0  0  0  0
 18 19  1  0  0  0  0
 19 14  1  0  0  0  0
 20 21  1  0  0  0  0
 20 30  1  0  0  0  0
 21 22  1  0  0  0  0
 22 28  1  0  0  0  0
 23 21  2  0  0  0  0
 24 23  1  0  0  0  0
 25 24  2  0  0  0  0
 25 26  1  0  0  0  0
 26 20  2  0  0  0  0
 27 22  1  0  0  0  0
 29 30  1  0  0  0  0
 31  5  1  0  0  0  0
 32 31  1  0  0  0  0
 33 32  1  0  0  0  0
 34 33  1  0  0  0  0
 34 36  1  0  0  0  0
 35 34  1  0  0  0  0
 36 32  1  0  0  0  0
 37 34  1  0  0  0  0
M  END
>  <minimizedAffinity>
-9.07036304

$$$$

 OpenBabel11232420453D

 37 41  0  0  1  0  0  0  0  0999 V2000
  -19.7160   29.4990   13.1140 C   0  0  2  0  0  3  0  0  0  0  0  0
  -20.1990   28.3440   12.6850 N   0  0  0  0  0  2  0  0  0  0  0  0
  -19.2590   27.7890   11.8560 C   0  0  2  0  0  3  0  0  0  0  0  0
  -18.2490   28.6950   11.6500 C   0  0  0  0  0  2  0  0  0  0  0  0
  -18.6220   29.8270   12.3410 N   0  0  0  0  0  0  0  0  0  0  0  0
  -19.3810   26.4600   11.2790 C   0  0  0  0  0  0  0  0  0  0  0  0
  -20.5890   25.7580   11.4200 C   0  0  0  0  0  3  0  0  0  0  0  0
  -20.7420   24.4850   10.8690 C   0  0  0  0  0  3  0  0  0  0  0  0
  -19.6830   23.9020   10.1850 C   0  0  0  0  0  0  0  0  0  0  0  0
  -19.8490   22.6840    9.6520 F   0  0  0  0  0  0  0  0  0  0  0  0
  -18.4600   24.5600   10.0480 C   0  0  0  0  0  0  0  0  0  0  0  0
  -17.3360   23.9090    9.2990 C   0  0  0  0  0  1  0  0  0  0  0  0
  -18.3210   25.8480   10.5890 C   0  0  0  0  0  3  0  0  0  0  0  0
  -20.6180   32.2500   16.3360 N   0  0  0  0  0  0  0  0  0  0  0  0
  -19.9110   31.0120   16.6610 C   0  0  0  0  0  2  0  0  0  0  0  0
  -19.3250   30.3490   15.4170 C   0  0  0  0  0  2  0  0  0  0  0  0
  -20.3650   30.2190   14.2820 C   0  0  1  0  0  3  0  0  0  0  0  0
  -21.0130   31.5770   14.0120 C   0  0  0  0  0  2  0  0  0  0  0  0
  -21.6240   32.1590   15.2900 C   0  0  0  0  0  2  0  0  0  0  0  0
  -19.8990   34.2860   17.4500 C   0  0  0  0  0  0  0  0  0  0  0  0
  -19.1050   35.4240   17.3510 C   0  0  0  0  0  0  0  0  0  0  0  0
  -19.0410   36.3750   18.3530 N   0  0  0  0  0  0  0  0  0  0  0  0
  -18.3760   35.7140   16.2670 N   0  0  0  0  0  0  0  0  0  0  0  0
  -18.4040   34.8170   15.2820 C   0  0  0  0  0  3  0  0  0  0  0  0
  -19.1140   33.6850   15.2670 N   0  0  0  0  0  0  0  0  0  0  0  0
  -19.8630   33.4230   16.3520 C   0  0  0  0  0  0  0  0  0  0  0  0
  -18.4280   37.1430   18.1040 H   0  0  0  0  0  0  0  0  0  0  0  0
  -18.9690   36.0490   19.3050 H   0  0  0  0  0  0  0  0  0  0  0  0
  -22.1220   34.5580   18.6340 C   0  0  0  0  0  1  0  0  0  0  0  0
  -20.7100   33.9910   18.6880 C   0  0  0  0  0  2  0  0  0  0  0  0
  -18.0060   31.1160   12.0720 C   0  0  0  0  0  2  0  0  0  0  0  0
  -17.7800   31.3990   10.5900 C   0  0  0  0  0  3  0  0  0  0  0  0
  -18.9500   31.9470    9.7400 C   0  0  0  0  0  2  0  0  0  0  0  0
  -17.9740   32.7790    9.0100 N   0  0  0  0  0  4  0  0  0  0  0  0
  -18.4600   34.1750    8.8610 C   0  0  0  0  0  1  0  0  0  0  0  0
  -17.0170   32.6630   10.1270 C   0  0  0  0  0  2  0  0  0  0  0  0
  -17.6450   32.3640    8.1280 H   0  0  0  0  0  0  0  0  0  0  0  0
  1  2  1  1  0  0  0
  1 17  1  0  0  0  0
  3  6  1  6  0  0  0
  3  2  1  0  0  0  0
  4  3  1  0  0  0  0
  4  5  1  0  0  0  0
  5  1  1  0  0  0  0
  6  7  1  0  0  0  0
  8  7  2  0  0  0  0
  9  8  1  0  0  0  0
 10  9  1  0  0  0  0
 11  9  2  0  0  0  0
 11 13  1  0  0  0  0
 12 11  1  0  0  0  0
 13  6  2  0  0  0  0
 14 26  1  0  0  0  0
 14 15  1  0  0  0  0
 16 15  1  0  0  0  0
 17 18  1  6  0  0  0
 17 16  1  0  0  0  0
 18 19  1  0  0  0  0
 19 14  1  0  0  0  0
 20 30  1  0  0  0  0
 21 20  1  0  0  0  0
 21 22  1  0  0  0  0
 22 28  1  0  0  0  0
 23 21  2  0  0  0  0
 24 23  1  0  0  0  0
 25 24  2  0  0  0  0
 25 26  1  0  0  0  0
 26 20  2  0  0  0  0
 27 22  1  0  0  0  0
 29 30  1  0  0  0  0
 31  5  1  0  0  0  0
 32 31  1  0  0  0  0
 33 32  1  0  0  0  0
 34 33  1  0  0  0  0
 34 36  1  0  0  0  0
 35 34  1  0  0  0  0
 36 32  1  0  0  0  0
 37 34  1  0  0  0  0
M  END
>  <minimizedAffinity>
-8.97463894

$$$$
