
 OpenBabel11232420453D

 37 41  0  0  1  0  0  0  0  0999 V2000
  -19.7160   29.4990   13.1140 C   0  0  2  0  0  3  0  0  0  0  0  0
  -20.1990   28.3440   12.6850 N   0  0  0  0  0  2  0  0  0  0  0  0
  -19.2590   27.7890   11.8560 C   0  0  2  0  0  3  0  0  0  0  0  0
  -18.2490   28.6950   11.6500 C   0  0  0  0  0  2  0  0  0  0  0  0
  -18.6220   29.8270   12.3410 N   0  0  0  0  0  0  0  0  0  0  0  0
  -19.3810   26.4600   11.2790 C   0  0  0  0  0  0  0  0  0  0  0  0
  -20.5890   25.7580   11.4200 C   0  0  0  0  0  3  0  0  0  0  0  0
  -20.7420   24.4850   10.8690 C   0  0  0  0  0  3  0  0  0  0  0  0
  -19.6830   23.9020   10.1850 C   0  0  0  0  0  0  0  0  0  0  0  0
  -19.8490   22.6840    9.6520 F   0  0  0  0  0  0  0  0  0  0  0  0
  -18.4600   24.5600   10.0480 C   0  0  0  0  0  0  0  0  0  0  0  0
  -17.3360   23.9090    9.2990 C   0  0  0  0  0  1  0  0  0  0  0  0
  -18.3210   25.8480   10.5890 C   0  0  0  0  0  3  0  0  0  0  0  0
  -20.6180   32.2500   16.3360 N   0  0  0  0  0  0  0  0  0  0  0  0
  -19.9110   31.0120   16.6610 C   0  0  0  0  0  2  0  0  0  0  0  0
  -19.3250   30.3490   15.4170 C   0  0  0  0  0  2  0  0  0  0  0  0
  -20.3650   30.2190   14.2820 C   0  0  1  0  0  3  0  0  0  0  0  0
  -21.0130   31.5770   14.0120 C   0  0  0  0  0  2  0  0  0  0  0  0
  -21.6240   32.1590   15.2900 C   0  0  0  0  0  2  0  0  0  0  0  0
  -19.8990   34.2860   17.4500 C   0  0  0  0  0  0  0  0  0  0  0  0
  -19.1050   35.4240   17.3510 C   0  0  0  0  0  0  0  0  0  0  0  0
  -19.0410   36.3750   18.3530 N   0  0  0  0  0  0  0  0  0  0  0  0
  -18.3760   35.7140   16.2670 N   0  0  0  0  0  0  0  0  0  0  0  0
  -18.4040   34.8170   15.2820 C   0  0  0  0  0  3  0  0  0  0  0  0
  -19.1140   33.6850   15.2670 N   0  0  0  0  0  0  0  0  0  0  0  0
  -19.8630   33.4230   16.3520 C   0  0  0  0  0  0  0  0  0  0  0  0
  -18.4280   37.1430   18.1040 H   0  0  0  0  0  0  0  0  0  0  0  0
  -18.9690   36.0490   19.3050 H   0  0  0  0  0  0  0  0  0  0  0  0
  -22.1220   34.5580   18.6340 C   0  0  0  0  0  1  0  0  0  0  0  0
  -20.7100   33.9910   18.6880 C   0  0  0  0  0  2  0  0  0  0  0  0
  -18.0060   31.1160   12.0720 C   0  0  0  0  0  2  0  0  0  0  0  0
  -17.7800   31.3990   10.5900 C   0  0  0  0  0  3  0  0  0  0  0  0
  -18.9500   31.9470    9.7400 C   0  0  0  0  0  2  0  0  0  0  0  0
  -17.9740   32.7790    9.0100 N   0  0  0  0  0  4  0  0  0  0  0  0
  -18.4600   34.1750    8.8610 C   0  0  0  0  0  1  0  0  0  0  0  0
  -17.0170   32.6630   10.1270 C   0  0  0  0  0  2  0  0  0  0  0  0
  -17.6450   32.3640    8.1280 H   0  0  0  0  0  0  0  0  0  0  0  0
  1  2  1  1  0  0  0
  1 17  1  0  0  0  0
  3  6  1  6  0  0  0
  3  2  1  0  0  0  0
  4  3  1  0  0  0  0
  4  5  1  0  0  0  0
  5  1  1  0  0  0  0
  6  7  1  0  0  0  0
  8  7  2  0  0  0  0
  9  8  1  0  0  0  0
 10  9  1  0  0  0  0
 11  9  2  0  0  0  0
 11 13  1  0  0  0  0
 12 11  1  0  0  0  0
 13  6  2  0  0  0  0
 14 26  1  0  0  0  0
 14 15  1  0  0  0  0
 16 15  1  0  0  0  0
 17 18  1  6  0  0  0
 17 16  1  0  0  0  0
 18 19  1  0  0  0  0
 19 14  1  0  0  0  0
 20 30  1  0  0  0  0
 21 20  1  0  0  0  0
 21 22  1  0  0  0  0
 22 28  1  0  0  0  0
 23 21  2  0  0  0  0
 24 23  1  0  0  0  0
 25 24  2  0  0  0  0
 25 26  1  0  0  0  0
 26 20  2  0  0  0  0
 27 22  1  0  0  0  0
 29 30  1  0  0  0  0
 31  5  1  0  0  0  0
 32 31  1  0  0  0  0
 33 32  1  0  0  0  0
 34 33  1  0  0  0  0
 34 36  1  0  0  0  0
 35 34  1  0  0  0  0
 36 32  1  0  0  0  0
 37 34  1  0  0  0  0
M  END
>  <minimizedAffinity>
-8.97463894

$$$$
