
 OpenBabel11232420453D

 37 41  0  0  1  0  0  0  0  0999 V2000
  -18.8720   20.3680   10.0530 C   0  0  2  0  0  3  0  0  0  0  0  0
  -19.7240   20.0950   11.0280 N   0  0  0  0  0  2  0  0  0  0  0  0
  -19.8270   18.7320   11.1140 C   0  0  2  0  0  3  0  0  0  0  0  0
  -19.1450   18.1620   10.0680 C   0  0  0  0  0  2  0  0  0  0  0  0
  -18.6630   19.2160    9.3230 N   0  0  0  0  0  0  0  0  0  0  0  0
  -20.5860   18.0470   12.1490 C   0  0  0  0  0  0  0  0  0  0  0  0
  -20.8190   16.6680   12.0300 C   0  0  0  0  0  3  0  0  0  0  0  0
  -21.5350   15.9790   13.0110 C   0  0  0  0  0  3  0  0  0  0  0  0
  -22.0310   16.6700   14.1090 C   0  0  0  0  0  0  0  0  0  0  0  0
  -22.7060   15.9930   15.0480 F   0  0  0  0  0  0  0  0  0  0  0  0
  -21.8390   18.0450   14.2470 C   0  0  0  0  0  0  0  0  0  0  0  0
  -22.3810   18.7640   15.4460 C   0  0  0  0  0  1  0  0  0  0  0  0
  -21.1020   18.7260   13.2650 C   0  0  0  0  0  3  0  0  0  0  0  0
  -18.2570   24.6550   10.1150 N   0  0  0  0  0  0  0  0  0  0  0  0
  -18.8140   24.0540    8.9050 C   0  0  0  0  0  2  0  0  0  0  0  0
  -19.3330   22.6410    9.1590 C   0  0  0  0  0  2  0  0  0  0  0  0
  -18.2980   21.7640    9.8970 C   0  0  1  0  0  3  0  0  0  0  0  0
  -17.8120   22.4810   11.1570 C   0  0  0  0  0  2  0  0  0  0  0  0
  -17.2580   23.8690   10.8220 C   0  0  0  0  0  2  0  0  0  0  0  0
  -18.9970   26.7560   11.0880 C   0  0  0  0  0  0  0  0  0  0  0  0
  -19.9390   27.3650   11.9110 C   0  0  0  0  0  0  0  0  0  0  0  0
  -19.9210   28.7210   12.1810 N   0  0  0  0  0  0  0  0  0  0  0  0
  -20.9050   26.6890   12.5420 N   0  0  0  0  0  0  0  0  0  0  0  0
  -20.9610   25.3800   12.3000 C   0  0  0  0  0  3  0  0  0  0  0  0
  -20.1250   24.6860   11.5220 N   0  0  0  0  0  0  0  0  0  0  0  0
  -19.1420   25.3770   10.9180 C   0  0  0  0  0  0  0  0  0  0  0  0
  -20.6690   28.9890   12.8120 H   0  0  0  0  0  0  0  0  0  0  0  0
  -19.7530   29.3510   11.4110 H   0  0  0  0  0  0  0  0  0  0  0  0
  -16.6080   27.5960   11.1680 C   0  0  0  0  0  1  0  0  0  0  0  0
  -17.9190   27.5500   10.3940 C   0  0  0  0  0  2  0  0  0  0  0  0
  -18.2110   19.0320    7.9540 C   0  0  0  0  0  2  0  0  0  0  0  0
  -16.6950   19.0940    7.7880 C   0  0  0  0  0  3  0  0  0  0  0  0
  -16.0670   18.6830    6.4360 C   0  0  0  0  0  2  0  0  0  0  0  0
  -15.0770   19.7620    6.6160 N   0  0  0  0  0  4  0  0  0  0  0  0
  -14.9120   20.5570    5.3720 C   0  0  0  0  0  1  0  0  0  0  0  0
  -15.9720   20.4440    7.5710 C   0  0  0  0  0  2  0  0  0  0  0  0
  -14.1850   19.4500    7.0240 H   0  0  0  0  0  0  0  0  0  0  0  0
  1  2  1  1  0  0  0
  2  3  1  0  0  0  0
  3  6  1  6  0  0  0
  4  3  1  0  0  0  0
  5  1  1  0  0  0  0
  5  4  1  0  0  0  0
  6 13  1  0  0  0  0
  7  6  2  0  0  0  0
  7  8  1  0  0  0  0
  8  9  2  0  0  0  0
  9 11  1  0  0  0  0
  9 10  1  0  0  0  0
 11 12  1  0  0  0  0
 13 11  2  0  0  0  0
 14 19  1  0  0  0  0
 14 26  1  0  0  0  0
 15 16  1  0  0  0  0
 15 14  1  0  0  0  0
 17 16  1  1  0  0  0
 17  1  1  0  0  0  0
 17 18  1  0  0  0  0
 19 18  1  0  0  0  0
 20 21  1  0  0  0  0
 21 22  1  0  0  0  0
 21 23  2  0  0  0  0
 22 27  1  0  0  0  0
 24 23  1  0  0  0  0
 25 24  2  0  0  0  0
 26 20  2  0  0  0  0
 26 25  1  0  0  0  0
 28 22  1  0  0  0  0
 30 20  1  0  0  0  0
 30 29  1  0  0  0  0
 31  5  1  0  0  0  0
 32 31  1  0  0  0  0
 33 34  1  0  0  0  0
 33 32  1  0  0  0  0
 34 37  1  0  0  0  0
 34 36  1  0  0  0  0
 35 34  1  0  0  0  0
 36 32  1  0  0  0  0
M  END
>  <minimizedAffinity>
-10.462347

$$$$
