
 OpenBabel11232420453D

 37 41  0  0  1  0  0  0  0  0999 V2000
  -20.0500   20.8260   11.0510 C   0  0  2  0  0  3  0  0  0  0  0  0
  -20.6430   19.9490   11.8450 N   0  0  0  0  0  2  0  0  0  0  0  0
  -20.0790   18.7250   11.5980 C   0  0  2  0  0  3  0  0  0  0  0  0
  -19.2340   18.8280   10.5200 C   0  0  0  0  0  2  0  0  0  0  0  0
  -19.3350   20.1340   10.0960 N   0  0  0  0  0  0  0  0  0  0  0  0
  -20.3910   17.5270   12.3610 C   0  0  0  0  0  0  0  0  0  0  0  0
  -19.4710   16.4670   12.3820 C   0  0  0  0  0  3  0  0  0  0  0  0
  -19.7360   15.3080   13.1140 C   0  0  0  0  0  3  0  0  0  0  0  0
  -20.9280   15.2000   13.8190 C   0  0  0  0  0  0  0  0  0  0  0  0
  -21.1630   14.0860   14.5250 F   0  0  0  0  0  0  0  0  0  0  0  0
  -21.8760   16.2230   13.7990 C   0  0  0  0  0  0  0  0  0  0  0  0
  -23.1520   16.0820   14.5740 C   0  0  0  0  0  1  0  0  0  0  0  0
  -21.5930   17.3930   13.0760 C   0  0  0  0  0  3  0  0  0  0  0  0
  -19.3710   25.0800   11.5040 N   0  0  0  0  0  0  0  0  0  0  0  0
  -19.3380   24.2440   12.7020 C   0  0  0  0  0  2  0  0  0  0  0  0
  -19.2000   22.7620   12.3570 C   0  0  0  0  0  2  0  0  0  0  0  0
  -20.2190   22.3160   11.2860 C   0  0  1  0  0  3  0  0  0  0  0  0
  -20.1400   23.2440   10.0740 C   0  0  0  0  0  2  0  0  0  0  0  0
  -20.3380   24.7060   10.4840 C   0  0  0  0  0  2  0  0  0  0  0  0
  -17.7460   26.8690   11.2410 C   0  0  0  0  0  0  0  0  0  0  0  0
  -16.5010   27.2150   10.7270 C   0  0  0  0  0  0  0  0  0  0  0  0
  -15.9770   28.4890   10.8460 N   0  0  0  0  0  0  0  0  0  0  0  0
  -15.7320   26.3650   10.0380 N   0  0  0  0  0  0  0  0  0  0  0  0
  -16.1990   25.1230    9.9090 C   0  0  0  0  0  3  0  0  0  0  0  0
  -17.3680   24.6680   10.3690 N   0  0  0  0  0  0  0  0  0  0  0  0
  -18.1420   25.5450   11.0340 C   0  0  0  0  0  0  0  0  0  0  0  0
  -15.0700   28.5670   10.3980 H   0  0  0  0  0  0  0  0  0  0  0  0
  -16.0640   28.9500   11.7400 H   0  0  0  0  0  0  0  0  0  0  0  0
  -19.6060   28.5860   11.1470 C   0  0  0  0  0  1  0  0  0  0  0  0
  -18.5880   27.8550   12.0120 C   0  0  0  0  0  2  0  0  0  0  0  0
  -18.8840   20.5380    8.7750 C   0  0  0  0  0  2  0  0  0  0  0  0
  -17.3700   20.4880    8.5930 C   0  0  0  0  0  3  0  0  0  0  0  0
  -16.7480   19.3450    7.7580 C   0  0  0  0  0  2  0  0  0  0  0  0
  -15.7620   20.3140    7.2430 N   0  0  0  0  0  4  0  0  0  0  0  0
  -15.6080   20.1960    5.7700 C   0  0  0  0  0  1  0  0  0  0  0  0
  -16.6550   21.4330    7.5990 C   0  0  0  0  0  2  0  0  0  0  0  0
  -14.8660   20.3120    7.7490 H   0  0  0  0  0  0  0  0  0  0  0  0
  1 17  1  0  0  0  0
  1  2  1  1  0  0  0
  3  2  1  0  0  0  0
  3  6  1  6  0  0  0
  4  3  1  0  0  0  0
  5  4  1  0  0  0  0
  5  1  1  0  0  0  0
  6  7  2  0  0  0  0
  6 13  1  0  0  0  0
  7  8  1  0  0  0  0
  8  9  2  0  0  0  0
  9 10  1  0  0  0  0
 11  9  1  0  0  0  0
 11 12  1  0  0  0  0
 13 11  2  0  0  0  0
 14 15  1  0  0  0  0
 16 15  1  0  0  0  0
 17 18  1  6  0  0  0
 17 16  1  0  0  0  0
 18 19  1  0  0  0  0
 19 14  1  0  0  0  0
 20 30  1  0  0  0  0
 21 22  1  0  0  0  0
 21 20  2  0  0  0  0
 22 28  1  0  0  0  0
 23 21  1  0  0  0  0
 24 23  2  0  0  0  0
 24 25  1  0  0  0  0
 25 26  2  0  0  0  0
 26 20  1  0  0  0  0
 26 14  1  0  0  0  0
 27 22  1  0  0  0  0
 29 30  1  0  0  0  0
 31  5  1  0  0  0  0
 32 31  1  0  0  0  0
 33 32  1  0  0  0  0
 34 36  1  0  0  0  0
 34 37  1  0  0  0  0
 34 33  1  0  0  0  0
 35 34  1  0  0  0  0
 36 32  1  0  0  0  0
M  END
>  <minimizedAffinity>
-10.2233744

$$$$
