
 OpenBabel11232420453D

 37 41  0  0  1  0  0  0  0  0999 V2000
  -19.3770   25.9980   11.1920 C   0  0  2  0  0  3  0  0  0  0  0  0
  -20.1730   24.9410   11.1800 N   0  0  0  0  0  2  0  0  0  0  0  0
  -19.4100   23.8470   11.4910 C   0  0  2  0  0  3  0  0  0  0  0  0
  -18.0890   24.2190   11.5400 C   0  0  0  0  0  2  0  0  0  0  0  0
  -18.0700   25.5560   11.2090 N   0  0  0  0  0  0  0  0  0  0  0  0
  -19.9580   22.5140   11.6880 C   0  0  0  0  0  0  0  0  0  0  0  0
  -19.2010   21.3970   11.3020 C   0  0  0  0  0  3  0  0  0  0  0  0
  -19.6940   20.1040   11.4880 C   0  0  0  0  0  3  0  0  0  0  0  0
  -20.9520   19.9240   12.0480 C   0  0  0  0  0  0  0  0  0  0  0  0
  -21.4070   18.6770   12.2300 F   0  0  0  0  0  0  0  0  0  0  0  0
  -21.7420   21.0130   12.4200 C   0  0  0  0  0  0  0  0  0  0  0  0
  -23.0940   20.7880   13.0280 C   0  0  0  0  0  1  0  0  0  0  0  0
  -21.2310   22.3090   12.2470 C   0  0  0  0  0  3  0  0  0  0  0  0
  -19.9460   30.2740   11.5850 N   0  0  0  0  0  0  0  0  0  0  0  0
  -20.3400   29.4180   12.7030 C   0  0  0  0  0  2  0  0  0  0  0  0
  -19.7340   28.0210   12.5900 C   0  0  0  0  0  2  0  0  0  0  0  0
  -19.9550   27.4010   11.1940 C   0  0  1  0  0  3  0  0  0  0  0  0
  -19.4800   28.3700   10.1120 C   0  0  0  0  0  2  0  0  0  0  0  0
  -20.1650   29.7330   10.2530 C   0  0  0  0  0  2  0  0  0  0  0  0
  -18.6070   31.8440   12.8680 C   0  0  0  0  0  0  0  0  0  0  0  0
  -17.4030   32.5410   12.9250 C   0  0  0  0  0  0  0  0  0  0  0  0
  -17.0910   33.3990   13.9630 N   0  0  0  0  0  0  0  0  0  0  0  0
  -16.4750   32.4740   11.9650 N   0  0  0  0  0  0  0  0  0  0  0  0
  -16.7350   31.6490   10.9510 C   0  0  0  0  0  3  0  0  0  0  0  0
  -17.8430   30.9210   10.7920 N   0  0  0  0  0  0  0  0  0  0  0  0
  -18.7800   31.0220   11.7520 C   0  0  0  0  0  0  0  0  0  0  0  0
  -16.1840   33.8330   13.8320 H   0  0  0  0  0  0  0  0  0  0  0  0
  -17.2990   33.0940   14.9020 H   0  0  0  0  0  0  0  0  0  0  0  0
  -20.6640   33.0410   13.7350 C   0  0  0  0  0  1  0  0  0  0  0  0
  -19.6330   31.9440   13.9690 C   0  0  0  0  0  2  0  0  0  0  0  0
  -16.8420   26.2160   10.7960 C   0  0  0  0  0  2  0  0  0  0  0  0
  -16.1280   25.5280    9.6360 C   0  0  0  0  0  3  0  0  0  0  0  0
  -16.2560   26.1210    8.2140 C   0  0  0  0  0  2  0  0  0  0  0  0
  -14.8480   25.7460    7.9770 N   0  0  0  0  0  4  0  0  0  0  0  0
  -14.0920   26.8590    7.3470 C   0  0  0  0  0  1  0  0  0  0  0  0
  -14.6040   25.6900    9.4310 C   0  0  0  0  0  2  0  0  0  0  0  0
  -14.7290   24.8450    7.4940 H   0  0  0  0  0  0  0  0  0  0  0  0
  1  2  1  1  0  0  0
  1 17  1  0  0  0  0
  1  5  1  0  0  0  0
  2  3  1  0  0  0  0
  3  4  1  0  0  0  0
  3  6  1  6  0  0  0
  5  4  1  0  0  0  0
  6 13  1  0  0  0  0
  7  8  1  0  0  0  0
  7  6  2  0  0  0  0
  8  9  2  0  0  0  0
  9 10  1  0  0  0  0
  9 11  1  0  0  0  0
 11 12  1  0  0  0  0
 13 11  2  0  0  0  0
 14 26  1  0  0  0  0
 14 15  1  0  0  0  0
 16 15  1  0  0  0  0
 17 18  1  6  0  0  0
 17 16  1  0  0  0  0
 18 19  1  0  0  0  0
 19 14  1  0  0  0  0
 20 21  1  0  0  0  0
 20 30  1  0  0  0  0
 21 22  1  0  0  0  0
 22 28  1  0  0  0  0
 23 21  2  0  0  0  0
 24 23  1  0  0  0  0
 25 24  2  0  0  0  0
 25 26  1  0  0  0  0
 26 20  2  0  0  0  0
 27 22  1  0  0  0  0
 29 30  1  0  0  0  0
 31  5  1  0  0  0  0
 32 31  1  0  0  0  0
 33 32  1  0  0  0  0
 34 33  1  0  0  0  0
 34 36  1  0  0  0  0
 35 34  1  0  0  0  0
 36 32  1  0  0  0  0
 37 34  1  0  0  0  0
M  END
>  <minimizedAffinity>
-9.07036304

$$$$
