
 OpenBabel11232420453D

 37 41  0  0  1  0  0  0  0  0999 V2000
  -19.7560   19.6120   10.9510 C   0  0  2  0  0  3  0  0  0  0  0  0
  -19.2240   19.1730    9.8220 N   0  0  0  0  0  2  0  0  0  0  0  0
  -18.2140   20.0330    9.4820 C   0  0  2  0  0  3  0  0  0  0  0  0
  -18.2300   21.1070   10.3360 C   0  0  0  0  0  2  0  0  0  0  0  0
  -19.3020   20.8960   11.1750 N   0  0  0  0  0  0  0  0  0  0  0  0
  -17.3180   19.8160    8.3570 C   0  0  0  0  0  0  0  0  0  0  0  0
  -16.7920   18.5330    8.1360 C   0  0  0  0  0  3  0  0  0  0  0  0
  -15.9380   18.2890    7.0590 C   0  0  0  0  0  3  0  0  0  0  0  0
  -15.5960   19.3300    6.2050 C   0  0  0  0  0  0  0  0  0  0  0  0
  -14.7850   19.0770    5.1690 F   0  0  0  0  0  0  0  0  0  0  0  0
  -16.0810   20.6220    6.4090 C   0  0  0  0  0  0  0  0  0  0  0  0
  -15.7010   21.7260    5.4680 C   0  0  0  0  0  1  0  0  0  0  0  0
  -16.9540   20.8550    7.4840 C   0  0  0  0  0  3  0  0  0  0  0  0
  -21.4060   16.5180   13.4950 N   0  0  0  0  0  0  0  0  0  0  0  0
  -21.4180   16.3030   12.0490 C   0  0  0  0  0  2  0  0  0  0  0  0
  -20.4750   17.2620   11.3250 C   0  0  0  0  0  2  0  0  0  0  0  0
  -20.6870   18.7280   11.7610 C   0  0  1  0  0  3  0  0  0  0  0  0
  -20.6250   18.8320   13.2850 C   0  0  0  0  0  2  0  0  0  0  0  0
  -21.6300   17.8830   13.9440 C   0  0  0  0  0  2  0  0  0  0  0  0
  -20.8300   14.5810   14.8450 C   0  0  0  0  0  0  0  0  0  0  0  0
  -19.8150   13.9390   15.5480 C   0  0  0  0  0  0  0  0  0  0  0  0
  -20.0160   12.7460   16.2170 N   0  0  0  0  0  0  0  0  0  0  0  0
  -18.5820   14.4410   15.6720 N   0  0  0  0  0  0  0  0  0  0  0  0
  -18.3450   15.5860   15.0330 C   0  0  0  0  0  3  0  0  0  0  0  0
  -19.2300   16.2880   14.3190 N   0  0  0  0  0  0  0  0  0  0  0  0
  -20.4740   15.7830   14.2280 C   0  0  0  0  0  0  0  0  0  0  0  0
  -19.1740   12.4320   16.6870 H   0  0  0  0  0  0  0  0  0  0  0  0
  -20.5480   12.0290   15.7460 H   0  0  0  0  0  0  0  0  0  0  0  0
  -23.1810   14.4960   15.7840 C   0  0  0  0  0  1  0  0  0  0  0  0
  -22.2110   13.9870   14.7260 C   0  0  0  0  0  2  0  0  0  0  0  0
  -19.8680   21.9740   11.9680 C   0  0  0  0  0  2  0  0  0  0  0  0
  -19.3360   23.3570   11.6040 C   0  0  0  0  0  3  0  0  0  0  0  0
  -20.2780   24.3690   10.9110 C   0  0  0  0  0  2  0  0  0  0  0  0
  -19.6350   25.4400   11.6970 N   0  0  0  0  0  4  0  0  0  0  0  0
  -20.6450   26.3520   12.2930 C   0  0  0  0  0  1  0  0  0  0  0  0
  -19.1580   24.4520   12.6820 C   0  0  0  0  0  2  0  0  0  0  0  0
  -18.8830   25.9340   11.1970 H   0  0  0  0  0  0  0  0  0  0  0  0
  1  2  1  1  0  0  0
  1  5  1  0  0  0  0
  1 17  1  0  0  0  0
  3  6  1  6  0  0  0
  3  2  1  0  0  0  0
  3  4  1  0  0  0  0
  4  5  1  0  0  0  0
  5 31  1  0  0  0  0
  7  6  1  0  0  0  0
  8  7  2  0  0  0  0
  9 11  2  0  0  0  0
  9  8  1  0  0  0  0
 10  9  1  0  0  0  0
 11 13  1  0  0  0  0
 12 11  1  0  0  0  0
 13  6  2  0  0  0  0
 14 19  1  0  0  0  0
 14 26  1  0  0  0  0
 15 14  1  0  0  0  0
 16 15  1  0  0  0  0
 17 16  1  1  0  0  0
 17 18  1  0  0  0  0
 18 19  1  0  0  0  0
 20 21  1  0  0  0  0
 21 23  2  0  0  0  0
 21 22  1  0  0  0  0
 22 27  1  0  0  0  0
 24 23  1  0  0  0  0
 25 24  2  0  0  0  0
 26 25  1  0  0  0  0
 26 20  2  0  0  0  0
 28 22  1  0  0  0  0
 30 20  1  0  0  0  0
 30 29  1  0  0  0  0
 32 31  1  0  0  0  0
 32 36  1  0  0  0  0
 33 32  1  0  0  0  0
 33 34  1  0  0  0  0
 34 35  1  0  0  0  0
 34 36  1  0  0  0  0
 37 34  1  0  0  0  0
M  END
>  <minimizedAffinity>
-9.77591228

$$$$
