
 OpenBabel11232420453D

 37 41  0  0  1  0  0  0  0  0999 V2000
  -20.0360   18.7790   11.0480 C   0  0  2  0  0  3  0  0  0  0  0  0
  -19.5820   18.6510    9.8110 N   0  0  0  0  0  2  0  0  0  0  0  0
  -18.7540   19.7150    9.5660 C   0  0  2  0  0  3  0  0  0  0  0  0
  -18.8250   20.5930   10.6180 C   0  0  0  0  0  2  0  0  0  0  0  0
  -19.7500   20.0550   11.4860 N   0  0  0  0  0  0  0  0  0  0  0  0
  -17.9740   19.8610    8.3470 C   0  0  0  0  0  0  0  0  0  0  0  0
  -18.2740   20.9090    7.4620 C   0  0  0  0  0  3  0  0  0  0  0  0
  -17.5370   21.0830    6.2890 C   0  0  0  0  0  3  0  0  0  0  0  0
  -16.5050   20.2030    5.9900 C   0  0  0  0  0  0  0  0  0  0  0  0
  -15.8000   20.3900    4.8660 F   0  0  0  0  0  0  0  0  0  0  0  0
  -16.1960   19.1360    6.8350 C   0  0  0  0  0  0  0  0  0  0  0  0
  -15.0730   18.2040    6.4900 C   0  0  0  0  0  1  0  0  0  0  0  0
  -16.9300   18.9790    8.0220 C   0  0  0  0  0  3  0  0  0  0  0  0
  -21.3130   15.7950   13.9160 N   0  0  0  0  0  0  0  0  0  0  0  0
  -20.2550   15.4380   12.9730 C   0  0  0  0  0  2  0  0  0  0  0  0
  -19.6480   16.6720   12.3080 C   0  0  0  0  0  2  0  0  0  0  0  0
  -20.7270   17.6180   11.7390 C   0  0  1  0  0  3  0  0  0  0  0  0
  -21.7570   17.9430   12.8210 C   0  0  0  0  0  2  0  0  0  0  0  0
  -22.3620   16.6640   13.4080 C   0  0  0  0  0  2  0  0  0  0  0  0
  -21.3300   15.1740   16.2660 C   0  0  0  0  0  0  0  0  0  0  0  0
  -20.8760   15.5040   17.5390 C   0  0  0  0  0  0  0  0  0  0  0  0
  -21.2020   14.7630   18.6590 N   0  0  0  0  0  0  0  0  0  0  0  0
  -20.1300   16.5850   17.7910 N   0  0  0  0  0  0  0  0  0  0  0  0
  -19.7860   17.3220   16.7350 C   0  0  0  0  0  3  0  0  0  0  0  0
  -20.1470   17.1000   15.4670 N   0  0  0  0  0  0  0  0  0  0  0  0
  -20.9210   16.0250   15.2360 C   0  0  0  0  0  0  0  0  0  0  0  0
  -20.8000   15.1580   19.5020 H   0  0  0  0  0  0  0  0  0  0  0  0
  -21.1600   13.7570   18.5840 H   0  0  0  0  0  0  0  0  0  0  0  0
  -23.6690   14.2250   16.0500 C   0  0  0  0  0  1  0  0  0  0  0  0
  -22.1720   13.9470   16.0180 C   0  0  0  0  0  2  0  0  0  0  0  0
  -20.3680   20.8590   12.5270 C   0  0  0  0  0  2  0  0  0  0  0  0
  -20.8150   22.2410   12.0610 C   0  0  0  0  0  3  0  0  0  0  0  0
  -19.8320   23.4300   12.1760 C   0  0  0  0  0  2  0  0  0  0  0  0
  -20.3660   23.9390   10.8980 N   0  0  0  0  0  4  0  0  0  0  0  0
  -19.2720   24.3500    9.9810 C   0  0  0  0  0  1  0  0  0  0  0  0
  -20.8720   22.5950   10.5570 C   0  0  0  0  0  2  0  0  0  0  0  0
  -21.1010   24.6520   11.0040 H   0  0  0  0  0  0  0  0  0  0  0  0
  1  2  1  1  0  0  0
  1  5  1  0  0  0  0
  1 17  1  0  0  0  0
  3  6  1  6  0  0  0
  3  2  1  0  0  0  0
  3  4  1  0  0  0  0
  4  5  1  0  0  0  0
  5 31  1  0  0  0  0
  7  6  2  0  0  0  0
  8  7  1  0  0  0  0
  9  8  2  0  0  0  0
  9 11  1  0  0  0  0
 10  9  1  0  0  0  0
 11 13  2  0  0  0  0
 12 11  1  0  0  0  0
 13  6  1  0  0  0  0
 14 26  1  0  0  0  0
 15 14  1  0  0  0  0
 16 15  1  0  0  0  0
 17 16  1  1  0  0  0
 17 18  1  0  0  0  0
 18 19  1  0  0  0  0
 19 14  1  0  0  0  0
 20 21  1  0  0  0  0
 21 23  2  0  0  0  0
 21 22  1  0  0  0  0
 22 27  1  0  0  0  0
 24 23  1  0  0  0  0
 25 24  2  0  0  0  0
 26 25  1  0  0  0  0
 26 20  2  0  0  0  0
 28 22  1  0  0  0  0
 30 29  1  0  0  0  0
 30 20  1  0  0  0  0
 32 33  1  0  0  0  0
 32 31  1  0  0  0  0
 34 37  1  0  0  0  0
 34 33  1  0  0  0  0
 35 34  1  0  0  0  0
 36 34  1  0  0  0  0
 36 32  1  0  0  0  0
M  END
>  <minimizedAffinity>
-9.23972797

$$$$
