
 OpenBabel11232420453D

 37 41  0  0  1  0  0  0  0  0999 V2000
  -19.4630   20.5390   10.8230 C   0  0  2  0  0  3  0  0  0  0  0  0
  -18.9530   20.2130    9.6460 N   0  0  0  0  0  2  0  0  0  0  0  0
  -17.8660   21.0180    9.4330 C   0  0  2  0  0  3  0  0  0  0  0  0
  -17.8020   21.9630   10.4270 C   0  0  0  0  0  2  0  0  0  0  0  0
  -18.9030   21.7350   11.2230 N   0  0  0  0  0  0  0  0  0  0  0  0
  -16.9730   20.8770    8.2930 C   0  0  0  0  0  0  0  0  0  0  0  0
  -16.5550   22.0250    7.6030 C   0  0  0  0  0  3  0  0  0  0  0  0
  -15.6900   21.9250    6.5120 C   0  0  0  0  0  3  0  0  0  0  0  0
  -15.2490   20.6740    6.0980 C   0  0  0  0  0  0  0  0  0  0  0  0
  -14.4110   20.5950    5.0560 F   0  0  0  0  0  0  0  0  0  0  0  0
  -15.6650   19.5100    6.7460 C   0  0  0  0  0  0  0  0  0  0  0  0
  -15.1690   18.1730    6.2820 C   0  0  0  0  0  1  0  0  0  0  0  0
  -16.5200   19.6220    7.8540 C   0  0  0  0  0  3  0  0  0  0  0  0
  -21.4280   17.6580   13.3920 N   0  0  0  0  0  0  0  0  0  0  0  0
  -20.9360   17.2030   12.0930 C   0  0  0  0  0  2  0  0  0  0  0  0
  -19.9450   18.1920   11.4830 C   0  0  0  0  0  2  0  0  0  0  0  0
  -20.4820   19.6390   11.4990 C   0  0  1  0  0  3  0  0  0  0  0  0
  -20.9370   20.0100   12.9100 C   0  0  0  0  0  2  0  0  0  0  0  0
  -21.9670   19.0080   13.4380 C   0  0  0  0  0  2  0  0  0  0  0  0
  -21.0830   17.6440   15.7970 C   0  0  0  0  0  0  0  0  0  0  0  0
  -20.2780   17.1830   16.8340 C   0  0  0  0  0  0  0  0  0  0  0  0
  -20.5250   17.4890   18.1590 N   0  0  0  0  0  0  0  0  0  0  0  0
  -19.1790   16.4470   16.6330 N   0  0  0  0  0  0  0  0  0  0  0  0
  -18.9110   16.1210   15.3690 C   0  0  0  0  0  3  0  0  0  0  0  0
  -19.6130   16.4920   14.2940 N   0  0  0  0  0  0  0  0  0  0  0  0
  -20.6990   17.2560   14.5120 C   0  0  0  0  0  0  0  0  0  0  0  0
  -19.8290   17.0840   18.7750 H   0  0  0  0  0  0  0  0  0  0  0  0
  -21.4790   17.4360   18.4820 H   0  0  0  0  0  0  0  0  0  0  0  0
  -23.5210   17.6470   16.4820 C   0  0  0  0  0  1  0  0  0  0  0  0
  -22.3150   18.4740   16.0600 C   0  0  0  0  0  2  0  0  0  0  0  0
  -19.3860   22.7410   12.1540 C   0  0  0  0  0  2  0  0  0  0  0  0
  -20.3770   23.7280   11.5440 C   0  0  0  0  0  3  0  0  0  0  0  0
  -20.6080   25.0910   12.2360 C   0  0  0  0  0  2  0  0  0  0  0  0
  -20.7270   25.7020   10.8990 N   0  0  0  0  0  4  0  0  0  0  0  0
  -19.9340   26.9550   10.8050 C   0  0  0  0  0  1  0  0  0  0  0  0
  -20.0030   24.5650   10.2990 C   0  0  0  0  0  2  0  0  0  0  0  0
  -21.6960   25.8060   10.5690 H   0  0  0  0  0  0  0  0  0  0  0  0
  1  2  1  1  0  0  0
  1  5  1  0  0  0  0
  1 17  1  0  0  0  0
  3  6  1  6  0  0  0
  3  2  1  0  0  0  0
  3  4  1  0  0  0  0
  4  5  1  0  0  0  0
  5 31  1  0  0  0  0
  7  6  2  0  0  0  0
  8  7  1  0  0  0  0
  9  8  2  0  0  0  0
  9 11  1  0  0  0  0
 10  9  1  0  0  0  0
 11 13  2  0  0  0  0
 12 11  1  0  0  0  0
 13  6  1  0  0  0  0
 14 19  1  0  0  0  0
 14 26  1  0  0  0  0
 15 14  1  0  0  0  0
 16 15  1  0  0  0  0
 17 16  1  1  0  0  0
 17 18  1  0  0  0  0
 18 19  1  0  0  0  0
 20 30  1  0  0  0  0
 20 21  1  0  0  0  0
 21 22  1  0  0  0  0
 22 28  1  0  0  0  0
 22 27  1  0  0  0  0
 23 21  2  0  0  0  0
 24 23  1  0  0  0  0
 25 26  1  0  0  0  0
 25 24  2  0  0  0  0
 26 20  2  0  0  0  0
 30 29  1  0  0  0  0
 32 31  1  0  0  0  0
 32 33  1  0  0  0  0
 34 33  1  0  0  0  0
 35 34  1  0  0  0  0
 36 34  1  0  0  0  0
 36 32  1  0  0  0  0
 37 34  1  0  0  0  0
M  END
>  <minimizedAffinity>
-10.2835217

$$$$
