
 OpenBabel11232420543D

 38 44  0  0  1  0  0  0  0  0999 V2000
  -20.7660   21.2490   12.1480 C   0  0  0  0  0  0  0  0  0  0  0  0
  -22.0830   21.1900   12.6500 C   0  0  0  0  0  3  0  0  0  0  0  0
  -22.6320   20.0110   13.1660 C   0  0  0  0  0  3  0  0  0  0  0  0
  -21.8710   18.8450   13.2320 C   0  0  0  0  0  0  0  0  0  0  0  0
  -20.5590   18.8690   12.7640 C   0  0  0  0  0  3  0  0  0  0  0  0
  -20.0230   20.0470   12.2290 C   0  0  0  0  0  3  0  0  0  0  0  0
  -22.4680   17.6270   13.7340 C   0  0  0  0  0  0  0  0  0  0  0  0
  -22.8310   16.5980   12.8960 N   0  0  0  0  0  0  0  0  0  0  0  0
  -23.3200   15.6670   13.6850 C   0  0  0  0  0  0  0  0  0  0  0  0
  -23.3060   16.0720   14.9900 N   0  0  0  0  0  0  0  0  0  0  0  0
  -22.7490   17.3280   15.0610 C   0  0  0  0  0  0  0  0  0  0  0  0
  -23.7530   15.2090   16.0670 C   0  0  0  0  0  2  0  0  0  0  0  0
  -24.6720   14.1780   15.6420 O   0  0  0  0  0  0  0  0  0  0  0  0
  -24.4920   13.6670   14.3860 C   0  0  0  0  0  0  0  0  0  0  0  0
  -25.0330   12.4310   14.0810 C   0  0  0  0  0  3  0  0  0  0  0  0
  -24.9390   11.8510   12.8620 N   0  0  0  0  0  0  0  0  0  0  0  0
  -24.2930   12.5480   11.8990 C   0  0  0  0  0  3  0  0  0  0  0  0
  -23.7370   13.8000   12.0980 C   0  0  0  0  0  3  0  0  0  0  0  0
  -23.8440   14.3610   13.3660 C   0  0  0  0  0  0  0  0  0  0  0  0
  -22.5940   18.0960   16.2890 C   0  0  0  0  0  0  0  0  0  0  0  0
  -23.6390   18.9130   16.7380 C   0  0  0  0  0  3  0  0  0  0  0  0
  -23.5030   19.6410   17.9210 C   0  0  0  0  0  3  0  0  0  0  0  0
  -22.3230   19.5600   18.6570 C   0  0  0  0  0  3  0  0  0  0  0  0
  -21.2760   18.7550   18.2120 C   0  0  0  0  0  3  0  0  0  0  0  0
  -21.4100   18.0230   17.0300 C   0  0  0  0  0  3  0  0  0  0  0  0
  -20.1310   22.5720   11.5310 C   0  0  2  0  0  0  0  0  0  0  0  0
  -20.1980   22.8420   10.0100 C   0  0  0  0  0  2  0  0  0  0  0  0
  -18.6560   22.6400    9.8910 C   0  0  1  0  0  0  0  0  0  0  0  0
  -18.5870   22.6630   11.4490 C   0  0  0  0  0  2  0  0  0  0  0  0
  -20.7030   23.7160   12.2850 N   0  0  0  0  0  4  0  0  0  0  0  0
  -20.4930   23.6510   13.2890 H   0  0  0  0  0  0  0  0  0  0  0  0
  -21.7270   23.7390   12.1990 H   0  0  0  0  0  0  0  0  0  0  0  0
  -20.3440   24.6220   11.9520 H   0  0  0  0  0  0  0  0  0  0  0  0
  -18.2410   21.3760    9.1510 C   0  0  0  0  0  3  0  0  0  0  0  0
  -18.1070   21.2910    7.6540 C   0  0  0  0  0  2  0  0  0  0  0  0
  -16.8960   21.1110    8.5300 C   0  0  0  0  0  2  0  0  0  0  0  0
  -18.0220   23.8160    9.3330 O   0  0  0  0  0  0  0  0  0  0  0  0
  -17.1090   23.5440    9.1170 H   0  0  0  0  0  0  0  0  0  0  0  0
  1  6  2  0  0  0  0
  1  2  1  0  0  0  0
  2  3  2  0  0  0  0
  3  4  1  0  0  0  0
  4  7  1  0  0  0  0
  5  4  2  0  0  0  0
  6  5  1  0  0  0  0
  7 11  2  0  0  0  0
  8  9  2  0  0  0  0
  8  7  1  0  0  0  0
  9 10  1  0  0  0  0
 10 11  1  0  0  0  0
 10 12  1  0  0  0  0
 11 20  1  0  0  0  0
 13 12  1  0  0  0  0
 14 13  1  0  0  0  0
 15 14  1  0  0  0  0
 16 15  2  0  0  0  0
 17 18  2  0  0  0  0
 17 16  1  0  0  0  0
 18 19  1  0  0  0  0
 19  9  1  0  0  0  0
 19 14  2  0  0  0  0
 20 21  2  0  0  0  0
 20 25  1  0  0  0  0
 21 22  1  0  0  0  0
 22 23  2  0  0  0  0
 24 23  1  0  0  0  0
 25 24  2  0  0  0  0
 26  1  1  0  0  0  0
 26 30  1  1  0  0  0
 27 26  1  0  0  0  0
 28 37  1  6  0  0  0
 28 27  1  0  0  0  0
 28 29  1  0  0  0  0
 29 26  1  0  0  0  0
 30 31  1  0  0  0  0
 32 30  1  0  0  0  0
 33 30  1  0  0  0  0
 34 28  1  0  0  0  0
 35 36  1  0  0  0  0
 35 34  1  0  0  0  0
 36 34  1  0  0  0  0
 38 37  1  0  0  0  0
M  END
>  <minimizedAffinity>
-11.5202885

$$$$
