
 OpenBabel11232420543D

 38 44  0  0  1  0  0  0  0  0999 V2000
  -19.5260   26.7250   10.9770 C   0  0  0  0  0  0  0  0  0  0  0  0
  -18.4750   25.8630   11.3550 C   0  0  0  0  0  3  0  0  0  0  0  0
  -18.6580   24.4830   11.5010 C   0  0  0  0  0  3  0  0  0  0  0  0
  -19.8990   23.9020   11.2430 C   0  0  0  0  0  0  0  0  0  0  0  0
  -20.9570   24.7190   10.8500 C   0  0  0  0  0  3  0  0  0  0  0  0
  -20.7710   26.1010   10.7250 C   0  0  0  0  0  3  0  0  0  0  0  0
  -20.0780   22.4800   11.4370 C   0  0  0  0  0  0  0  0  0  0  0  0
  -20.8180   21.9780   12.4840 N   0  0  0  0  0  0  0  0  0  0  0  0
  -20.7740   20.6720   12.3410 C   0  0  0  0  0  0  0  0  0  0  0  0
  -20.0160   20.3210   11.2590 N   0  0  0  0  0  0  0  0  0  0  0  0
  -19.5620   21.4640   10.6430 C   0  0  0  0  0  0  0  0  0  0  0  0
  -19.8460   18.9370   10.8570 C   0  0  0  0  0  2  0  0  0  0  0  0
  -20.0540   17.9910   11.9290 O   0  0  0  0  0  0  0  0  0  0  0  0
  -20.9900   18.3190   12.8720 C   0  0  0  0  0  0  0  0  0  0  0  0
  -21.5340   17.3160   13.6540 C   0  0  0  0  0  3  0  0  0  0  0  0
  -22.4410   17.5380   14.6330 N   0  0  0  0  0  0  0  0  0  0  0  0
  -22.8050   18.8220   14.8540 C   0  0  0  0  0  3  0  0  0  0  0  0
  -22.3030   19.8960   14.1410 C   0  0  0  0  0  3  0  0  0  0  0  0
  -21.3790   19.6310   13.1350 C   0  0  0  0  0  0  0  0  0  0  0  0
  -18.6970   21.4850    9.4720 C   0  0  0  0  0  0  0  0  0  0  0  0
  -17.3520   21.8470    9.6030 C   0  0  0  0  0  3  0  0  0  0  0  0
  -16.5130   21.8560    8.4870 C   0  0  0  0  0  3  0  0  0  0  0  0
  -17.0160   21.5070    7.2350 C   0  0  0  0  0  3  0  0  0  0  0  0
  -18.3570   21.1520    7.0950 C   0  0  0  0  0  3  0  0  0  0  0  0
  -19.1970   21.1410    8.2110 C   0  0  0  0  0  3  0  0  0  0  0  0
  -19.3460   28.3000   10.8310 C   0  0  2  0  0  0  0  0  0  0  0  0
  -17.9560   28.9520   11.0020 C   0  0  0  0  0  2  0  0  0  0  0  0
  -18.4190   29.6280   12.3300 C   0  0  1  0  0  0  0  0  0  0  0  0
  -19.8750   29.1980   11.9760 C   0  0  0  0  0  2  0  0  0  0  0  0
  -19.9400   28.6810    9.5240 N   0  0  0  0  0  4  0  0  0  0  0  0
  -20.9330   28.4260    9.4700 H   0  0  0  0  0  0  0  0  0  0  0  0
  -19.4680   28.1950    8.7500 H   0  0  0  0  0  0  0  0  0  0  0  0
  -19.8690   29.6920    9.3430 H   0  0  0  0  0  0  0  0  0  0  0  0
  -17.7660   29.0650   13.5850 C   0  0  0  0  0  3  0  0  0  0  0  0
  -16.4230   29.5100   14.0970 C   0  0  0  0  0  2  0  0  0  0  0  0
  -17.6610   29.7550   14.9170 C   0  0  0  0  0  2  0  0  0  0  0  0
  -18.2770   31.0660   12.2550 O   0  0  0  0  0  0  0  0  0  0  0  0
  -18.4020   31.3900   13.1690 H   0  0  0  0  0  0  0  0  0  0  0  0
  1  2  1  0  0  0  0
  2  3  2  0  0  0  0
  4  7  1  0  0  0  0
  4  3  1  0  0  0  0
  5  4  2  0  0  0  0
  6  5  1  0  0  0  0
  6  1  2  0  0  0  0
  7  8  1  0  0  0  0
  9  8  2  0  0  0  0
  9 19  1  0  0  0  0
 10  9  1  0  0  0  0
 11 10  1  0  0  0  0
 11  7  2  0  0  0  0
 12 10  1  0  0  0  0
 12 13  1  0  0  0  0
 13 14  1  0  0  0  0
 14 19  2  0  0  0  0
 14 15  1  0  0  0  0
 15 16  2  0  0  0  0
 16 17  1  0  0  0  0
 18 17  2  0  0  0  0
 19 18  1  0  0  0  0
 20 21  1  0  0  0  0
 20 11  1  0  0  0  0
 22 21  2  0  0  0  0
 23 22  1  0  0  0  0
 24 23  2  0  0  0  0
 24 25  1  0  0  0  0
 25 20  2  0  0  0  0
 26 30  1  6  0  0  0
 26  1  1  0  0  0  0
 26 27  1  0  0  0  0
 26 29  1  0  0  0  0
 27 28  1  0  0  0  0
 28 37  1  6  0  0  0
 28 34  1  0  0  0  0
 29 28  1  0  0  0  0
 31 30  1  0  0  0  0
 32 30  1  0  0  0  0
 33 30  1  0  0  0  0
 34 35  1  0  0  0  0
 34 36  1  0  0  0  0
 35 36  1  0  0  0  0
 37 38  1  0  0  0  0
M  END
>  <minimizedAffinity>
-10.9727106

$$$$
