
 OpenBabel11232420543D

 38 44  0  0  1  0  0  0  0  0999 V2000
  -21.3250   19.4510   13.0040 C   0  0  0  0  0  0  0  0  0  0  0  0
  -22.1130   20.6190   12.9380 C   0  0  0  0  0  3  0  0  0  0  0  0
  -21.6320   21.8130   12.3890 C   0  0  0  0  0  3  0  0  0  0  0  0
  -20.3480   21.8780   11.8500 C   0  0  0  0  0  0  0  0  0  0  0  0
  -19.5460   20.7390   11.8800 C   0  0  0  0  0  3  0  0  0  0  0  0
  -20.0260   19.5540   12.4500 C   0  0  0  0  0  3  0  0  0  0  0  0
  -19.8550   23.1310   11.3220 C   0  0  0  0  0  0  0  0  0  0  0  0
  -20.1890   24.3400   11.8900 N   0  0  0  0  0  0  0  0  0  0  0  0
  -19.5640   25.2430   11.1690 C   0  0  0  0  0  0  0  0  0  0  0  0
  -18.8650   24.6610   10.1490 N   0  0  0  0  0  0  0  0  0  0  0  0
  -19.0180   23.2960   10.2260 C   0  0  0  0  0  0  0  0  0  0  0  0
  -18.0520   25.4390    9.2330 C   0  0  0  0  0  2  0  0  0  0  0  0
  -18.4510   26.8240    9.1340 O   0  0  0  0  0  0  0  0  0  0  0  0
  -18.9540   27.4060   10.2660 C   0  0  0  0  0  0  0  0  0  0  0  0
  -18.9540   28.7850   10.3660 C   0  0  0  0  0  3  0  0  0  0  0  0
  -19.4550   29.4600   11.4270 N   0  0  0  0  0  0  0  0  0  0  0  0
  -19.9990   28.7230   12.4220 C   0  0  0  0  0  3  0  0  0  0  0  0
  -20.0660   27.3400   12.4060 C   0  0  0  0  0  3  0  0  0  0  0  0
  -19.5330   26.6790   11.3040 C   0  0  0  0  0  0  0  0  0  0  0  0
  -18.4410   22.3450    9.2870 C   0  0  0  0  0  0  0  0  0  0  0  0
  -17.1430   21.8630    9.4900 C   0  0  0  0  0  3  0  0  0  0  0  0
  -16.5880   20.9400    8.6030 C   0  0  0  0  0  3  0  0  0  0  0  0
  -17.3250   20.4980    7.5050 C   0  0  0  0  0  3  0  0  0  0  0  0
  -18.6160   20.9790    7.2920 C   0  0  0  0  0  3  0  0  0  0  0  0
  -19.1740   21.9010    8.1810 C   0  0  0  0  0  3  0  0  0  0  0  0
  -21.8420   18.0900   13.6480 C   0  0  2  0  0  0  0  0  0  0  0  0
  -23.1850   18.0420   14.4120 C   0  0  0  0  0  2  0  0  0  0  0  0
  -22.4300   17.8140   15.7580 C   0  0  1  0  0  0  0  0  0  0  0  0
  -21.1320   17.5790   14.9260 C   0  0  0  0  0  2  0  0  0  0  0  0
  -21.8220   17.0690   12.5700 N   0  0  0  0  0  4  0  0  0  0  0  0
  -20.8790   16.9470   12.1810 H   0  0  0  0  0  0  0  0  0  0  0  0
  -22.4300   17.3470   11.7890 H   0  0  0  0  0  0  0  0  0  0  0  0
  -22.1430   16.1480   12.8990 H   0  0  0  0  0  0  0  0  0  0  0  0
  -22.4880   18.9920   16.7200 C   0  0  0  0  0  3  0  0  0  0  0  0
  -23.4500   19.0810   17.8730 C   0  0  0  0  0  2  0  0  0  0  0  0
  -21.9690   19.0120   18.1320 C   0  0  0  0  0  2  0  0  0  0  0  0
  -22.8620   16.5870   16.3920 O   0  0  0  0  0  0  0  0  0  0  0  0
  -22.4930   16.6150   17.2960 H   0  0  0  0  0  0  0  0  0  0  0  0
  1 26  1  0  0  0  0
  2  1  1  0  0  0  0
  3  2  2  0  0  0  0
  4  5  2  0  0  0  0
  4  3  1  0  0  0  0
  5  6  1  0  0  0  0
  6  1  2  0  0  0  0
  7  4  1  0  0  0  0
  7  8  1  0  0  0  0
  9 19  1  0  0  0  0
  9  8  2  0  0  0  0
 10 11  1  0  0  0  0
 10  9  1  0  0  0  0
 11  7  2  0  0  0  0
 12 10  1  0  0  0  0
 13 12  1  0  0  0  0
 13 14  1  0  0  0  0
 14 15  2  0  0  0  0
 14 19  1  0  0  0  0
 15 16  1  0  0  0  0
 16 17  2  0  0  0  0
 18 17  1  0  0  0  0
 19 18  2  0  0  0  0
 20 21  1  0  0  0  0
 20 11  1  0  0  0  0
 22 21  2  0  0  0  0
 23 22  1  0  0  0  0
 24 23  2  0  0  0  0
 24 25  1  0  0  0  0
 25 20  2  0  0  0  0
 26 30  1  6  0  0  0
 26 27  1  0  0  0  0
 26 29  1  0  0  0  0
 27 28  1  0  0  0  0
 28 37  1  1  0  0  0
 28 34  1  0  0  0  0
 29 28  1  0  0  0  0
 30 33  1  0  0  0  0
 31 30  1  0  0  0  0
 32 30  1  0  0  0  0
 34 35  1  0  0  0  0
 34 36  1  0  0  0  0
 35 36  1  0  0  0  0
 37 38  1  0  0  0  0
M  END
>  <minimizedAffinity>
-11.2393894

$$$$
