
 OpenBabel11232420543D

 38 44  0  0  1  0  0  0  0  0999 V2000
  -20.9580   17.9680   13.2590 C   0  0  0  0  0  0  0  0  0  0  0  0
  -20.9110   19.3750   13.1640 C   0  0  0  0  0  3  0  0  0  0  0  0
  -20.1740   20.0310   12.1710 C   0  0  0  0  0  3  0  0  0  0  0  0
  -19.4780   19.3020   11.2080 C   0  0  0  0  0  0  0  0  0  0  0  0
  -19.5170   17.9100   11.2570 C   0  0  0  0  0  3  0  0  0  0  0  0
  -20.2380   17.2610   12.2660 C   0  0  0  0  0  3  0  0  0  0  0  0
  -18.6920   19.9980   10.2130 C   0  0  0  0  0  0  0  0  0  0  0  0
  -17.9700   19.3230    9.2560 N   0  0  0  0  0  0  0  0  0  0  0  0
  -17.4000   20.2590    8.5300 C   0  0  0  0  0  0  0  0  0  0  0  0
  -17.7100   21.5040    9.0020 N   0  0  0  0  0  0  0  0  0  0  0  0
  -18.5540   21.3740   10.0800 C   0  0  0  0  0  0  0  0  0  0  0  0
  -17.2400   22.7110    8.3490 C   0  0  0  0  0  2  0  0  0  0  0  0
  -16.0490   22.5170    7.5560 O   0  0  0  0  0  0  0  0  0  0  0  0
  -15.9070   21.3050    6.9370 C   0  0  0  0  0  0  0  0  0  0  0  0
  -15.0470   21.2000    5.8580 C   0  0  0  0  0  3  0  0  0  0  0  0
  -14.8120   20.0440    5.1960 N   0  0  0  0  0  0  0  0  0  0  0  0
  -15.4500   18.9390    5.6460 C   0  0  0  0  0  3  0  0  0  0  0  0
  -16.3120   18.9360    6.7280 C   0  0  0  0  0  3  0  0  0  0  0  0
  -16.5380   20.1440    7.3790 C   0  0  0  0  0  0  0  0  0  0  0  0
  -19.0740   22.4870   10.8620 C   0  0  0  0  0  0  0  0  0  0  0  0
  -20.2960   23.0750   10.5150 C   0  0  0  0  0  3  0  0  0  0  0  0
  -20.8070   24.1320   11.2680 C   0  0  0  0  0  3  0  0  0  0  0  0
  -20.0980   24.6110   12.3690 C   0  0  0  0  0  3  0  0  0  0  0  0
  -18.8770   24.0350   12.7160 C   0  0  0  0  0  3  0  0  0  0  0  0
  -18.3640   22.9750   11.9650 C   0  0  0  0  0  3  0  0  0  0  0  0
  -21.7670   17.2010   14.3960 C   0  0  2  0  0  0  0  0  0  0  0  0
  -21.4410   15.7290   14.7370 C   0  0  0  0  0  2  0  0  0  0  0  0
  -22.8110   15.2730   14.1460 C   0  0  1  0  0  0  0  0  0  0  0  0
  -23.2230   16.7760   14.0850 C   0  0  0  0  0  2  0  0  0  0  0  0
  -21.6960   18.0440   15.6170 N   0  0  0  0  0  4  0  0  0  0  0  0
  -22.0960   18.9760   15.4570 H   0  0  0  0  0  0  0  0  0  0  0  0
  -20.7200   18.1870   15.9090 H   0  0  0  0  0  0  0  0  0  0  0  0
  -22.1970   17.6230   16.4110 H   0  0  0  0  0  0  0  0  0  0  0  0
  -22.7060   14.4820   12.8500 C   0  0  0  0  0  3  0  0  0  0  0  0
  -23.8660   13.7640   12.2150 C   0  0  0  0  0  2  0  0  0  0  0  0
  -23.2120   14.9160   11.5010 C   0  0  0  0  0  2  0  0  0  0  0  0
  -23.5920   14.5670   15.1390 O   0  0  0  0  0  0  0  0  0  0  0  0
  -24.3320   14.1580   14.6480 H   0  0  0  0  0  0  0  0  0  0  0  0
  1 26  1  0  0  0  0
  2  1  1  0  0  0  0
  3  2  2  0  0  0  0
  4  5  2  0  0  0  0
  4  3  1  0  0  0  0
  5  6  1  0  0  0  0
  6  1  2  0  0  0  0
  7  4  1  0  0  0  0
  8  7  1  0  0  0  0
  9 10  1  0  0  0  0
  9  8  2  0  0  0  0
 10 11  1  0  0  0  0
 11  7  2  0  0  0  0
 11 20  1  0  0  0  0
 12 10  1  0  0  0  0
 13 12  1  0  0  0  0
 14 19  1  0  0  0  0
 14 13  1  0  0  0  0
 15 14  2  0  0  0  0
 16 17  2  0  0  0  0
 16 15  1  0  0  0  0
 17 18  1  0  0  0  0
 18 19  2  0  0  0  0
 19  9  1  0  0  0  0
 20 25  1  0  0  0  0
 21 20  2  0  0  0  0
 21 22  1  0  0  0  0
 22 23  2  0  0  0  0
 23 24  1  0  0  0  0
 25 24  2  0  0  0  0
 26 27  1  0  0  0  0
 26 30  1  1  0  0  0
 28 27  1  0  0  0  0
 28 37  1  1  0  0  0
 29 28  1  0  0  0  0
 29 26  1  0  0  0  0
 30 32  1  0  0  0  0
 30 33  1  0  0  0  0
 31 30  1  0  0  0  0
 34 28  1  0  0  0  0
 35 34  1  0  0  0  0
 36 35  1  0  0  0  0
 36 34  1  0  0  0  0
 38 37  1  0  0  0  0
M  END
>  <minimizedAffinity>
-10.6806707

$$$$
