
 OpenBabel11232420543D

 38 44  0  0  1  0  0  0  0  0999 V2000
  -20.3450   17.9260   11.6460 C   0  0  0  0  0  0  0  0  0  0  0  0
  -20.4580   19.0760   12.4560 C   0  0  0  0  0  3  0  0  0  0  0  0
  -19.9340   20.3150   12.0700 C   0  0  0  0  0  3  0  0  0  0  0  0
  -19.3000   20.4620   10.8370 C   0  0  0  0  0  0  0  0  0  0  0  0
  -19.1860   19.3530   10.0010 C   0  0  0  0  0  3  0  0  0  0  0  0
  -19.6950   18.1120   10.4030 C   0  0  0  0  0  3  0  0  0  0  0  0
  -18.7310   21.7410   10.4720 C   0  0  0  0  0  0  0  0  0  0  0  0
  -18.9900   22.8830   11.1950 N   0  0  0  0  0  0  0  0  0  0  0  0
  -18.3100   23.8330   10.5920 C   0  0  0  0  0  0  0  0  0  0  0  0
  -17.6480   23.3470    9.5000 N   0  0  0  0  0  0  0  0  0  0  0  0
  -17.8860   21.9950    9.4000 C   0  0  0  0  0  0  0  0  0  0  0  0
  -16.7880   24.1860    8.6870 C   0  0  0  0  0  2  0  0  0  0  0  0
  -17.1010   25.5940    8.7720 O   0  0  0  0  0  0  0  0  0  0  0  0
  -17.5670   26.0530    9.9740 C   0  0  0  0  0  0  0  0  0  0  0  0
  -17.4820   27.4050   10.2530 C   0  0  0  0  0  3  0  0  0  0  0  0
  -17.9400   27.9650   11.3960 N   0  0  0  0  0  0  0  0  0  0  0  0
  -18.5290   27.1390   12.2910 C   0  0  0  0  0  3  0  0  0  0  0  0
  -18.6820   25.7780   12.0960 C   0  0  0  0  0  3  0  0  0  0  0  0
  -18.1900   25.2340   10.9130 C   0  0  0  0  0  0  0  0  0  0  0  0
  -17.3680   21.1410    8.3410 C   0  0  0  0  0  0  0  0  0  0  0  0
  -18.0120   21.1010    7.0980 C   0  0  0  0  0  3  0  0  0  0  0  0
  -17.5130   20.2950    6.0730 C   0  0  0  0  0  3  0  0  0  0  0  0
  -16.3730   19.5220    6.2860 C   0  0  0  0  0  3  0  0  0  0  0  0
  -15.7310   19.5510    7.5230 C   0  0  0  0  0  3  0  0  0  0  0  0
  -16.2270   20.3590    8.5500 C   0  0  0  0  0  3  0  0  0  0  0  0
  -20.9100   16.5020   12.0780 C   0  0  2  0  0  0  0  0  0  0  0  0
  -21.4790   16.2780   13.4980 C   0  0  0  0  0  2  0  0  0  0  0  0
  -20.2730   15.3550   13.8520 C   0  0  1  0  0  0  0  0  0  0  0  0
  -19.8890   15.3680   12.3400 C   0  0  0  0  0  2  0  0  0  0  0  0
  -21.9090   16.1070   11.0520 N   0  0  0  0  0  4  0  0  0  0  0  0
  -21.4910   16.0590   10.1150 H   0  0  0  0  0  0  0  0  0  0  0  0
  -22.6730   16.7920   10.9990 H   0  0  0  0  0  0  0  0  0  0  0  0
  -22.3300   15.1890   11.2510 H   0  0  0  0  0  0  0  0  0  0  0  0
  -19.3030   15.9450   14.8660 C   0  0  0  0  0  3  0  0  0  0  0  0
  -19.2830   15.5650   16.3210 C   0  0  0  0  0  2  0  0  0  0  0  0
  -18.0970   15.2590   15.4460 C   0  0  0  0  0  2  0  0  0  0  0  0
  -20.7280   14.0410   14.2540 O   0  0  0  0  0  0  0  0  0  0  0  0
  -19.9450   13.5970   14.6340 H   0  0  0  0  0  0  0  0  0  0  0  0
  1 26  1  0  0  0  0
  1  2  1  0  0  0  0
  3  2  2  0  0  0  0
  4  3  1  0  0  0  0
  5  6  1  0  0  0  0
  5  4  2  0  0  0  0
  6  1  2  0  0  0  0
  7  4  1  0  0  0  0
  7  8  1  0  0  0  0
  9 19  1  0  0  0  0
  9  8  2  0  0  0  0
 10  9  1  0  0  0  0
 11 10  1  0  0  0  0
 11  7  2  0  0  0  0
 12 13  1  0  0  0  0
 12 10  1  0  0  0  0
 13 14  1  0  0  0  0
 14 15  2  0  0  0  0
 14 19  1  0  0  0  0
 15 16  1  0  0  0  0
 16 17  2  0  0  0  0
 18 17  1  0  0  0  0
 19 18  2  0  0  0  0
 20 25  1  0  0  0  0
 20 11  1  0  0  0  0
 21 20  2  0  0  0  0
 22 23  2  0  0  0  0
 22 21  1  0  0  0  0
 23 24  1  0  0  0  0
 24 25  2  0  0  0  0
 26 30  1  6  0  0  0
 26 29  1  0  0  0  0
 26 27  1  0  0  0  0
 27 28  1  0  0  0  0
 28 37  1  1  0  0  0
 28 34  1  0  0  0  0
 29 28  1  0  0  0  0
 30 33  1  0  0  0  0
 31 30  1  0  0  0  0
 32 30  1  0  0  0  0
 34 36  1  0  0  0  0
 34 35  1  0  0  0  0
 36 35  1  0  0  0  0
 37 38  1  0  0  0  0
M  END
>  <minimizedAffinity>
-11.0443611

$$$$
