
 OpenBabel11232420543D

 38 44  0  0  1  0  0  0  0  0999 V2000
  -21.0490   17.4440   12.9850 C   0  0  0  0  0  0  0  0  0  0  0  0
  -20.8040   18.8250   13.1350 C   0  0  0  0  0  3  0  0  0  0  0  0
  -20.0630   19.5570   12.2010 C   0  0  0  0  0  3  0  0  0  0  0  0
  -19.5610   18.9400   11.0550 C   0  0  0  0  0  0  0  0  0  0  0  0
  -19.7980   17.5810   10.8630 C   0  0  0  0  0  3  0  0  0  0  0  0
  -20.5240   16.8510   11.8120 C   0  0  0  0  0  3  0  0  0  0  0  0
  -18.7640   19.7050   10.1210 C   0  0  0  0  0  0  0  0  0  0  0  0
  -18.0070   19.0960    9.1460 N   0  0  0  0  0  0  0  0  0  0  0  0
  -17.4380   20.0820    8.4880 C   0  0  0  0  0  0  0  0  0  0  0  0
  -17.7820   21.2930    9.0200 N   0  0  0  0  0  0  0  0  0  0  0  0
  -18.6500   21.0880   10.0690 C   0  0  0  0  0  0  0  0  0  0  0  0
  -17.3200   22.5430    8.4480 C   0  0  0  0  0  2  0  0  0  0  0  0
  -16.1060   22.4140    7.6750 O   0  0  0  0  0  0  0  0  0  0  0  0
  -15.9270   21.2420    6.9930 C   0  0  0  0  0  0  0  0  0  0  0  0
  -15.0400   21.2130    5.9320 C   0  0  0  0  0  3  0  0  0  0  0  0
  -14.7670   20.0990    5.2120 N   0  0  0  0  0  0  0  0  0  0  0  0
  -15.3950   18.9600    5.5840 C   0  0  0  0  0  3  0  0  0  0  0  0
  -16.2820   18.8810    6.6430 C   0  0  0  0  0  3  0  0  0  0  0  0
  -16.5460   20.0470    7.3540 C   0  0  0  0  0  0  0  0  0  0  0  0
  -19.2080   22.1460   10.8980 C   0  0  0  0  0  0  0  0  0  0  0  0
  -18.4120   22.7680   11.8670 C   0  0  0  0  0  3  0  0  0  0  0  0
  -18.9360   23.7930   12.6560 C   0  0  0  0  0  3  0  0  0  0  0  0
  -20.2590   24.1970   12.4850 C   0  0  0  0  0  3  0  0  0  0  0  0
  -21.0600   23.5760   11.5280 C   0  0  0  0  0  3  0  0  0  0  0  0
  -20.5370   22.5530   10.7350 C   0  0  0  0  0  3  0  0  0  0  0  0
  -21.8670   16.5870   14.0490 C   0  0  2  0  0  0  0  0  0  0  0  0
  -23.1230   17.1730   14.7330 C   0  0  0  0  0  2  0  0  0  0  0  0
  -22.3700   17.2320   16.0990 C   0  0  1  0  0  0  0  0  0  0  0  0
  -21.2370   16.3790   15.4480 C   0  0  0  0  0  2  0  0  0  0  0  0
  -22.1890   15.2900   13.4000 N   0  0  0  0  0  4  0  0  0  0  0  0
  -21.3390   14.7900   13.1120 H   0  0  0  0  0  0  0  0  0  0  0  0
  -22.7500   15.4330   12.5500 H   0  0  0  0  0  0  0  0  0  0  0  0
  -22.7210   14.6650   14.0210 H   0  0  0  0  0  0  0  0  0  0  0  0
  -22.0510   18.6390   16.5820 C   0  0  0  0  0  3  0  0  0  0  0  0
  -23.0210   19.4980   17.3480 C   0  0  0  0  0  2  0  0  0  0  0  0
  -21.7420   19.0430   17.9980 C   0  0  0  0  0  2  0  0  0  0  0  0
  -23.0710   16.4670   17.1080 O   0  0  0  0  0  0  0  0  0  0  0  0
  -22.6500   16.7070   17.9570 H   0  0  0  0  0  0  0  0  0  0  0  0
  1  2  1  0  0  0  0
  1 26  1  0  0  0  0
  3  2  2  0  0  0  0
  4  3  1  0  0  0  0
  5  4  2  0  0  0  0
  5  6  1  0  0  0  0
  6  1  2  0  0  0  0
  7  4  1  0  0  0  0
  8  7  1  0  0  0  0
  9 10  1  0  0  0  0
  9  8  2  0  0  0  0
 10 11  1  0  0  0  0
 11  7  2  0  0  0  0
 11 20  1  0  0  0  0
 12 10  1  0  0  0  0
 13 12  1  0  0  0  0
 14 19  1  0  0  0  0
 14 13  1  0  0  0  0
 15 14  2  0  0  0  0
 16 17  2  0  0  0  0
 16 15  1  0  0  0  0
 17 18  1  0  0  0  0
 18 19  2  0  0  0  0
 19  9  1  0  0  0  0
 20 21  1  0  0  0  0
 21 22  2  0  0  0  0
 23 22  1  0  0  0  0
 24 23  2  0  0  0  0
 25 20  2  0  0  0  0
 25 24  1  0  0  0  0
 26 30  1  6  0  0  0
 26 27  1  0  0  0  0
 26 29  1  0  0  0  0
 27 28  1  0  0  0  0
 28 34  1  0  0  0  0
 28 37  1  1  0  0  0
 29 28  1  0  0  0  0
 30 33  1  0  0  0  0
 31 30  1  0  0  0  0
 32 30  1  0  0  0  0
 34 35  1  0  0  0  0
 34 36  1  0  0  0  0
 35 36  1  0  0  0  0
 37 38  1  0  0  0  0
M  END
>  <minimizedAffinity>
-11.285861

$$$$
