
 OpenBabel11232420543D

 38 44  0  0  1  0  0  0  0  0999 V2000
  -17.8690   24.9070   10.0630 C   0  0  0  0  0  0  0  0  0  0  0  0
  -19.1920   24.4910    9.8080 C   0  0  0  0  0  3  0  0  0  0  0  0
  -19.6040   23.1640    9.9850 C   0  0  0  0  0  3  0  0  0  0  0  0
  -18.7110   22.2030   10.4570 C   0  0  0  0  0  0  0  0  0  0  0  0
  -17.4000   22.5820   10.7380 C   0  0  0  0  0  3  0  0  0  0  0  0
  -16.9900   23.9050   10.5400 C   0  0  0  0  0  3  0  0  0  0  0  0
  -19.1440   20.8300   10.5970 C   0  0  0  0  0  0  0  0  0  0  0  0
  -19.8770   20.4070   11.6820 N   0  0  0  0  0  0  0  0  0  0  0  0
  -20.0980   19.1290   11.4710 C   0  0  0  0  0  0  0  0  0  0  0  0
  -19.5140   18.7140   10.3070 N   0  0  0  0  0  0  0  0  0  0  0  0
  -18.9010   19.7910    9.7080 C   0  0  0  0  0  0  0  0  0  0  0  0
  -19.6480   17.3530    9.8230 C   0  0  0  0  0  2  0  0  0  0  0  0
  -19.9450   16.3940   10.8610 O   0  0  0  0  0  0  0  0  0  0  0  0
  -20.7180   16.8280   11.9030 C   0  0  0  0  0  0  0  0  0  0  0  0
  -21.3780   15.8950   12.6820 C   0  0  0  0  0  3  0  0  0  0  0  0
  -22.1420   16.2170   13.7520 N   0  0  0  0  0  0  0  0  0  0  0  0
  -22.2320   17.5290   14.0690 C   0  0  0  0  0  3  0  0  0  0  0  0
  -21.5930   18.5350   13.3660 C   0  0  0  0  0  3  0  0  0  0  0  0
  -20.8250   18.1690   12.2660 C   0  0  0  0  0  0  0  0  0  0  0  0
  -18.1490   19.7270    8.4630 C   0  0  0  0  0  0  0  0  0  0  0  0
  -18.3660   20.6850    7.4660 C   0  0  0  0  0  3  0  0  0  0  0  0
  -17.6390   20.6390    6.2760 C   0  0  0  0  0  3  0  0  0  0  0  0
  -16.6950   19.6330    6.0740 C   0  0  0  0  0  3  0  0  0  0  0  0
  -16.4790   18.6720    7.0600 C   0  0  0  0  0  3  0  0  0  0  0  0
  -17.2030   18.7170    8.2530 C   0  0  0  0  0  3  0  0  0  0  0  0
  -17.3730   26.4050    9.8440 C   0  0  2  0  0  0  0  0  0  0  0  0
  -16.7770   27.2150   11.0160 C   0  0  0  0  0  2  0  0  0  0  0  0
  -18.0230   28.1540   11.0220 C   0  0  1  0  0  0  0  0  0  0  0  0
  -18.4490   27.5040    9.6700 C   0  0  0  0  0  2  0  0  0  0  0  0
  -16.4300   26.3810    8.6970 N   0  0  0  0  0  4  0  0  0  0  0  0
  -16.8780   26.0220    7.8450 H   0  0  0  0  0  0  0  0  0  0  0  0
  -15.6300   25.7660    8.8910 H   0  0  0  0  0  0  0  0  0  0  0  0
  -16.0560   27.3160    8.4810 H   0  0  0  0  0  0  0  0  0  0  0  0
  -18.9270   27.9960   12.2360 C   0  0  0  0  0  3  0  0  0  0  0  0
  -20.0990   28.8930   12.5260 C   0  0  0  0  0  2  0  0  0  0  0  0
  -20.3220   27.4330   12.2370 C   0  0  0  0  0  2  0  0  0  0  0  0
  -17.6310   29.5340   10.8260 O   0  0  0  0  0  0  0  0  0  0  0  0
  -18.4270   30.0640   11.0300 H   0  0  0  0  0  0  0  0  0  0  0  0
  1  6  1  0  0  0  0
  2  3  1  0  0  0  0
  2  1  2  0  0  0  0
  3  4  2  0  0  0  0
  4  7  1  0  0  0  0
  4  5  1  0  0  0  0
  6  5  2  0  0  0  0
  7  8  1  0  0  0  0
  9  8  2  0  0  0  0
  9 19  1  0  0  0  0
 10  9  1  0  0  0  0
 11 10  1  0  0  0  0
 11  7  2  0  0  0  0
 12 10  1  0  0  0  0
 12 13  1  0  0  0  0
 13 14  1  0  0  0  0
 14 19  2  0  0  0  0
 14 15  1  0  0  0  0
 15 16  2  0  0  0  0
 16 17  1  0  0  0  0
 18 17  2  0  0  0  0
 19 18  1  0  0  0  0
 20 11  1  0  0  0  0
 21 20  2  0  0  0  0
 22 21  1  0  0  0  0
 23 22  2  0  0  0  0
 23 24  1  0  0  0  0
 24 25  2  0  0  0  0
 25 20  1  0  0  0  0
 26 30  1  6  0  0  0
 26  1  1  0  0  0  0
 26 27  1  0  0  0  0
 27 28  1  0  0  0  0
 28 37  1  6  0  0  0
 28 34  1  0  0  0  0
 29 26  1  0  0  0  0
 29 28  1  0  0  0  0
 30 32  1  0  0  0  0
 31 30  1  0  0  0  0
 33 30  1  0  0  0  0
 34 36  1  0  0  0  0
 34 35  1  0  0  0  0
 36 35  1  0  0  0  0
 37 38  1  0  0  0  0
M  END
>  <minimizedAffinity>
-12.6347227

$$$$
