
 OpenBabel11232420543D

 38 44  0  0  1  0  0  0  0  0999 V2000
  -20.8700   17.4600   12.9660 C   0  0  0  0  0  0  0  0  0  0  0  0
  -20.5940   18.8320   13.1440 C   0  0  0  0  0  3  0  0  0  0  0  0
  -19.8800   19.5780   12.2000 C   0  0  0  0  0  3  0  0  0  0  0  0
  -19.4390   18.9870   11.0170 C   0  0  0  0  0  0  0  0  0  0  0  0
  -19.7080   17.6380   10.7960 C   0  0  0  0  0  3  0  0  0  0  0  0
  -20.4050   16.8920   11.7550 C   0  0  0  0  0  3  0  0  0  0  0  0
  -18.6690   19.7650   10.0710 C   0  0  0  0  0  0  0  0  0  0  0  0
  -17.9130   19.1700    9.0870 N   0  0  0  0  0  0  0  0  0  0  0  0
  -17.3720   20.1640    8.4200 C   0  0  0  0  0  0  0  0  0  0  0  0
  -17.7320   21.3690    8.9550 N   0  0  0  0  0  0  0  0  0  0  0  0
  -18.5820   21.1500   10.0150 C   0  0  0  0  0  0  0  0  0  0  0  0
  -17.3010   22.6270    8.3750 C   0  0  0  0  0  2  0  0  0  0  0  0
  -16.0960   22.5210    7.5860 O   0  0  0  0  0  0  0  0  0  0  0  0
  -15.9030   21.3510    6.9030 C   0  0  0  0  0  0  0  0  0  0  0  0
  -15.0290   21.3370    5.8310 C   0  0  0  0  0  3  0  0  0  0  0  0
  -14.7460   20.2280    5.1090 N   0  0  0  0  0  0  0  0  0  0  0  0
  -15.3460   19.0770    5.4910 C   0  0  0  0  0  3  0  0  0  0  0  0
  -16.2180   18.9830    6.5610 C   0  0  0  0  0  3  0  0  0  0  0  0
  -16.4950   20.1450    7.2750 C   0  0  0  0  0  0  0  0  0  0  0  0
  -19.1490   22.1980   10.8510 C   0  0  0  0  0  0  0  0  0  0  0  0
  -18.3640   22.8090   11.8360 C   0  0  0  0  0  3  0  0  0  0  0  0
  -18.8970   23.8240   12.6310 C   0  0  0  0  0  3  0  0  0  0  0  0
  -20.2180   24.2310   12.4490 C   0  0  0  0  0  3  0  0  0  0  0  0
  -21.0080   23.6220   11.4750 C   0  0  0  0  0  3  0  0  0  0  0  0
  -20.4760   22.6080   10.6770 C   0  0  0  0  0  3  0  0  0  0  0  0
  -21.6560   16.5860   14.0390 C   0  0  2  0  0  0  0  0  0  0  0  0
  -21.0380   16.3010   15.4270 C   0  0  0  0  0  2  0  0  0  0  0  0
  -20.8670   14.7950   15.0590 C   0  0  1  0  0  0  0  0  0  0  0  0
  -21.7490   15.0590   13.8000 C   0  0  0  0  0  2  0  0  0  0  0  0
  -23.0020   17.1960   14.1870 N   0  0  0  0  0  4  0  0  0  0  0  0
  -23.5110   17.2120   13.2940 H   0  0  0  0  0  0  0  0  0  0  0  0
  -22.9320   18.1710   14.5040 H   0  0  0  0  0  0  0  0  0  0  0  0
  -23.5870   16.6910   14.8670 H   0  0  0  0  0  0  0  0  0  0  0  0
  -19.4230   14.3530   14.8700 C   0  0  0  0  0  3  0  0  0  0  0  0
  -18.2360   15.1720   15.3000 C   0  0  0  0  0  2  0  0  0  0  0  0
  -18.5040   13.8370   15.9430 C   0  0  0  0  0  2  0  0  0  0  0  0
  -21.5640   13.9490   16.0050 O   0  0  0  0  0  0  0  0  0  0  0  0
  -21.2550   13.0410   15.8210 H   0  0  0  0  0  0  0  0  0  0  0  0
  1  2  1  0  0  0  0
  1 26  1  0  0  0  0
  3  2  2  0  0  0  0
  4  3  1  0  0  0  0
  5  4  2  0  0  0  0
  5  6  1  0  0  0  0
  6  1  2  0  0  0  0
  7  4  1  0  0  0  0
  8  7  1  0  0  0  0
  9 10  1  0  0  0  0
  9  8  2  0  0  0  0
 10 11  1  0  0  0  0
 11  7  2  0  0  0  0
 11 20  1  0  0  0  0
 12 10  1  0  0  0  0
 13 12  1  0  0  0  0
 14 19  1  0  0  0  0
 14 13  1  0  0  0  0
 15 14  2  0  0  0  0
 16 17  2  0  0  0  0
 16 15  1  0  0  0  0
 17 18  1  0  0  0  0
 18 19  2  0  0  0  0
 19  9  1  0  0  0  0
 20 21  1  0  0  0  0
 21 22  2  0  0  0  0
 23 22  1  0  0  0  0
 24 23  2  0  0  0  0
 25 20  2  0  0  0  0
 25 24  1  0  0  0  0
 26 30  1  1  0  0  0
 26 27  1  0  0  0  0
 28 27  1  0  0  0  0
 28 37  1  1  0  0  0
 29 26  1  0  0  0  0
 29 28  1  0  0  0  0
 30 32  1  0  0  0  0
 30 33  1  0  0  0  0
 31 30  1  0  0  0  0
 34 28  1  0  0  0  0
 34 35  1  0  0  0  0
 34 36  1  0  0  0  0
 35 36  1  0  0  0  0
 38 37  1  0  0  0  0
M  END
>  <minimizedAffinity>
-10.8849249

$$$$
