
 OpenBabel10152419053D

 40 46  0  0  1  0  0  0  0  0999 V2000
    7.1630  -12.1780   13.6240 C   0  0  0  0  0  0  0  0  0  0  0  0
    7.2590  -13.5340   13.9220 C   0  0  0  0  0  3  0  0  0  0  0  0
    8.3930  -14.2390   13.5330 C   0  0  2  0  0  3  0  0  0  0  0  0
    9.4450  -13.5790   12.8940 C   0  0  2  0  0  0  0  0  0  0  0  0
    9.4220  -12.1940   12.6810 C   0  0  0  0  0  0  0  0  0  0  0  0
    8.2560  -11.5070   13.0550 C   0  0  0  0  0  3  0  0  0  0  0  0
    5.3870  -10.4490   13.2200 C   0  0  0  0  0  0  0  0  0  0  0  0
    4.4790   -9.7990   13.7280 O   0  0  0  0  0  0  0  0  0  0  0  0
    5.9390  -11.5320   13.8770 N   0  0  0  0  0  0  0  0  0  0  0  0
    5.3470  -11.9110   14.6070 H   0  0  0  0  0  0  0  0  0  0  0  0
    6.7220   -9.1710    7.8830 N   0  0  0  0  0  0  0  0  0  0  0  0
    5.7060   -9.4720    6.8870 C   0  0  0  0  0  1  0  0  0  0  0  0
    6.4500   -9.5060    9.1970 C   0  0  0  0  0  0  0  0  0  0  0  0
    7.3410   -9.2210   10.2320 C   0  0  0  0  0  3  0  0  0  0  0  0
    7.0340   -9.5540   11.5500 C   0  0  0  0  0  3  0  0  0  0  0  0
    5.8080  -10.1390   11.8360 C   0  0  0  0  0  0  0  0  0  0  0  0
    4.9830  -10.4380   10.7710 C   0  0  0  0  0  3  0  0  0  0  0  0
    5.2740  -10.1200    9.4810 N   0  0  0  0  0  0  0  0  0  0  0  0
    8.0370   -8.7170    7.4260 C   0  0  0  0  0  2  0  0  0  0  0  0
    9.1280   -9.0070    8.4680 C   0  0  0  0  0  2  0  0  0  0  0  0
    9.7340   -8.7180   10.7520 C   0  0  0  0  0  1  0  0  0  0  0  0
    8.6720   -8.7930    9.8090 O   0  0  0  0  0  0  0  0  0  0  0  0
   10.5220  -11.4160   11.9690 C   0  0  0  0  0  2  0  0  0  0  0  0
   10.5560  -11.6470   10.5350 N   0  0  0  0  0  0  0  0  0  0  0  0
   11.4520  -11.6880   10.0790 H   0  0  0  0  0  0  0  0  0  0  0  0
    9.4170  -12.1570    9.9270 C   0  0  0  0  0  0  0  0  0  0  0  0
    8.8690  -11.4090    8.9570 N   0  0  0  0  0  0  0  0  0  0  0  0
    7.6150  -11.6860    8.6230 C   0  0  0  0  0  3  0  0  0  0  0  0
    6.8220  -12.5540    9.2560 N   0  0  0  0  0  0  0  0  0  0  0  0
    7.3740  -13.3300   10.2170 C   0  0  0  0  0  0  0  0  0  0  0  0
    6.6050  -14.1980   11.0110 C   0  0  0  0  0  0  0  0  0  0  0  0
    7.1980  -15.0840   11.9310 C   0  0  0  0  0  3  0  0  0  0  0  0
    8.5700  -15.0790   12.1220 C   0  0  2  0  0  0  0  0  0  0  0  0
    9.3340  -14.1420   11.4410 C   0  0  1  0  0  3  0  0  0  0  0  0
    8.7430  -13.2470   10.5100 C   0  0  0  0  0  0  0  0  0  0  0  0
    5.1120  -14.1390   11.0410 C   0  0  0  0  0  0  0  0  0  0  0  0
    4.5340  -13.0490   11.6280 N   0  0  0  0  0  0  0  0  0  0  0  0
    4.4240  -15.0640   10.6360 O   0  0  0  0  0  0  0  0  0  0  0  0
    5.0890  -12.2460   11.9070 H   0  0  0  0  0  0  0  0  0  0  0  0
    3.5270  -13.0110   11.7100 H   0  0  0  0  0  0  0  0  0  0  0  0
  1  9  1  0  0  0  0
  1  2  2  0  0  0  0
  3  2  1  6  0  0  0
  4  5  1  6  0  0  0
  4  3  1  0  0  0  0
  5  6  2  0  0  0  0
  6  1  1  0  0  0  0
  7  8  2  0  0  0  0
  7  9  1  0  0  0  0
  9 10  1  0  0  0  0
 11 13  1  0  0  0  0
 12 11  1  0  0  0  0
 13 18  2  0  0  0  0
 13 14  1  0  0  0  0
 14 15  2  0  0  0  0
 15 16  1  0  0  0  0
 16  7  1  0  0  0  0
 17 16  2  0  0  0  0
 18 17  1  0  0  0  0
 19 11  1  0  0  0  0
 19 20  1  0  0  0  0
 20 22  1  0  0  0  0
 22 21  1  0  0  0  0
 23  5  1  0  0  0  0
 24 23  1  0  0  0  0
 25 24  1  0  0  0  0
 26 35  1  0  0  0  0
 26 24  1  0  0  0  0
 27 26  2  0  0  0  0
 28 27  1  0  0  0  0
 28 29  2  0  0  0  0
 29 30  1  0  0  0  0
 30 35  2  0  0  0  0
 30 31  1  0  0  0  0
 31 36  1  0  0  0  0
 31 32  2  0  0  0  0
 33 32  1  6  0  0  0
 33  4  1  0  0  0  0
 33  3  1  0  0  0  0
 34 35  1  6  0  0  0
 34 33  1  0  0  0  0
 34  4  1  0  0  0  0
 36 37  1  0  0  0  0
 37 40  1  0  0  0  0
 37 39  1  0  0  0  0
 38 36  2  0  0  0  0
M  END
>  <minimizedAffinity>
15.2323074

$$$$
