
 OpenBabel11232420203D

 35 39  0  0  1  0  0  0  0  0999 V2000
   -3.8010   -8.4390   15.3930 O   0  0  0  0  0  0  0  0  0  0  0  0
   -6.7120   -8.3600   13.0860 C   0  0  0  0  0  0  0  0  0  0  0  0
   -7.3980   -7.3570   13.7670 C   0  0  0  0  0  3  0  0  0  0  0  0
   -6.9190   -6.7160   14.8590 N   0  0  0  0  0  0  0  0  0  0  0  0
   -5.7000   -7.0850   15.3030 C   0  0  0  0  0  3  0  0  0  0  0  0
   -4.9400   -8.0970   14.7310 C   0  0  0  0  0  0  0  0  0  0  0  0
   -5.4440   -8.7040   13.5860 C   0  0  0  0  0  3  0  0  0  0  0  0
   -5.4240  -11.6300    8.4460 C   0  0  0  0  0  1  0  0  0  0  0  0
   -6.7870  -11.2100    8.8560 C   0  0  0  0  0  0  0  0  0  0  0  0
   -7.8530  -11.5790    8.1380 N   0  0  0  0  0  0  0  0  0  0  0  0
   -8.8930  -11.0350    8.7880 N   0  0  0  0  0  0  0  0  0  0  0  0
   -8.5400  -10.3240    9.9020 C   0  0  0  0  0  0  0  0  0  0  0  0
   -9.2890   -9.6270   10.8340 C   0  0  0  0  0  3  0  0  0  0  0  0
   -8.6470   -9.0070   11.8570 N   0  0  0  0  0  0  0  0  0  0  0  0
   -7.2840   -9.0790   11.9410 C   0  0  0  0  0  0  0  0  0  0  0  0
   -6.4920   -9.7710   11.0240 C   0  0  0  0  0  3  0  0  0  0  0  0
   -7.1580  -10.4140    9.9730 C   0  0  0  0  0  0  0  0  0  0  0  0
   -9.8220  -11.1920    8.4130 H   0  0  0  0  0  0  0  0  0  0  0  0
   -2.5720   -8.5850   14.6700 C   0  0  0  0  0  2  0  0  0  0  0  0
   -1.8780   -7.2170   14.4790 C   0  0  1  0  0  3  0  0  0  0  0  0
   -0.4070   -7.3210   14.7990 N   0  0  0  0  0  4  0  0  0  0  0  0
    0.0840   -8.0280   14.2330 H   0  0  0  0  0  0  0  0  0  0  0  0
    0.0810   -6.4250   14.6770 H   0  0  0  0  0  0  0  0  0  0  0  0
   -0.2770   -7.5930   15.7850 H   0  0  0  0  0  0  0  0  0  0  0  0
   -2.0240   -6.6630   13.0520 C   0  0  0  0  0  2  0  0  0  0  0  0
   -3.2100   -5.7740   12.8910 C   0  0  0  0  0  0  0  0  0  0  0  0
   -3.5630   -4.7280   13.7220 C   0  0  0  0  0  3  0  0  0  0  0  0
   -4.6980   -4.1440   13.2230 N   0  0  0  0  0  0  0  0  0  0  0  0
   -5.0900   -4.7840   12.0710 C   0  0  0  0  0  0  0  0  0  0  0  0
   -6.1730   -4.5180   11.2240 C   0  0  0  0  0  3  0  0  0  0  0  0
   -6.3460   -5.3490   10.1140 C   0  0  0  0  0  3  0  0  0  0  0  0
   -5.4770   -6.4080    9.8700 C   0  0  0  0  0  3  0  0  0  0  0  0
   -4.4010   -6.6620   10.7280 C   0  0  0  0  0  3  0  0  0  0  0  0
   -4.1940   -5.8270   11.8480 C   0  0  0  0  0  0  0  0  0  0  0  0
   -5.1840   -3.3570   13.6330 H   0  0  0  0  0  0  0  0  0  0  0  0
  2  7  2  0  0  0  0
  2  3  1  0  0  0  0
  3  4  2  0  0  0  0
  4  5  1  0  0  0  0
  6  5  2  0  0  0  0
  6  1  1  0  0  0  0
  7  6  1  0  0  0  0
  8  9  1  0  0  0  0
  9 17  1  0  0  0  0
 10 11  1  0  0  0  0
 10  9  2  0  0  0  0
 11 12  1  0  0  0  0
 12 17  2  0  0  0  0
 12 13  1  0  0  0  0
 13 14  2  0  0  0  0
 14 15  1  0  0  0  0
 15  2  1  0  0  0  0
 16 15  2  0  0  0  0
 17 16  1  0  0  0  0
 18 11  1  0  0  0  0
 19  1  1  0  0  0  0
 20 25  1  6  0  0  0
 20 19  1  0  0  0  0
 20 21  1  0  0  0  0
 21 24  1  0  0  0  0
 22 21  1  0  0  0  0
 23 21  1  0  0  0  0
 26 25  1  0  0  0  0
 26 27  2  0  0  0  0
 28 35  1  0  0  0  0
 28 27  1  0  0  0  0
 29 28  1  0  0  0  0
 30 29  2  0  0  0  0
 31 30  1  0  0  0  0
 32 31  2  0  0  0  0
 32 33  1  0  0  0  0
 33 34  2  0  0  0  0
 34 29  1  0  0  0  0
 34 26  1  0  0  0  0
M  END
>  <minimizedAffinity>
-5.08197403

$$$$

 OpenBabel11232420203D

 35 39  0  0  1  0  0  0  0  0999 V2000
   -5.3440   -8.9900   10.5650 O   0  0  0  0  0  0  0  0  0  0  0  0
   -4.4370   -7.9100   14.0010 C   0  0  0  0  0  0  0  0  0  0  0  0
   -5.6950   -8.1380   14.5510 C   0  0  0  0  0  3  0  0  0  0  0  0
   -6.7410   -8.6590   13.8680 N   0  0  0  0  0  0  0  0  0  0  0  0
   -6.5330   -8.9710   12.5720 C   0  0  0  0  0  3  0  0  0  0  0  0
   -5.3350   -8.7540   11.9040 C   0  0  0  0  0  0  0  0  0  0  0  0
   -4.2710   -8.2580   12.6490 C   0  0  0  0  0  3  0  0  0  0  0  0
    1.2860   -8.1220   15.0470 C   0  0  0  0  0  1  0  0  0  0  0  0
    0.3320   -7.1580   15.6490 C   0  0  0  0  0  0  0  0  0  0  0  0
    0.7610   -6.2350   16.5180 N   0  0  0  0  0  0  0  0  0  0  0  0
   -0.3460   -5.5530   16.8470 N   0  0  0  0  0  0  0  0  0  0  0  0
   -1.4800   -6.0010   16.2260 C   0  0  0  0  0  0  0  0  0  0  0  0
   -2.7970   -5.5820   16.2830 C   0  0  0  0  0  3  0  0  0  0  0  0
   -3.7240   -6.2340   15.5350 N   0  0  0  0  0  0  0  0  0  0  0  0
   -3.3400   -7.2860   14.7520 C   0  0  0  0  0  0  0  0  0  0  0  0
   -2.0230   -7.7400   14.6640 C   0  0  0  0  0  3  0  0  0  0  0  0
   -1.0690   -7.0620   15.4320 C   0  0  0  0  0  0  0  0  0  0  0  0
   -0.2540   -4.7880   17.5060 H   0  0  0  0  0  0  0  0  0  0  0  0
   -6.0040   -8.0730    9.6830 C   0  0  0  0  0  2  0  0  0  0  0  0
   -5.1920   -6.7650    9.5360 C   0  0  1  0  0  3  0  0  0  0  0  0
   -4.7020   -6.6040    8.1180 N   0  0  0  0  0  4  0  0  0  0  0  0
   -5.4620   -6.6060    7.4210 H   0  0  0  0  0  0  0  0  0  0  0  0
   -4.1600   -5.7390    7.9910 H   0  0  0  0  0  0  0  0  0  0  0  0
   -4.0740   -7.3820    7.8680 H   0  0  0  0  0  0  0  0  0  0  0  0
   -5.9970   -5.5120    9.9150 C   0  0  0  0  0  2  0  0  0  0  0  0
   -5.8570   -5.1430   11.3530 C   0  0  0  0  0  0  0  0  0  0  0  0
   -4.7230   -4.6370   11.9580 C   0  0  0  0  0  3  0  0  0  0  0  0
   -5.0050   -4.4040   13.2790 N   0  0  0  0  0  0  0  0  0  0  0  0
   -6.3100   -4.7410   13.5490 C   0  0  0  0  0  0  0  0  0  0  0  0
   -7.0270   -4.6530   14.7480 C   0  0  0  0  0  3  0  0  0  0  0  0
   -8.3560   -5.0840   14.7410 C   0  0  0  0  0  3  0  0  0  0  0  0
   -8.9380   -5.5910   13.5840 C   0  0  0  0  0  3  0  0  0  0  0  0
   -8.2060   -5.6750   12.3930 C   0  0  0  0  0  3  0  0  0  0  0  0
   -6.8670   -5.2310   12.3690 C   0  0  0  0  0  0  0  0  0  0  0  0
   -4.3550   -4.0390   13.9640 H   0  0  0  0  0  0  0  0  0  0  0  0
  1  6  1  0  0  0  0
  2  3  1  0  0  0  0
  2 15  1  0  0  0  0
  4  3  2  0  0  0  0
  5  4  1  0  0  0  0
  6  5  2  0  0  0  0
  6  7  1  0  0  0  0
  7  2  2  0  0  0  0
  8  9  1  0  0  0  0
  9 10  2  0  0  0  0
 10 11  1  0  0  0  0
 11 18  1  0  0  0  0
 12 13  1  0  0  0  0
 12 11  1  0  0  0  0
 14 13  2  0  0  0  0
 15 14  1  0  0  0  0
 16 15  2  0  0  0  0
 16 17  1  0  0  0  0
 17  9  1  0  0  0  0
 17 12  2  0  0  0  0
 19  1  1  0  0  0  0
 20 19  1  6  0  0  0
 20 25  1  0  0  0  0
 21 20  1  0  0  0  0
 22 21  1  0  0  0  0
 23 21  1  0  0  0  0
 24 21  1  0  0  0  0
 25 26  1  0  0  0  0
 26 27  2  0  0  0  0
 26 34  1  0  0  0  0
 27 28  1  0  0  0  0
 28 29  1  0  0  0  0
 28 35  1  0  0  0  0
 29 30  1  0  0  0  0
 31 30  2  0  0  0  0
 32 31  1  0  0  0  0
 33 32  2  0  0  0  0
 34 33  1  0  0  0  0
 34 29  2  0  0  0  0
M  END
>  <minimizedAffinity>
-5.07389688

$$$$

 OpenBabel11232420203D

 35 39  0  0  1  0  0  0  0  0999 V2000
   -4.9840   -8.2740    8.7320 O   0  0  0  0  0  0  0  0  0  0  0  0
   -4.7830   -5.5710   11.2730 C   0  0  0  0  0  0  0  0  0  0  0  0
   -5.4170   -4.6060   10.4950 C   0  0  0  0  0  3  0  0  0  0  0  0
   -5.9240   -4.8370    9.2610 N   0  0  0  0  0  0  0  0  0  0  0  0
   -5.7960   -6.0870    8.7690 C   0  0  0  0  0  3  0  0  0  0  0  0
   -5.1500   -7.1200    9.4340 C   0  0  0  0  0  0  0  0  0  0  0  0
   -4.6810   -6.8580   10.7170 C   0  0  0  0  0  3  0  0  0  0  0  0
   -0.8340   -7.3270   15.1730 C   0  0  0  0  0  1  0  0  0  0  0  0
   -1.7260   -6.1490   15.3150 C   0  0  0  0  0  0  0  0  0  0  0  0
   -1.6680   -5.3870   16.4120 N   0  0  0  0  0  0  0  0  0  0  0  0
   -2.5900   -4.4360   16.2010 N   0  0  0  0  0  0  0  0  0  0  0  0
   -3.2470   -4.5550   15.0070 C   0  0  0  0  0  0  0  0  0  0  0  0
   -4.2430   -3.7970   14.4160 C   0  0  0  0  0  3  0  0  0  0  0  0
   -4.7080   -4.1670   13.1950 N   0  0  0  0  0  0  0  0  0  0  0  0
   -4.1890   -5.2740   12.5830 C   0  0  0  0  0  0  0  0  0  0  0  0
   -3.1850   -6.0650   13.1430 C   0  0  0  0  0  3  0  0  0  0  0  0
   -2.7050   -5.6780   14.4000 C   0  0  0  0  0  0  0  0  0  0  0  0
   -2.7190   -3.7320   16.9200 H   0  0  0  0  0  0  0  0  0  0  0  0
   -5.5970   -9.4840    9.1930 C   0  0  0  0  0  2  0  0  0  0  0  0
   -7.0350   -9.2200    9.6950 C   0  0  1  0  0  3  0  0  0  0  0  0
   -8.0390   -9.9310    8.8210 N   0  0  0  0  0  4  0  0  0  0  0  0
   -7.8850  -10.9480    8.7680 H   0  0  0  0  0  0  0  0  0  0  0  0
   -9.0060   -9.7740    9.1350 H   0  0  0  0  0  0  0  0  0  0  0  0
   -7.9830   -9.5750    7.8550 H   0  0  0  0  0  0  0  0  0  0  0  0
   -7.2570   -9.6680   11.1490 C   0  0  0  0  0  2  0  0  0  0  0  0
   -7.3660   -8.5250   12.1000 C   0  0  0  0  0  0  0  0  0  0  0  0
   -8.2240   -7.4480   11.9840 C   0  0  0  0  0  3  0  0  0  0  0  0
   -8.0400   -6.6300   13.0680 N   0  0  0  0  0  0  0  0  0  0  0  0
   -7.0820   -7.1580   13.9000 C   0  0  0  0  0  0  0  0  0  0  0  0
   -6.5900   -6.6760   15.1190 C   0  0  0  0  0  3  0  0  0  0  0  0
   -5.5920   -7.4190   15.7540 C   0  0  0  0  0  3  0  0  0  0  0  0
   -5.1000   -8.5900   15.1870 C   0  0  0  0  0  3  0  0  0  0  0  0
   -5.6000   -9.0570   13.9650 C   0  0  0  0  0  3  0  0  0  0  0  0
   -6.6200   -8.3340   13.3110 C   0  0  0  0  0  0  0  0  0  0  0  0
   -8.5310   -5.7620   13.2410 H   0  0  0  0  0  0  0  0  0  0  0  0
  1 19  1  0  0  0  0
  1  6  1  0  0  0  0
  2 15  1  0  0  0  0
  3  2  2  0  0  0  0
  4  3  1  0  0  0  0
  5  4  2  0  0  0  0
  5  6  1  0  0  0  0
  6  7  2  0  0  0  0
  7  2  1  0  0  0  0
  8  9  1  0  0  0  0
  9 10  2  0  0  0  0
 11 10  1  0  0  0  0
 11 18  1  0  0  0  0
 12 11  1  0  0  0  0
 13 12  1  0  0  0  0
 14 13  2  0  0  0  0
 15 16  2  0  0  0  0
 15 14  1  0  0  0  0
 16 17  1  0  0  0  0
 17 12  2  0  0  0  0
 17  9  1  0  0  0  0
 20 19  1  6  0  0  0
 20 25  1  0  0  0  0
 21 23  1  0  0  0  0
 21 20  1  0  0  0  0
 22 21  1  0  0  0  0
 24 21  1  0  0  0  0
 25 26  1  0  0  0  0
 26 34  1  0  0  0  0
 27 26  2  0  0  0  0
 27 28  1  0  0  0  0
 28 35  1  0  0  0  0
 28 29  1  0  0  0  0
 29 30  1  0  0  0  0
 30 31  2  0  0  0  0
 32 31  1  0  0  0  0
 33 32  2  0  0  0  0
 34 29  2  0  0  0  0
 34 33  1  0  0  0  0
M  END
>  <minimizedAffinity>
-5.06025028

$$$$

 OpenBabel11232420203D

 35 39  0  0  1  0  0  0  0  0999 V2000
   -7.0370   -8.3950    9.5180 O   0  0  0  0  0  0  0  0  0  0  0  0
   -5.7410   -9.1140   12.9240 C   0  0  0  0  0  0  0  0  0  0  0  0
   -6.7700   -8.4640   13.6000 C   0  0  0  0  0  3  0  0  0  0  0  0
   -7.8350   -7.8890   12.9930 N   0  0  0  0  0  0  0  0  0  0  0  0
   -7.8840   -7.9570   11.6470 C   0  0  0  0  0  3  0  0  0  0  0  0
   -6.8990   -8.5440   10.8630 C   0  0  0  0  0  0  0  0  0  0  0  0
   -5.8440   -9.1630   11.5230 C   0  0  0  0  0  3  0  0  0  0  0  0
   -0.4780   -7.8580   15.0710 C   0  0  0  0  0  1  0  0  0  0  0  0
   -1.1230   -9.1950   15.0880 C   0  0  0  0  0  0  0  0  0  0  0  0
   -0.4900  -10.2430   15.6270 N   0  0  0  0  0  0  0  0  0  0  0  0
   -1.3500  -11.2610   15.4730 N   0  0  0  0  0  0  0  0  0  0  0  0
   -2.5170  -10.9120   14.8510 C   0  0  0  0  0  0  0  0  0  0  0  0
   -3.6430  -11.6430   14.5120 C   0  0  0  0  0  3  0  0  0  0  0  0
   -4.6700  -11.0100   13.8890 N   0  0  0  0  0  0  0  0  0  0  0  0
   -4.5690   -9.6760   13.6070 C   0  0  0  0  0  0  0  0  0  0  0  0
   -3.4530   -8.9030   13.9320 C   0  0  0  0  0  3  0  0  0  0  0  0
   -2.3990   -9.5570   14.5790 C   0  0  0  0  0  0  0  0  0  0  0  0
   -1.0720  -12.1740   15.8180 H   0  0  0  0  0  0  0  0  0  0  0  0
   -6.9810   -7.0870    8.9350 C   0  0  0  0  0  2  0  0  0  0  0  0
   -5.6130   -6.4180    9.2050 C   0  0  1  0  0  3  0  0  0  0  0  0
   -4.7690   -6.4150    7.9550 N   0  0  0  0  0  4  0  0  0  0  0  0
   -5.2220   -5.9430    7.1590 H   0  0  0  0  0  0  0  0  0  0  0  0
   -3.8540   -5.9730    8.1050 H   0  0  0  0  0  0  0  0  0  0  0  0
   -4.5810   -7.3820    7.6520 H   0  0  0  0  0  0  0  0  0  0  0  0
   -5.7410   -4.9700    9.7060 C   0  0  0  0  0  2  0  0  0  0  0  0
   -5.9650   -4.8800   11.1770 C   0  0  0  0  0  0  0  0  0  0  0  0
   -7.1630   -4.5890   11.8020 C   0  0  0  0  0  3  0  0  0  0  0  0
   -6.9630   -4.6260   13.1570 N   0  0  0  0  0  0  0  0  0  0  0  0
   -5.6550   -4.9480   13.4330 C   0  0  0  0  0  0  0  0  0  0  0  0
   -5.0150   -5.1140   14.6660 C   0  0  0  0  0  3  0  0  0  0  0  0
   -3.6540   -5.4320   14.6530 C   0  0  0  0  0  3  0  0  0  0  0  0
   -2.9630   -5.5670   13.4530 C   0  0  0  0  0  3  0  0  0  0  0  0
   -3.6170   -5.3950   12.2280 C   0  0  0  0  0  3  0  0  0  0  0  0
   -4.9950   -5.0890   12.2130 C   0  0  0  0  0  0  0  0  0  0  0  0
   -7.6670   -4.4450   13.8610 H   0  0  0  0  0  0  0  0  0  0  0  0
  1  6  1  0  0  0  0
  2  3  1  0  0  0  0
  2 15  1  0  0  0  0
  4  3  2  0  0  0  0
  5  4  1  0  0  0  0
  6  7  1  0  0  0  0
  6  5  2  0  0  0  0
  7  2  2  0  0  0  0
  8  9  1  0  0  0  0
  9 10  2  0  0  0  0
 11 10  1  0  0  0  0
 11 18  1  0  0  0  0
 12 11  1  0  0  0  0
 13 12  2  0  0  0  0
 14 13  1  0  0  0  0
 15 14  2  0  0  0  0
 15 16  1  0  0  0  0
 16 17  2  0  0  0  0
 17 12  1  0  0  0  0
 17  9  1  0  0  0  0
 19  1  1  0  0  0  0
 20 19  1  6  0  0  0
 20 25  1  0  0  0  0
 21 23  1  0  0  0  0
 21 20  1  0  0  0  0
 22 21  1  0  0  0  0
 24 21  1  0  0  0  0
 25 26  1  0  0  0  0
 26 27  2  0  0  0  0
 26 34  1  0  0  0  0
 27 28  1  0  0  0  0
 28 29  1  0  0  0  0
 28 35  1  0  0  0  0
 29 30  1  0  0  0  0
 31 30  2  0  0  0  0
 32 31  1  0  0  0  0
 33 32  2  0  0  0  0
 34 33  1  0  0  0  0
 34 29  2  0  0  0  0
M  END
>  <minimizedAffinity>
-5.03712988

$$$$

 OpenBabel11232420203D

 35 39  0  0  1  0  0  0  0  0999 V2000
   -4.2980   -5.4600   12.0060 O   0  0  0  0  0  0  0  0  0  0  0  0
   -5.8970   -7.5990    9.4230 C   0  0  0  0  0  0  0  0  0  0  0  0
   -6.3530   -6.5440    8.6380 C   0  0  0  0  0  3  0  0  0  0  0  0
   -6.1060   -5.2380    8.8990 N   0  0  0  0  0  0  0  0  0  0  0  0
   -5.3710   -4.9600    9.9960 C   0  0  0  0  0  3  0  0  0  0  0  0
   -4.8950   -5.9240   10.8750 C   0  0  0  0  0  0  0  0  0  0  0  0
   -5.1300   -7.2550   10.5510 C   0  0  0  0  0  3  0  0  0  0  0  0
  -10.2800  -11.4020    8.9700 C   0  0  0  0  0  1  0  0  0  0  0  0
   -8.8410  -11.7150    8.7860 C   0  0  0  0  0  0  0  0  0  0  0  0
   -8.4520  -12.9610    8.4920 N   0  0  0  0  0  0  0  0  0  0  0  0
   -7.1170  -12.8760    8.3980 N   0  0  0  0  0  0  0  0  0  0  0  0
   -6.6240  -11.6190    8.6220 C   0  0  0  0  0  0  0  0  0  0  0  0
   -5.3360  -11.1130    8.6160 C   0  0  0  0  0  3  0  0  0  0  0  0
   -5.1510   -9.7940    8.8790 N   0  0  0  0  0  0  0  0  0  0  0  0
   -6.2320   -9.0010    9.1470 C   0  0  0  0  0  0  0  0  0  0  0  0
   -7.5460   -9.4710    9.1630 C   0  0  0  0  0  3  0  0  0  0  0  0
   -7.7340  -10.8300    8.8860 C   0  0  0  0  0  0  0  0  0  0  0  0
   -6.6020  -13.7210    8.1760 H   0  0  0  0  0  0  0  0  0  0  0  0
   -5.0520   -4.6800   12.9430 C   0  0  0  0  0  2  0  0  0  0  0  0
   -5.1730   -5.4110   14.3000 C   0  0  1  0  0  3  0  0  0  0  0  0
   -5.4050   -4.4200   15.4150 N   0  0  0  0  0  4  0  0  0  0  0  0
   -6.2410   -3.8350   15.2730 H   0  0  0  0  0  0  0  0  0  0  0  0
   -5.4920   -4.8800   16.3300 H   0  0  0  0  0  0  0  0  0  0  0  0
   -4.6050   -3.7740   15.4870 H   0  0  0  0  0  0  0  0  0  0  0  0
   -6.3110   -6.4440   14.3270 C   0  0  0  0  0  2  0  0  0  0  0  0
   -5.8600   -7.8170   13.9590 C   0  0  0  0  0  0  0  0  0  0  0  0
   -4.5800   -8.3170   14.0940 C   0  0  0  0  0  3  0  0  0  0  0  0
   -4.5780   -9.6200   13.6700 N   0  0  0  0  0  0  0  0  0  0  0  0
   -5.8400   -9.9870   13.2670 C   0  0  0  0  0  0  0  0  0  0  0  0
   -6.3030  -11.2150   12.7820 C   0  0  0  0  0  3  0  0  0  0  0  0
   -7.6520  -11.3060   12.4290 C   0  0  0  0  0  3  0  0  0  0  0  0
   -8.4990  -10.2080   12.5490 C   0  0  0  0  0  3  0  0  0  0  0  0
   -8.0190   -8.9850   13.0330 C   0  0  0  0  0  3  0  0  0  0  0  0
   -6.6640   -8.8720   13.4120 C   0  0  0  0  0  0  0  0  0  0  0  0
   -3.7720  -10.2320   13.6500 H   0  0  0  0  0  0  0  0  0  0  0  0
  1 19  1  0  0  0  0
  2  7  1  0  0  0  0
  3  4  1  0  0  0  0
  3  2  2  0  0  0  0
  4  5  2  0  0  0  0
  5  6  1  0  0  0  0
  6  1  1  0  0  0  0
  7  6  2  0  0  0  0
  9 17  1  0  0  0  0
  9  8  1  0  0  0  0
 10  9  2  0  0  0  0
 11 10  1  0  0  0  0
 11 12  1  0  0  0  0
 12 17  1  0  0  0  0
 13 12  2  0  0  0  0
 13 14  1  0  0  0  0
 14 15  2  0  0  0  0
 15 16  1  0  0  0  0
 15  2  1  0  0  0  0
 17 16  2  0  0  0  0
 18 11  1  0  0  0  0
 20 19  1  6  0  0  0
 20 25  1  0  0  0  0
 20 21  1  0  0  0  0
 21 24  1  0  0  0  0
 21 23  1  0  0  0  0
 22 21  1  0  0  0  0
 26 27  2  0  0  0  0
 26 25  1  0  0  0  0
 28 27  1  0  0  0  0
 29 34  1  0  0  0  0
 29 28  1  0  0  0  0
 30 29  2  0  0  0  0
 31 32  2  0  0  0  0
 31 30  1  0  0  0  0
 32 33  1  0  0  0  0
 33 34  2  0  0  0  0
 34 26  1  0  0  0  0
 35 28  1  0  0  0  0
M  END
>  <minimizedAffinity>
-4.91940022

$$$$

 OpenBabel11232420203D

 35 39  0  0  1  0  0  0  0  0999 V2000
   -3.8860   -5.8870   12.1690 O   0  0  0  0  0  0  0  0  0  0  0  0
   -5.9480   -7.7730    9.7210 C   0  0  0  0  0  0  0  0  0  0  0  0
   -6.6320   -6.6620    9.2350 C   0  0  0  0  0  3  0  0  0  0  0  0
   -6.3960   -5.3890    9.6340 N   0  0  0  0  0  0  0  0  0  0  0  0
   -5.4340   -5.2050   10.5620 C   0  0  0  0  0  3  0  0  0  0  0  0
   -4.7130   -6.2380   11.1470 C   0  0  0  0  0  0  0  0  0  0  0  0
   -4.9510   -7.5260   10.6820 C   0  0  0  0  0  3  0  0  0  0  0  0
  -10.2790  -11.5990    9.0190 C   0  0  0  0  0  1  0  0  0  0  0  0
   -8.8410  -11.8620    8.7590 C   0  0  0  0  0  0  0  0  0  0  0  0
   -8.4420  -13.0640    8.3280 N   0  0  0  0  0  0  0  0  0  0  0  0
   -7.1120  -12.9420    8.2010 N   0  0  0  0  0  0  0  0  0  0  0  0
   -6.6330  -11.7060    8.5370 C   0  0  0  0  0  0  0  0  0  0  0  0
   -5.3550  -11.1760    8.5430 C   0  0  0  0  0  3  0  0  0  0  0  0
   -5.1830   -9.8860    8.9320 N   0  0  0  0  0  0  0  0  0  0  0  0
   -6.2690   -9.1470    9.3140 C   0  0  0  0  0  0  0  0  0  0  0  0
   -7.5730   -9.6420    9.3220 C   0  0  0  0  0  3  0  0  0  0  0  0
   -7.7470  -10.9700    8.9150 C   0  0  0  0  0  0  0  0  0  0  0  0
   -6.5900  -13.7500    7.8780 H   0  0  0  0  0  0  0  0  0  0  0  0
   -4.1570   -4.7060   12.9330 C   0  0  0  0  0  2  0  0  0  0  0  0
   -4.2930   -5.0380   14.4370 C   0  0  1  0  0  3  0  0  0  0  0  0
   -3.3030   -4.2370   15.2470 N   0  0  0  0  0  4  0  0  0  0  0  0
   -3.4000   -3.2190   15.1180 H   0  0  0  0  0  0  0  0  0  0  0  0
   -3.3730   -4.4360   16.2530 H   0  0  0  0  0  0  0  0  0  0  0  0
   -2.3400   -4.4760   14.9680 H   0  0  0  0  0  0  0  0  0  0  0  0
   -5.7020   -4.7650   14.9880 C   0  0  0  0  0  2  0  0  0  0  0  0
   -6.7840   -5.2860   14.1050 C   0  0  0  0  0  0  0  0  0  0  0  0
   -7.7080   -4.5270   13.4130 C   0  0  0  0  0  3  0  0  0  0  0  0
   -8.5140   -5.3730   12.6980 N   0  0  0  0  0  0  0  0  0  0  0  0
   -8.1270   -6.6770   12.9000 C   0  0  0  0  0  0  0  0  0  0  0  0
   -8.6480   -7.8590   12.3630 C   0  0  0  0  0  3  0  0  0  0  0  0
   -8.0620   -9.0650   12.7570 C   0  0  0  0  0  3  0  0  0  0  0  0
   -7.0050   -9.0840   13.6610 C   0  0  0  0  0  3  0  0  0  0  0  0
   -6.4970   -7.8930   14.1920 C   0  0  0  0  0  3  0  0  0  0  0  0
   -7.0600   -6.6600   13.7970 C   0  0  0  0  0  0  0  0  0  0  0  0
   -9.2840   -5.0920   12.1050 H   0  0  0  0  0  0  0  0  0  0  0  0
  1 19  1  0  0  0  0
  2  7  1  0  0  0  0
  3  4  1  0  0  0  0
  3  2  2  0  0  0  0
  4  5  2  0  0  0  0
  5  6  1  0  0  0  0
  6  1  1  0  0  0  0
  7  6  2  0  0  0  0
  9 17  1  0  0  0  0
  9  8  1  0  0  0  0
 10  9  2  0  0  0  0
 11 10  1  0  0  0  0
 11 12  1  0  0  0  0
 12 13  2  0  0  0  0
 12 17  1  0  0  0  0
 13 14  1  0  0  0  0
 14 15  2  0  0  0  0
 15 16  1  0  0  0  0
 15  2  1  0  0  0  0
 17 16  2  0  0  0  0
 18 11  1  0  0  0  0
 20 19  1  6  0  0  0
 20 25  1  0  0  0  0
 20 21  1  0  0  0  0
 21 23  1  0  0  0  0
 22 21  1  0  0  0  0
 24 21  1  0  0  0  0
 26 25  1  0  0  0  0
 27 26  2  0  0  0  0
 28 29  1  0  0  0  0
 28 27  1  0  0  0  0
 29 34  1  0  0  0  0
 30 31  1  0  0  0  0
 30 29  2  0  0  0  0
 31 32  2  0  0  0  0
 32 33  1  0  0  0  0
 34 26  1  0  0  0  0
 34 33  2  0  0  0  0
 35 28  1  0  0  0  0
M  END
>  <minimizedAffinity>
-4.9040184

$$$$

 OpenBabel11232420203D

 35 39  0  0  1  0  0  0  0  0999 V2000
   -5.6850   -8.2040   13.8150 O   0  0  0  0  0  0  0  0  0  0  0  0
   -7.0260   -9.6410   10.6630 C   0  0  0  0  0  0  0  0  0  0  0  0
   -8.1420   -8.8110   10.6000 C   0  0  0  0  0  3  0  0  0  0  0  0
   -8.4040   -7.8200   11.4840 N   0  0  0  0  0  0  0  0  0  0  0  0
   -7.5170   -7.6410   12.4850 C   0  0  0  0  0  3  0  0  0  0  0  0
   -6.3900   -8.4290   12.6740 C   0  0  0  0  0  0  0  0  0  0  0  0
   -6.1300   -9.4090   11.7220 C   0  0  0  0  0  3  0  0  0  0  0  0
   -9.3520  -14.4920    8.4390 C   0  0  0  0  0  1  0  0  0  0  0  0
   -8.0200  -13.9340    8.0940 C   0  0  0  0  0  0  0  0  0  0  0  0
   -7.2370  -14.5550    7.2050 N   0  0  0  0  0  0  0  0  0  0  0  0
   -6.1390  -13.7870    7.1400 N   0  0  0  0  0  0  0  0  0  0  0  0
   -6.1800  -12.6910    7.9580 C   0  0  0  0  0  0  0  0  0  0  0  0
   -5.2760  -11.6670    8.1830 C   0  0  0  0  0  3  0  0  0  0  0  0
   -5.6010  -10.6930    9.0720 N   0  0  0  0  0  0  0  0  0  0  0  0
   -6.8010  -10.7470    9.7240 C   0  0  0  0  0  0  0  0  0  0  0  0
   -7.7400  -11.7610    9.5260 C   0  0  0  0  0  3  0  0  0  0  0  0
   -7.4050  -12.7600    8.6050 C   0  0  0  0  0  0  0  0  0  0  0  0
   -5.3960  -14.0730    6.5120 H   0  0  0  0  0  0  0  0  0  0  0  0
   -5.2530   -6.8760   14.1370 C   0  0  0  0  0  2  0  0  0  0  0  0
   -3.7450   -6.6980   13.8430 C   0  0  1  0  0  3  0  0  0  0  0  0
   -3.1580   -7.9760   13.2970 N   0  0  0  0  0  4  0  0  0  0  0  0
   -3.6290   -8.3090   12.4430 H   0  0  0  0  0  0  0  0  0  0  0  0
   -2.1560   -7.8850   13.0900 H   0  0  0  0  0  0  0  0  0  0  0  0
   -3.2460   -8.7320   13.9930 H   0  0  0  0  0  0  0  0  0  0  0  0
   -3.4570   -5.5670   12.8410 C   0  0  0  0  0  2  0  0  0  0  0  0
   -4.6110   -5.2790   11.9420 C   0  0  0  0  0  0  0  0  0  0  0  0
   -5.6010   -4.3400   12.1630 C   0  0  0  0  0  3  0  0  0  0  0  0
   -6.4620   -4.3620   11.0970 N   0  0  0  0  0  0  0  0  0  0  0  0
   -6.0470   -5.2920   10.1740 C   0  0  0  0  0  0  0  0  0  0  0  0
   -6.6060   -5.6370    8.9380 C   0  0  0  0  0  3  0  0  0  0  0  0
   -5.9750   -6.6430    8.2000 C   0  0  0  0  0  3  0  0  0  0  0  0
   -4.8400   -7.2820    8.6860 C   0  0  0  0  0  3  0  0  0  0  0  0
   -4.2950   -6.9270    9.9260 C   0  0  0  0  0  3  0  0  0  0  0  0
   -4.9030   -5.9030   10.6840 C   0  0  0  0  0  0  0  0  0  0  0  0
   -7.2850   -3.7820   10.9940 H   0  0  0  0  0  0  0  0  0  0  0  0
  1 19  1  0  0  0  0
  2  7  1  0  0  0  0
  3  2  2  0  0  0  0
  3  4  1  0  0  0  0
  4  5  2  0  0  0  0
  5  6  1  0  0  0  0
  6  1  1  0  0  0  0
  7  6  2  0  0  0  0
  9  8  1  0  0  0  0
  9 17  1  0  0  0  0
 10  9  2  0  0  0  0
 11 10  1  0  0  0  0
 11 12  1  0  0  0  0
 12 13  2  0  0  0  0
 12 17  1  0  0  0  0
 13 14  1  0  0  0  0
 14 15  2  0  0  0  0
 15  2  1  0  0  0  0
 16 15  1  0  0  0  0
 17 16  2  0  0  0  0
 18 11  1  0  0  0  0
 20 25  1  6  0  0  0
 20 19  1  0  0  0  0
 21 20  1  0  0  0  0
 21 24  1  0  0  0  0
 22 21  1  0  0  0  0
 23 21  1  0  0  0  0
 26 27  2  0  0  0  0
 26 25  1  0  0  0  0
 28 27  1  0  0  0  0
 29 34  1  0  0  0  0
 29 28  1  0  0  0  0
 30 29  2  0  0  0  0
 31 32  2  0  0  0  0
 31 30  1  0  0  0  0
 32 33  1  0  0  0  0
 33 34  2  0  0  0  0
 34 26  1  0  0  0  0
 35 28  1  0  0  0  0
M  END
>  <minimizedAffinity>
-4.86900377

$$$$

 OpenBabel11232420203D

 35 39  0  0  1  0  0  0  0  0999 V2000
   -5.2770   -8.9270    9.6480 O   0  0  0  0  0  0  0  0  0  0  0  0
   -6.7860  -12.1180    8.4910 C   0  0  0  0  0  0  0  0  0  0  0  0
   -7.7450  -12.1870    9.4980 C   0  0  0  0  0  3  0  0  0  0  0  0
   -7.9230  -11.2360   10.4460 N   0  0  0  0  0  0  0  0  0  0  0  0
   -7.1100  -10.1610   10.3960 C   0  0  0  0  0  3  0  0  0  0  0  0
   -6.0940   -9.9990    9.4640 C   0  0  0  0  0  0  0  0  0  0  0  0
   -5.9690  -10.9740    8.4800 C   0  0  0  0  0  3  0  0  0  0  0  0
   -7.3430  -17.8400    7.5810 C   0  0  0  0  0  1  0  0  0  0  0  0
   -6.8010  -16.8590    6.6090 C   0  0  0  0  0  0  0  0  0  0  0  0
   -6.3850  -17.2610    5.4030 N   0  0  0  0  0  0  0  0  0  0  0  0
   -5.9710  -16.1340    4.8050 N   0  0  0  0  0  0  0  0  0  0  0  0
   -6.1020  -15.0150    5.5800 C   0  0  0  0  0  0  0  0  0  0  0  0
   -5.8050  -13.6840    5.3440 C   0  0  0  0  0  3  0  0  0  0  0  0
   -6.0510  -12.7760    6.3240 N   0  0  0  0  0  0  0  0  0  0  0  0
   -6.5770  -13.1940    7.5140 C   0  0  0  0  0  0  0  0  0  0  0  0
   -6.8910  -14.5250    7.7920 C   0  0  0  0  0  3  0  0  0  0  0  0
   -6.6420  -15.4570    6.7780 C   0  0  0  0  0  0  0  0  0  0  0  0
   -5.6090  -16.2040    3.8600 H   0  0  0  0  0  0  0  0  0  0  0  0
   -5.8160   -7.6960   10.1450 C   0  0  0  0  0  2  0  0  0  0  0  0
   -4.9990   -6.4870    9.6330 C   0  0  1  0  0  3  0  0  0  0  0  0
   -5.0500   -6.4140    8.1270 N   0  0  0  0  0  4  0  0  0  0  0  0
   -6.0090   -6.3520    7.7540 H   0  0  0  0  0  0  0  0  0  0  0  0
   -4.5170   -5.6160    7.7590 H   0  0  0  0  0  0  0  0  0  0  0  0
   -4.6310   -7.2610    7.7160 H   0  0  0  0  0  0  0  0  0  0  0  0
   -5.4910   -5.1450   10.2000 C   0  0  0  0  0  2  0  0  0  0  0  0
   -5.2970   -5.0290   11.6730 C   0  0  0  0  0  0  0  0  0  0  0  0
   -4.1080   -5.2060   12.3550 C   0  0  0  0  0  3  0  0  0  0  0  0
   -4.3380   -4.9890   13.6880 N   0  0  0  0  0  0  0  0  0  0  0  0
   -5.6570   -4.6610   13.8920 C   0  0  0  0  0  0  0  0  0  0  0  0
   -6.3280   -4.3430   15.0790 C   0  0  0  0  0  3  0  0  0  0  0  0
   -7.6930   -4.0600   14.9970 C   0  0  0  0  0  3  0  0  0  0  0  0
   -8.3610   -4.1040   13.7770 C   0  0  0  0  0  3  0  0  0  0  0  0
   -7.6770   -4.4270   12.5990 C   0  0  0  0  0  3  0  0  0  0  0  0
   -6.2930   -4.7020   12.6520 C   0  0  0  0  0  0  0  0  0  0  0  0
   -3.6460   -5.0570   14.4240 H   0  0  0  0  0  0  0  0  0  0  0  0
  1 19  1  0  0  0  0
  2  3  1  0  0  0  0
  3  4  2  0  0  0  0
  5  4  1  0  0  0  0
  6  1  1  0  0  0  0
  6  5  2  0  0  0  0
  7  2  2  0  0  0  0
  7  6  1  0  0  0  0
  9 17  1  0  0  0  0
  9  8  1  0  0  0  0
 10  9  2  0  0  0  0
 11 10  1  0  0  0  0
 11 12  1  0  0  0  0
 12 17  1  0  0  0  0
 13 12  2  0  0  0  0
 13 14  1  0  0  0  0
 14 15  2  0  0  0  0
 15 16  1  0  0  0  0
 15  2  1  0  0  0  0
 17 16  2  0  0  0  0
 18 11  1  0  0  0  0
 20 19  1  1  0  0  0
 20 25  1  0  0  0  0
 21 20  1  0  0  0  0
 22 21  1  0  0  0  0
 23 21  1  0  0  0  0
 24 21  1  0  0  0  0
 25 26  1  0  0  0  0
 26 27  2  0  0  0  0
 26 34  1  0  0  0  0
 27 28  1  0  0  0  0
 28 29  1  0  0  0  0
 28 35  1  0  0  0  0
 29 30  1  0  0  0  0
 31 30  2  0  0  0  0
 32 31  1  0  0  0  0
 33 34  1  0  0  0  0
 33 32  2  0  0  0  0
 34 29  2  0  0  0  0
M  END
>  <minimizedAffinity>
-4.80593395

$$$$

 OpenBabel11232420203D

 35 39  0  0  1  0  0  0  0  0999 V2000
   -8.5250  -11.8140    9.9010 O   0  0  0  0  0  0  0  0  0  0  0  0
  -11.4420  -10.3490    8.1280 C   0  0  0  0  0  0  0  0  0  0  0  0
  -12.2460  -11.4810    8.2330 C   0  0  0  0  0  3  0  0  0  0  0  0
  -11.8870  -12.6120    8.8840 N   0  0  0  0  0  0  0  0  0  0  0  0
  -10.6670  -12.6270    9.4610 C   0  0  0  0  0  3  0  0  0  0  0  0
   -9.7630  -11.5750    9.3900 C   0  0  0  0  0  0  0  0  0  0  0  0
  -10.1830  -10.4140    8.7510 C   0  0  0  0  0  3  0  0  0  0  0  0
  -15.9850   -7.3920    6.0070 C   0  0  0  0  0  1  0  0  0  0  0  0
  -14.5580   -7.0130    5.8520 C   0  0  0  0  0  0  0  0  0  0  0  0
  -14.2210   -5.9110    5.1730 N   0  0  0  0  0  0  0  0  0  0  0  0
  -12.8820   -5.8820    5.2370 N   0  0  0  0  0  0  0  0  0  0  0  0
  -12.3360   -6.9280    5.9290 C   0  0  0  0  0  0  0  0  0  0  0  0
  -11.0260   -7.2620    6.2260 C   0  0  0  0  0  3  0  0  0  0  0  0
  -10.7860   -8.3860    6.9500 N   0  0  0  0  0  0  0  0  0  0  0  0
  -11.8360   -9.1590    7.3620 C   0  0  0  0  0  0  0  0  0  0  0  0
  -13.1700   -8.8580    7.0860 C   0  0  0  0  0  3  0  0  0  0  0  0
  -13.4140   -7.6960    6.3440 C   0  0  0  0  0  0  0  0  0  0  0  0
  -12.4010   -5.1130    4.7820 H   0  0  0  0  0  0  0  0  0  0  0  0
   -7.4000  -11.9350    9.0200 C   0  0  0  0  0  2  0  0  0  0  0  0
   -6.3940  -10.7830    9.2460 C   0  0  1  0  0  3  0  0  0  0  0  0
   -5.1220  -11.0340    8.4750 N   0  0  0  0  0  4  0  0  0  0  0  0
   -5.2750  -11.1520    7.4630 H   0  0  0  0  0  0  0  0  0  0  0  0
   -4.4350  -10.2800    8.6050 H   0  0  0  0  0  0  0  0  0  0  0  0
   -4.6720  -11.9000    8.8060 H   0  0  0  0  0  0  0  0  0  0  0  0
   -6.9490   -9.4100    8.8290 C   0  0  0  0  0  2  0  0  0  0  0  0
   -6.9850   -8.4320    9.9540 C   0  0  0  0  0  0  0  0  0  0  0  0
   -7.4050   -8.6890   11.2440 C   0  0  0  0  0  3  0  0  0  0  0  0
   -7.2620   -7.5430   11.9820 N   0  0  0  0  0  0  0  0  0  0  0  0
   -6.7460   -6.5390   11.1970 C   0  0  0  0  0  0  0  0  0  0  0  0
   -6.4220   -5.2190   11.5320 C   0  0  0  0  0  3  0  0  0  0  0  0
   -5.9180   -4.3980   10.5190 C   0  0  0  0  0  3  0  0  0  0  0  0
   -5.7570   -4.8790    9.2230 C   0  0  0  0  0  3  0  0  0  0  0  0
   -6.0880   -6.2010    8.9040 C   0  0  0  0  0  3  0  0  0  0  0  0
   -6.5840   -7.0550    9.9130 C   0  0  0  0  0  0  0  0  0  0  0  0
   -7.4990   -7.4390   12.9600 H   0  0  0  0  0  0  0  0  0  0  0  0
  2  3  2  0  0  0  0
  2  7  1  0  0  0  0
  3  4  1  0  0  0  0
  4  5  2  0  0  0  0
  6  5  1  0  0  0  0
  6  1  1  0  0  0  0
  7  6  2  0  0  0  0
  9  8  1  0  0  0  0
  9 17  1  0  0  0  0
 10 11  1  0  0  0  0
 10  9  2  0  0  0  0
 11 12  1  0  0  0  0
 12 13  2  0  0  0  0
 12 17  1  0  0  0  0
 13 14  1  0  0  0  0
 14 15  2  0  0  0  0
 15  2  1  0  0  0  0
 16 15  1  0  0  0  0
 17 16  2  0  0  0  0
 18 11  1  0  0  0  0
 19 20  1  0  0  0  0
 19  1  1  0  0  0  0
 20 25  1  6  0  0  0
 21 23  1  0  0  0  0
 21 24  1  0  0  0  0
 21 20  1  0  0  0  0
 22 21  1  0  0  0  0
 25 26  1  0  0  0  0
 26 27  2  0  0  0  0
 27 28  1  0  0  0  0
 28 35  1  0  0  0  0
 29 30  1  0  0  0  0
 29 28  1  0  0  0  0
 31 30  2  0  0  0  0
 32 31  1  0  0  0  0
 33 32  2  0  0  0  0
 33 34  1  0  0  0  0
 34 26  1  0  0  0  0
 34 29  2  0  0  0  0
M  END
>  <minimizedAffinity>
-4.66268253

$$$$
