
 OpenBabel11232420203D

 35 39  0  0  1  0  0  0  0  0999 V2000
   -5.2770   -8.9270    9.6480 O   0  0  0  0  0  0  0  0  0  0  0  0
   -6.7860  -12.1180    8.4910 C   0  0  0  0  0  0  0  0  0  0  0  0
   -7.7450  -12.1870    9.4980 C   0  0  0  0  0  3  0  0  0  0  0  0
   -7.9230  -11.2360   10.4460 N   0  0  0  0  0  0  0  0  0  0  0  0
   -7.1100  -10.1610   10.3960 C   0  0  0  0  0  3  0  0  0  0  0  0
   -6.0940   -9.9990    9.4640 C   0  0  0  0  0  0  0  0  0  0  0  0
   -5.9690  -10.9740    8.4800 C   0  0  0  0  0  3  0  0  0  0  0  0
   -7.3430  -17.8400    7.5810 C   0  0  0  0  0  1  0  0  0  0  0  0
   -6.8010  -16.8590    6.6090 C   0  0  0  0  0  0  0  0  0  0  0  0
   -6.3850  -17.2610    5.4030 N   0  0  0  0  0  0  0  0  0  0  0  0
   -5.9710  -16.1340    4.8050 N   0  0  0  0  0  0  0  0  0  0  0  0
   -6.1020  -15.0150    5.5800 C   0  0  0  0  0  0  0  0  0  0  0  0
   -5.8050  -13.6840    5.3440 C   0  0  0  0  0  3  0  0  0  0  0  0
   -6.0510  -12.7760    6.3240 N   0  0  0  0  0  0  0  0  0  0  0  0
   -6.5770  -13.1940    7.5140 C   0  0  0  0  0  0  0  0  0  0  0  0
   -6.8910  -14.5250    7.7920 C   0  0  0  0  0  3  0  0  0  0  0  0
   -6.6420  -15.4570    6.7780 C   0  0  0  0  0  0  0  0  0  0  0  0
   -5.6090  -16.2040    3.8600 H   0  0  0  0  0  0  0  0  0  0  0  0
   -5.8160   -7.6960   10.1450 C   0  0  0  0  0  2  0  0  0  0  0  0
   -4.9990   -6.4870    9.6330 C   0  0  1  0  0  3  0  0  0  0  0  0
   -5.0500   -6.4140    8.1270 N   0  0  0  0  0  4  0  0  0  0  0  0
   -6.0090   -6.3520    7.7540 H   0  0  0  0  0  0  0  0  0  0  0  0
   -4.5170   -5.6160    7.7590 H   0  0  0  0  0  0  0  0  0  0  0  0
   -4.6310   -7.2610    7.7160 H   0  0  0  0  0  0  0  0  0  0  0  0
   -5.4910   -5.1450   10.2000 C   0  0  0  0  0  2  0  0  0  0  0  0
   -5.2970   -5.0290   11.6730 C   0  0  0  0  0  0  0  0  0  0  0  0
   -4.1080   -5.2060   12.3550 C   0  0  0  0  0  3  0  0  0  0  0  0
   -4.3380   -4.9890   13.6880 N   0  0  0  0  0  0  0  0  0  0  0  0
   -5.6570   -4.6610   13.8920 C   0  0  0  0  0  0  0  0  0  0  0  0
   -6.3280   -4.3430   15.0790 C   0  0  0  0  0  3  0  0  0  0  0  0
   -7.6930   -4.0600   14.9970 C   0  0  0  0  0  3  0  0  0  0  0  0
   -8.3610   -4.1040   13.7770 C   0  0  0  0  0  3  0  0  0  0  0  0
   -7.6770   -4.4270   12.5990 C   0  0  0  0  0  3  0  0  0  0  0  0
   -6.2930   -4.7020   12.6520 C   0  0  0  0  0  0  0  0  0  0  0  0
   -3.6460   -5.0570   14.4240 H   0  0  0  0  0  0  0  0  0  0  0  0
  1 19  1  0  0  0  0
  2  3  1  0  0  0  0
  3  4  2  0  0  0  0
  5  4  1  0  0  0  0
  6  1  1  0  0  0  0
  6  5  2  0  0  0  0
  7  2  2  0  0  0  0
  7  6  1  0  0  0  0
  9 17  1  0  0  0  0
  9  8  1  0  0  0  0
 10  9  2  0  0  0  0
 11 10  1  0  0  0  0
 11 12  1  0  0  0  0
 12 17  1  0  0  0  0
 13 12  2  0  0  0  0
 13 14  1  0  0  0  0
 14 15  2  0  0  0  0
 15 16  1  0  0  0  0
 15  2  1  0  0  0  0
 17 16  2  0  0  0  0
 18 11  1  0  0  0  0
 20 19  1  1  0  0  0
 20 25  1  0  0  0  0
 21 20  1  0  0  0  0
 22 21  1  0  0  0  0
 23 21  1  0  0  0  0
 24 21  1  0  0  0  0
 25 26  1  0  0  0  0
 26 27  2  0  0  0  0
 26 34  1  0  0  0  0
 27 28  1  0  0  0  0
 28 29  1  0  0  0  0
 28 35  1  0  0  0  0
 29 30  1  0  0  0  0
 31 30  2  0  0  0  0
 32 31  1  0  0  0  0
 33 34  1  0  0  0  0
 33 32  2  0  0  0  0
 34 29  2  0  0  0  0
M  END
>  <minimizedAffinity>
-4.80593395

$$$$
