
 OpenBabel11232420203D

 35 39  0  0  1  0  0  0  0  0999 V2000
   -7.0370   -8.3950    9.5180 O   0  0  0  0  0  0  0  0  0  0  0  0
   -5.7410   -9.1140   12.9240 C   0  0  0  0  0  0  0  0  0  0  0  0
   -6.7700   -8.4640   13.6000 C   0  0  0  0  0  3  0  0  0  0  0  0
   -7.8350   -7.8890   12.9930 N   0  0  0  0  0  0  0  0  0  0  0  0
   -7.8840   -7.9570   11.6470 C   0  0  0  0  0  3  0  0  0  0  0  0
   -6.8990   -8.5440   10.8630 C   0  0  0  0  0  0  0  0  0  0  0  0
   -5.8440   -9.1630   11.5230 C   0  0  0  0  0  3  0  0  0  0  0  0
   -0.4780   -7.8580   15.0710 C   0  0  0  0  0  1  0  0  0  0  0  0
   -1.1230   -9.1950   15.0880 C   0  0  0  0  0  0  0  0  0  0  0  0
   -0.4900  -10.2430   15.6270 N   0  0  0  0  0  0  0  0  0  0  0  0
   -1.3500  -11.2610   15.4730 N   0  0  0  0  0  0  0  0  0  0  0  0
   -2.5170  -10.9120   14.8510 C   0  0  0  0  0  0  0  0  0  0  0  0
   -3.6430  -11.6430   14.5120 C   0  0  0  0  0  3  0  0  0  0  0  0
   -4.6700  -11.0100   13.8890 N   0  0  0  0  0  0  0  0  0  0  0  0
   -4.5690   -9.6760   13.6070 C   0  0  0  0  0  0  0  0  0  0  0  0
   -3.4530   -8.9030   13.9320 C   0  0  0  0  0  3  0  0  0  0  0  0
   -2.3990   -9.5570   14.5790 C   0  0  0  0  0  0  0  0  0  0  0  0
   -1.0720  -12.1740   15.8180 H   0  0  0  0  0  0  0  0  0  0  0  0
   -6.9810   -7.0870    8.9350 C   0  0  0  0  0  2  0  0  0  0  0  0
   -5.6130   -6.4180    9.2050 C   0  0  1  0  0  3  0  0  0  0  0  0
   -4.7690   -6.4150    7.9550 N   0  0  0  0  0  4  0  0  0  0  0  0
   -5.2220   -5.9430    7.1590 H   0  0  0  0  0  0  0  0  0  0  0  0
   -3.8540   -5.9730    8.1050 H   0  0  0  0  0  0  0  0  0  0  0  0
   -4.5810   -7.3820    7.6520 H   0  0  0  0  0  0  0  0  0  0  0  0
   -5.7410   -4.9700    9.7060 C   0  0  0  0  0  2  0  0  0  0  0  0
   -5.9650   -4.8800   11.1770 C   0  0  0  0  0  0  0  0  0  0  0  0
   -7.1630   -4.5890   11.8020 C   0  0  0  0  0  3  0  0  0  0  0  0
   -6.9630   -4.6260   13.1570 N   0  0  0  0  0  0  0  0  0  0  0  0
   -5.6550   -4.9480   13.4330 C   0  0  0  0  0  0  0  0  0  0  0  0
   -5.0150   -5.1140   14.6660 C   0  0  0  0  0  3  0  0  0  0  0  0
   -3.6540   -5.4320   14.6530 C   0  0  0  0  0  3  0  0  0  0  0  0
   -2.9630   -5.5670   13.4530 C   0  0  0  0  0  3  0  0  0  0  0  0
   -3.6170   -5.3950   12.2280 C   0  0  0  0  0  3  0  0  0  0  0  0
   -4.9950   -5.0890   12.2130 C   0  0  0  0  0  0  0  0  0  0  0  0
   -7.6670   -4.4450   13.8610 H   0  0  0  0  0  0  0  0  0  0  0  0
  1  6  1  0  0  0  0
  2  3  1  0  0  0  0
  2 15  1  0  0  0  0
  4  3  2  0  0  0  0
  5  4  1  0  0  0  0
  6  7  1  0  0  0  0
  6  5  2  0  0  0  0
  7  2  2  0  0  0  0
  8  9  1  0  0  0  0
  9 10  2  0  0  0  0
 11 10  1  0  0  0  0
 11 18  1  0  0  0  0
 12 11  1  0  0  0  0
 13 12  2  0  0  0  0
 14 13  1  0  0  0  0
 15 14  2  0  0  0  0
 15 16  1  0  0  0  0
 16 17  2  0  0  0  0
 17 12  1  0  0  0  0
 17  9  1  0  0  0  0
 19  1  1  0  0  0  0
 20 19  1  6  0  0  0
 20 25  1  0  0  0  0
 21 23  1  0  0  0  0
 21 20  1  0  0  0  0
 22 21  1  0  0  0  0
 24 21  1  0  0  0  0
 25 26  1  0  0  0  0
 26 27  2  0  0  0  0
 26 34  1  0  0  0  0
 27 28  1  0  0  0  0
 28 29  1  0  0  0  0
 28 35  1  0  0  0  0
 29 30  1  0  0  0  0
 31 30  2  0  0  0  0
 32 31  1  0  0  0  0
 33 32  2  0  0  0  0
 34 33  1  0  0  0  0
 34 29  2  0  0  0  0
M  END
>  <minimizedAffinity>
-5.03712988

$$$$
