
 OpenBabel11232420203D

 35 39  0  0  1  0  0  0  0  0999 V2000
   -5.3440   -8.9900   10.5650 O   0  0  0  0  0  0  0  0  0  0  0  0
   -4.4370   -7.9100   14.0010 C   0  0  0  0  0  0  0  0  0  0  0  0
   -5.6950   -8.1380   14.5510 C   0  0  0  0  0  3  0  0  0  0  0  0
   -6.7410   -8.6590   13.8680 N   0  0  0  0  0  0  0  0  0  0  0  0
   -6.5330   -8.9710   12.5720 C   0  0  0  0  0  3  0  0  0  0  0  0
   -5.3350   -8.7540   11.9040 C   0  0  0  0  0  0  0  0  0  0  0  0
   -4.2710   -8.2580   12.6490 C   0  0  0  0  0  3  0  0  0  0  0  0
    1.2860   -8.1220   15.0470 C   0  0  0  0  0  1  0  0  0  0  0  0
    0.3320   -7.1580   15.6490 C   0  0  0  0  0  0  0  0  0  0  0  0
    0.7610   -6.2350   16.5180 N   0  0  0  0  0  0  0  0  0  0  0  0
   -0.3460   -5.5530   16.8470 N   0  0  0  0  0  0  0  0  0  0  0  0
   -1.4800   -6.0010   16.2260 C   0  0  0  0  0  0  0  0  0  0  0  0
   -2.7970   -5.5820   16.2830 C   0  0  0  0  0  3  0  0  0  0  0  0
   -3.7240   -6.2340   15.5350 N   0  0  0  0  0  0  0  0  0  0  0  0
   -3.3400   -7.2860   14.7520 C   0  0  0  0  0  0  0  0  0  0  0  0
   -2.0230   -7.7400   14.6640 C   0  0  0  0  0  3  0  0  0  0  0  0
   -1.0690   -7.0620   15.4320 C   0  0  0  0  0  0  0  0  0  0  0  0
   -0.2540   -4.7880   17.5060 H   0  0  0  0  0  0  0  0  0  0  0  0
   -6.0040   -8.0730    9.6830 C   0  0  0  0  0  2  0  0  0  0  0  0
   -5.1920   -6.7650    9.5360 C   0  0  1  0  0  3  0  0  0  0  0  0
   -4.7020   -6.6040    8.1180 N   0  0  0  0  0  4  0  0  0  0  0  0
   -5.4620   -6.6060    7.4210 H   0  0  0  0  0  0  0  0  0  0  0  0
   -4.1600   -5.7390    7.9910 H   0  0  0  0  0  0  0  0  0  0  0  0
   -4.0740   -7.3820    7.8680 H   0  0  0  0  0  0  0  0  0  0  0  0
   -5.9970   -5.5120    9.9150 C   0  0  0  0  0  2  0  0  0  0  0  0
   -5.8570   -5.1430   11.3530 C   0  0  0  0  0  0  0  0  0  0  0  0
   -4.7230   -4.6370   11.9580 C   0  0  0  0  0  3  0  0  0  0  0  0
   -5.0050   -4.4040   13.2790 N   0  0  0  0  0  0  0  0  0  0  0  0
   -6.3100   -4.7410   13.5490 C   0  0  0  0  0  0  0  0  0  0  0  0
   -7.0270   -4.6530   14.7480 C   0  0  0  0  0  3  0  0  0  0  0  0
   -8.3560   -5.0840   14.7410 C   0  0  0  0  0  3  0  0  0  0  0  0
   -8.9380   -5.5910   13.5840 C   0  0  0  0  0  3  0  0  0  0  0  0
   -8.2060   -5.6750   12.3930 C   0  0  0  0  0  3  0  0  0  0  0  0
   -6.8670   -5.2310   12.3690 C   0  0  0  0  0  0  0  0  0  0  0  0
   -4.3550   -4.0390   13.9640 H   0  0  0  0  0  0  0  0  0  0  0  0
  1  6  1  0  0  0  0
  2  3  1  0  0  0  0
  2 15  1  0  0  0  0
  4  3  2  0  0  0  0
  5  4  1  0  0  0  0
  6  5  2  0  0  0  0
  6  7  1  0  0  0  0
  7  2  2  0  0  0  0
  8  9  1  0  0  0  0
  9 10  2  0  0  0  0
 10 11  1  0  0  0  0
 11 18  1  0  0  0  0
 12 13  1  0  0  0  0
 12 11  1  0  0  0  0
 14 13  2  0  0  0  0
 15 14  1  0  0  0  0
 16 15  2  0  0  0  0
 16 17  1  0  0  0  0
 17  9  1  0  0  0  0
 17 12  2  0  0  0  0
 19  1  1  0  0  0  0
 20 19  1  6  0  0  0
 20 25  1  0  0  0  0
 21 20  1  0  0  0  0
 22 21  1  0  0  0  0
 23 21  1  0  0  0  0
 24 21  1  0  0  0  0
 25 26  1  0  0  0  0
 26 27  2  0  0  0  0
 26 34  1  0  0  0  0
 27 28  1  0  0  0  0
 28 29  1  0  0  0  0
 28 35  1  0  0  0  0
 29 30  1  0  0  0  0
 31 30  2  0  0  0  0
 32 31  1  0  0  0  0
 33 32  2  0  0  0  0
 34 33  1  0  0  0  0
 34 29  2  0  0  0  0
M  END
>  <minimizedAffinity>
-5.07389688

$$$$
