
 OpenBabel11232420203D

 35 39  0  0  1  0  0  0  0  0999 V2000
   -8.5250  -11.8140    9.9010 O   0  0  0  0  0  0  0  0  0  0  0  0
  -11.4420  -10.3490    8.1280 C   0  0  0  0  0  0  0  0  0  0  0  0
  -12.2460  -11.4810    8.2330 C   0  0  0  0  0  3  0  0  0  0  0  0
  -11.8870  -12.6120    8.8840 N   0  0  0  0  0  0  0  0  0  0  0  0
  -10.6670  -12.6270    9.4610 C   0  0  0  0  0  3  0  0  0  0  0  0
   -9.7630  -11.5750    9.3900 C   0  0  0  0  0  0  0  0  0  0  0  0
  -10.1830  -10.4140    8.7510 C   0  0  0  0  0  3  0  0  0  0  0  0
  -15.9850   -7.3920    6.0070 C   0  0  0  0  0  1  0  0  0  0  0  0
  -14.5580   -7.0130    5.8520 C   0  0  0  0  0  0  0  0  0  0  0  0
  -14.2210   -5.9110    5.1730 N   0  0  0  0  0  0  0  0  0  0  0  0
  -12.8820   -5.8820    5.2370 N   0  0  0  0  0  0  0  0  0  0  0  0
  -12.3360   -6.9280    5.9290 C   0  0  0  0  0  0  0  0  0  0  0  0
  -11.0260   -7.2620    6.2260 C   0  0  0  0  0  3  0  0  0  0  0  0
  -10.7860   -8.3860    6.9500 N   0  0  0  0  0  0  0  0  0  0  0  0
  -11.8360   -9.1590    7.3620 C   0  0  0  0  0  0  0  0  0  0  0  0
  -13.1700   -8.8580    7.0860 C   0  0  0  0  0  3  0  0  0  0  0  0
  -13.4140   -7.6960    6.3440 C   0  0  0  0  0  0  0  0  0  0  0  0
  -12.4010   -5.1130    4.7820 H   0  0  0  0  0  0  0  0  0  0  0  0
   -7.4000  -11.9350    9.0200 C   0  0  0  0  0  2  0  0  0  0  0  0
   -6.3940  -10.7830    9.2460 C   0  0  1  0  0  3  0  0  0  0  0  0
   -5.1220  -11.0340    8.4750 N   0  0  0  0  0  4  0  0  0  0  0  0
   -5.2750  -11.1520    7.4630 H   0  0  0  0  0  0  0  0  0  0  0  0
   -4.4350  -10.2800    8.6050 H   0  0  0  0  0  0  0  0  0  0  0  0
   -4.6720  -11.9000    8.8060 H   0  0  0  0  0  0  0  0  0  0  0  0
   -6.9490   -9.4100    8.8290 C   0  0  0  0  0  2  0  0  0  0  0  0
   -6.9850   -8.4320    9.9540 C   0  0  0  0  0  0  0  0  0  0  0  0
   -7.4050   -8.6890   11.2440 C   0  0  0  0  0  3  0  0  0  0  0  0
   -7.2620   -7.5430   11.9820 N   0  0  0  0  0  0  0  0  0  0  0  0
   -6.7460   -6.5390   11.1970 C   0  0  0  0  0  0  0  0  0  0  0  0
   -6.4220   -5.2190   11.5320 C   0  0  0  0  0  3  0  0  0  0  0  0
   -5.9180   -4.3980   10.5190 C   0  0  0  0  0  3  0  0  0  0  0  0
   -5.7570   -4.8790    9.2230 C   0  0  0  0  0  3  0  0  0  0  0  0
   -6.0880   -6.2010    8.9040 C   0  0  0  0  0  3  0  0  0  0  0  0
   -6.5840   -7.0550    9.9130 C   0  0  0  0  0  0  0  0  0  0  0  0
   -7.4990   -7.4390   12.9600 H   0  0  0  0  0  0  0  0  0  0  0  0
  2  3  2  0  0  0  0
  2  7  1  0  0  0  0
  3  4  1  0  0  0  0
  4  5  2  0  0  0  0
  6  5  1  0  0  0  0
  6  1  1  0  0  0  0
  7  6  2  0  0  0  0
  9  8  1  0  0  0  0
  9 17  1  0  0  0  0
 10 11  1  0  0  0  0
 10  9  2  0  0  0  0
 11 12  1  0  0  0  0
 12 13  2  0  0  0  0
 12 17  1  0  0  0  0
 13 14  1  0  0  0  0
 14 15  2  0  0  0  0
 15  2  1  0  0  0  0
 16 15  1  0  0  0  0
 17 16  2  0  0  0  0
 18 11  1  0  0  0  0
 19  1  1  0  0  0  0
 20 19  1  6  0  0  0
 20 25  1  0  0  0  0
 21 23  1  0  0  0  0
 21 24  1  0  0  0  0
 21 20  1  0  0  0  0
 22 21  1  0  0  0  0
 25 26  1  0  0  0  0
 26 27  2  0  0  0  0
 27 28  1  0  0  0  0
 28 35  1  0  0  0  0
 29 30  1  0  0  0  0
 29 28  1  0  0  0  0
 31 30  2  0  0  0  0
 32 31  1  0  0  0  0
 33 32  2  0  0  0  0
 33 34  1  0  0  0  0
 34 26  1  0  0  0  0
 34 29  2  0  0  0  0
M  END
>  <minimizedAffinity>
-4.66268253

$$$$
