
 OpenBabel11232419193D

 35 39  0  0  1  0  0  0  0  0999 V2000
   25.9450   64.2440   26.0790 O   0  0  0  0  0  0  0  0  0  0  0  0
   23.5470   66.5340   24.4040 C   0  0  0  0  0  0  0  0  0  0  0  0
   23.2900   67.3090   25.5320 C   0  0  0  0  0  3  0  0  0  0  0  0
   23.8970   67.1370   26.7300 N   0  0  0  0  0  0  0  0  0  0  0  0
   24.8100   66.1470   26.8180 C   0  0  0  0  0  3  0  0  0  0  0  0
   25.1180   65.2820   25.7760 C   0  0  0  0  0  0  0  0  0  0  0  0
   24.5080   65.5180   24.5490 C   0  0  0  0  0  3  0  0  0  0  0  0
   24.1870   67.2910   18.6600 C   0  0  0  0  0  1  0  0  0  0  0  0
   22.8950   67.2110   19.3860 C   0  0  0  0  0  0  0  0  0  0  0  0
   21.7390   67.3070   18.7170 N   0  0  0  0  0  0  0  0  0  0  0  0
   20.7990   67.1870   19.6670 N   0  0  0  0  0  0  0  0  0  0  0  0
   21.3020   67.0190   20.9270 C   0  0  0  0  0  0  0  0  0  0  0  0
   20.6880   66.8580   22.1570 C   0  0  0  0  0  3  0  0  0  0  0  0
   21.4650   66.7060   23.2600 N   0  0  0  0  0  0  0  0  0  0  0  0
   22.8260   66.7080   23.1340 C   0  0  0  0  0  0  0  0  0  0  0  0
   23.4840   66.8650   21.9140 C   0  0  0  0  0  3  0  0  0  0  0  0
   22.6810   67.0270   20.7780 C   0  0  0  0  0  0  0  0  0  0  0  0
   19.8270   67.2280   19.3790 H   0  0  0  0  0  0  0  0  0  0  0  0
   25.8870   63.0440   25.2980 C   0  0  0  0  0  2  0  0  0  0  0  0
   25.1010   63.2710   23.9850 C   0  0  1  0  0  3  0  0  0  0  0  0
   25.8490   62.6840   22.8120 N   0  0  0  0  0  4  0  0  0  0  0  0
   26.0600   61.6820   22.9270 H   0  0  0  0  0  0  0  0  0  0  0  0
   25.3360   62.8000   21.9290 H   0  0  0  0  0  0  0  0  0  0  0  0
   26.7530   63.1620   22.6890 H   0  0  0  0  0  0  0  0  0  0  0  0
   23.6940   62.6550   24.0140 C   0  0  0  0  0  2  0  0  0  0  0  0
   22.8690   62.9870   22.8140 C   0  0  0  0  0  0  0  0  0  0  0  0
   21.5000   63.1780   22.7790 C   0  0  0  0  0  3  0  0  0  0  0  0
   21.1370   63.4720   21.4900 N   0  0  0  0  0  0  0  0  0  0  0  0
   22.2460   63.4930   20.6810 C   0  0  0  0  0  0  0  0  0  0  0  0
   22.3500   63.7620   19.3100 C   0  0  0  0  0  3  0  0  0  0  0  0
   23.6230   63.7370   18.7380 C   0  0  0  0  0  3  0  0  0  0  0  0
   24.7470   63.4510   19.5080 C   0  0  0  0  0  3  0  0  0  0  0  0
   24.6260   63.1800   20.8770 C   0  0  0  0  0  3  0  0  0  0  0  0
   23.3510   63.2000   21.4800 C   0  0  0  0  0  0  0  0  0  0  0  0
   20.1960   63.6650   21.1720 H   0  0  0  0  0  0  0  0  0  0  0  0
  2  7  2  0  0  0  0
  2  3  1  0  0  0  0
  3  4  2  0  0  0  0
  4  5  1  0  0  0  0
  6  1  1  0  0  0  0
  6  5  2  0  0  0  0
  7  6  1  0  0  0  0
  8  9  1  0  0  0  0
  9 17  1  0  0  0  0
 10  9  2  0  0  0  0
 10 11  1  0  0  0  0
 11 12  1  0  0  0  0
 12 13  1  0  0  0  0
 13 14  2  0  0  0  0
 15 14  1  0  0  0  0
 15  2  1  0  0  0  0
 16 15  2  0  0  0  0
 17 12  2  0  0  0  0
 17 16  1  0  0  0  0
 18 11  1  0  0  0  0
 19  1  1  0  0  0  0
 20 25  1  1  0  0  0
 20 19  1  0  0  0  0
 21 22  1  0  0  0  0
 21 20  1  0  0  0  0
 23 21  1  0  0  0  0
 24 21  1  0  0  0  0
 26 25  1  0  0  0  0
 27 26  2  0  0  0  0
 28 27  1  0  0  0  0
 29 34  1  0  0  0  0
 29 28  1  0  0  0  0
 30 29  2  0  0  0  0
 31 30  1  0  0  0  0
 31 32  2  0  0  0  0
 32 33  1  0  0  0  0
 33 34  2  0  0  0  0
 34 26  1  0  0  0  0
 35 28  1  0  0  0  0
M  END
>  <minimizedAffinity>
1.89667034

$$$$
