
 OpenBabel11232419073D

 41 46  0  0  1  0  0  0  0  0999 V2000
   38.0690   43.0490   25.0140 C   0  0  0  0  0  0  0  0  0  0  0  0
   39.2800   43.7330   25.1860 C   0  0  0  0  0  3  0  0  0  0  0  0
   39.8260   44.4610   24.1260 C   0  0  0  0  0  3  0  0  0  0  0  0
   39.1780   44.4740   22.8920 C   0  0  0  0  0  0  0  0  0  0  0  0
   37.9750   43.7810   22.7170 C   0  0  0  0  0  0  0  0  0  0  0  0
   37.4220   43.0600   23.7740 C   0  0  0  0  0  3  0  0  0  0  0  0
   37.3430   43.8650   21.4220 C   0  0  0  0  0  0  0  0  0  0  0  0
   36.1480   43.4750   21.0400 N   0  0  0  0  0  0  0  0  0  0  0  0
   36.0610   43.8050   19.7020 C   0  0  0  0  0  0  0  0  0  0  0  0
   37.2340   44.4110   19.2610 C   0  0  0  0  0  0  0  0  0  0  0  0
   38.0230   44.4410   20.3890 N   0  0  0  0  0  0  0  0  0  0  0  0
   39.3890   44.9070   20.5390 C   0  0  0  0  0  2  0  0  0  0  0  0
   39.7420   45.2380   21.9000 O   0  0  0  0  0  0  0  0  0  0  0  0
   37.6390   44.9700   17.9780 C   0  0  0  0  0  0  0  0  0  0  0  0
   37.0170   44.5540   16.7950 C   0  0  0  0  0  3  0  0  0  0  0  0
   37.4140   45.0880   15.5670 C   0  0  0  0  0  3  0  0  0  0  0  0
   38.4330   46.0370   15.5160 C   0  0  0  0  0  3  0  0  0  0  0  0
   39.0540   46.4580   16.6910 C   0  0  0  0  0  3  0  0  0  0  0  0
   38.6580   45.9280   17.9200 C   0  0  0  0  0  3  0  0  0  0  0  0
   34.8530   43.5190   18.9440 C   0  0  0  0  0  0  0  0  0  0  0  0
   34.5540   42.2530   18.4400 C   0  0  0  0  0  3  0  0  0  0  0  0
   33.3530   42.0220   17.7540 C   0  0  0  0  0  3  0  0  0  0  0  0
   32.3960   43.0380   17.5500 C   0  0  0  0  0  0  0  0  0  0  0  0
   32.7210   44.3060   18.0680 C   0  0  0  0  0  3  0  0  0  0  0  0
   33.9190   44.5420   18.7520 C   0  0  0  0  0  3  0  0  0  0  0  0
   31.0210   42.7620   16.8350 C   0  0  1  0  0  0  0  0  0  0  0  0
   30.2610   41.4270   17.1030 C   0  0  0  0  0  2  0  0  0  0  0  0
   28.9430   42.2200   16.8520 C   0  0  1  0  0  0  0  0  0  0  0  0
   27.7590   41.7870   17.6950 C   0  0  0  0  0  1  0  0  0  0  0  0
   29.7250   43.4750   17.3420 C   0  0  0  0  0  2  0  0  0  0  0  0
   31.2220   42.9740   15.3770 N   0  0  0  0  0  4  0  0  0  0  0  0
   31.5060   43.9350   15.1610 H   0  0  0  0  0  0  0  0  0  0  0  0
   31.9390   42.3460   14.9960 H   0  0  0  0  0  0  0  0  0  0  0  0
   30.3380   42.7800   14.8660 H   0  0  0  0  0  0  0  0  0  0  0  0
   28.5890   42.2930   15.4440 O   0  0  0  0  0  0  0  0  0  0  0  0
   27.6150   42.4070   15.4170 H   0  0  0  0  0  0  0  0  0  0  0  0
   39.7170   41.6920   27.1540 C   0  0  0  0  0  1  0  0  0  0  0  0
   38.2860   41.5880   26.9940 N   0  0  0  0  0  0  0  0  0  0  0  0
   37.4750   42.2480   26.1070 C   0  0  0  0  0  0  0  0  0  0  0  0
   36.2540   42.1960   26.2200 O   0  0  0  0  0  0  0  0  0  0  0  0
   37.7700   41.0340   27.6690 H   0  0  0  0  0  0  0  0  0  0  0  0
  1  2  1  0  0  0  0
  1 39  1  0  0  0  0
  3  2  2  0  0  0  0
  4  3  1  0  0  0  0
  5  4  2  0  0  0  0
  5  6  1  0  0  0  0
  6  1  2  0  0  0  0
  7  5  1  0  0  0  0
  8  7  2  0  0  0  0
  9  8  1  0  0  0  0
 10  9  2  0  0  0  0
 10 11  1  0  0  0  0
 11 12  1  0  0  0  0
 11  7  1  0  0  0  0
 12 13  1  0  0  0  0
 13  4  1  0  0  0  0
 14 10  1  0  0  0  0
 15 14  2  0  0  0  0
 16 15  1  0  0  0  0
 17 16  2  0  0  0  0
 17 18  1  0  0  0  0
 18 19  2  0  0  0  0
 19 14  1  0  0  0  0
 20  9  1  0  0  0  0
 21 20  2  0  0  0  0
 22 21  1  0  0  0  0
 23 22  2  0  0  0  0
 23 24  1  0  0  0  0
 24 25  2  0  0  0  0
 25 20  1  0  0  0  0
 26 31  1  6  0  0  0
 26 27  1  0  0  0  0
 26 30  1  0  0  0  0
 26 23  1  0  0  0  0
 28 27  1  0  0  0  0
 28 30  1  0  0  0  0
 28 29  1  1  0  0  0
 32 31  1  0  0  0  0
 33 31  1  0  0  0  0
 34 31  1  0  0  0  0
 35 28  1  0  0  0  0
 36 35  1  0  0  0  0
 38 37  1  0  0  0  0
 38 41  1  0  0  0  0
 39 40  2  0  0  0  0
 39 38  1  0  0  0  0
M  END
>  <minimizedAffinity>
-10.7757759

$$$$
