
 OpenBabel11232419073D

 41 46  0  0  1  0  0  0  0  0999 V2000
   41.2460   45.2930   20.8210 C   0  0  0  0  0  0  0  0  0  0  0  0
   42.2190   46.1990   20.3780 C   0  0  0  0  0  3  0  0  0  0  0  0
   42.0490   46.8680   19.1640 C   0  0  0  0  0  3  0  0  0  0  0  0
   40.9260   46.6030   18.3820 C   0  0  0  0  0  0  0  0  0  0  0  0
   39.9600   45.6890   18.8180 C   0  0  0  0  0  0  0  0  0  0  0  0
   40.1220   45.0250   20.0330 C   0  0  0  0  0  3  0  0  0  0  0  0
   38.8070   45.4880   17.9730 C   0  0  0  0  0  0  0  0  0  0  0  0
   37.6880   44.8440   18.2130 N   0  0  0  0  0  0  0  0  0  0  0  0
   36.9310   44.9750   17.0650 C   0  0  0  0  0  0  0  0  0  0  0  0
   37.6100   45.7180   16.1030 C   0  0  0  0  0  0  0  0  0  0  0  0
   38.7970   46.0360   16.7240 N   0  0  0  0  0  0  0  0  0  0  0  0
   39.9420   46.7550   16.1960 C   0  0  0  0  0  2  0  0  0  0  0  0
   40.7930   47.3190   17.2180 O   0  0  0  0  0  0  0  0  0  0  0  0
   37.2530   46.1680   14.7650 C   0  0  0  0  0  0  0  0  0  0  0  0
   37.0840   47.5320   14.4970 C   0  0  0  0  0  3  0  0  0  0  0  0
   36.7340   47.9580   13.2140 C   0  0  0  0  0  3  0  0  0  0  0  0
   36.5500   47.0260   12.1950 C   0  0  0  0  0  3  0  0  0  0  0  0
   36.7190   45.6660   12.4550 C   0  0  0  0  0  3  0  0  0  0  0  0
   37.0710   45.2370   13.7360 C   0  0  0  0  0  3  0  0  0  0  0  0
   35.6060   44.3810   16.9770 C   0  0  0  0  0  0  0  0  0  0  0  0
   35.3550   43.0390   17.2640 C   0  0  0  0  0  3  0  0  0  0  0  0
   34.0510   42.5280   17.2070 C   0  0  0  0  0  3  0  0  0  0  0  0
   32.9410   43.3320   16.8710 C   0  0  0  0  0  0  0  0  0  0  0  0
   33.2220   44.6820   16.5850 C   0  0  0  0  0  3  0  0  0  0  0  0
   34.5220   45.1970   16.6400 C   0  0  0  0  0  3  0  0  0  0  0  0
   31.4700   42.7720   16.8670 C   0  0  1  0  0  0  0  0  0  0  0  0
   30.3500   43.5280   17.6440 C   0  0  0  0  0  2  0  0  0  0  0  0
   29.3530   42.9870   16.5760 C   0  0  1  0  0  0  0  0  0  0  0  0
   28.2180   43.9270   16.2170 C   0  0  0  0  0  1  0  0  0  0  0  0
   30.5700   42.9620   15.6040 C   0  0  0  0  0  2  0  0  0  0  0  0
   31.5320   41.3450   17.2810 N   0  0  0  0  0  4  0  0  0  0  0  0
   32.0900   40.7780   16.6340 H   0  0  0  0  0  0  0  0  0  0  0  0
   31.9380   41.2370   18.2170 H   0  0  0  0  0  0  0  0  0  0  0  0
   30.5730   40.9440   17.3110 H   0  0  0  0  0  0  0  0  0  0  0  0
   28.8580   41.6570   16.8900 O   0  0  0  0  0  0  0  0  0  0  0  0
   27.9840   41.5840   16.4490 H   0  0  0  0  0  0  0  0  0  0  0  0
   40.2250   46.3120   23.4770 C   0  0  0  0  0  1  0  0  0  0  0  0
   40.9970   45.1090   23.2720 N   0  0  0  0  0  0  0  0  0  0  0  0
   41.4060   44.5490   22.0890 C   0  0  0  0  0  0  0  0  0  0  0  0
   41.8920   43.4220   22.0680 O   0  0  0  0  0  0  0  0  0  0  0  0
   41.1990   44.5300   24.0780 H   0  0  0  0  0  0  0  0  0  0  0  0
  1 39  1  0  0  0  0
  2  1  1  0  0  0  0
  3  2  2  0  0  0  0
  4  5  2  0  0  0  0
  4  3  1  0  0  0  0
  5  6  1  0  0  0  0
  6  1  2  0  0  0  0
  7  8  2  0  0  0  0
  7  5  1  0  0  0  0
  9  8  1  0  0  0  0
 10 11  1  0  0  0  0
 10  9  2  0  0  0  0
 11  7  1  0  0  0  0
 12 11  1  0  0  0  0
 12 13  1  0  0  0  0
 13  4  1  0  0  0  0
 14 10  1  0  0  0  0
 15 14  1  0  0  0  0
 16 15  2  0  0  0  0
 17 18  2  0  0  0  0
 17 16  1  0  0  0  0
 18 19  1  0  0  0  0
 19 14  2  0  0  0  0
 20  9  1  0  0  0  0
 20 21  1  0  0  0  0
 22 21  2  0  0  0  0
 23 22  1  0  0  0  0
 24 25  1  0  0  0  0
 24 23  2  0  0  0  0
 25 20  2  0  0  0  0
 26 23  1  0  0  0  0
 26 31  1  1  0  0  0
 26 27  1  0  0  0  0
 28 29  1  6  0  0  0
 28 35  1  0  0  0  0
 28 27  1  0  0  0  0
 30 28  1  0  0  0  0
 30 26  1  0  0  0  0
 31 34  1  0  0  0  0
 31 33  1  0  0  0  0
 32 31  1  0  0  0  0
 36 35  1  0  0  0  0
 38 37  1  0  0  0  0
 38 41  1  0  0  0  0
 39 38  1  0  0  0  0
 40 39  2  0  0  0  0
M  END
>  <minimizedAffinity>
-13.3117113

$$$$

 OpenBabel11232419073D

 41 46  0  0  1  0  0  0  0  0999 V2000
   38.0770   43.7770   23.1590 C   0  0  0  0  0  0  0  0  0  0  0  0
   39.3680   44.3060   23.0360 C   0  0  0  0  0  3  0  0  0  0  0  0
   39.7730   44.8870   21.8320 C   0  0  0  0  0  3  0  0  0  0  0  0
   38.8970   44.9080   20.7480 C   0  0  0  0  0  0  0  0  0  0  0  0
   37.6110   44.3680   20.8660 C   0  0  0  0  0  0  0  0  0  0  0  0
   37.2010   43.7940   22.0690 C   0  0  0  0  0  3  0  0  0  0  0  0
   36.7470   44.4520   19.7140 C   0  0  0  0  0  0  0  0  0  0  0  0
   35.4630   44.1990   19.6020 N   0  0  0  0  0  0  0  0  0  0  0  0
   35.1490   44.4520   18.2810 C   0  0  0  0  0  0  0  0  0  0  0  0
   36.2720   44.8700   17.5730 C   0  0  0  0  0  0  0  0  0  0  0  0
   37.2690   44.8680   18.5230 N   0  0  0  0  0  0  0  0  0  0  0  0
   38.6820   45.1600   18.3690 C   0  0  0  0  0  2  0  0  0  0  0  0
   39.3350   45.5270   19.6040 O   0  0  0  0  0  0  0  0  0  0  0  0
   36.4740   45.2900   16.1930 C   0  0  0  0  0  0  0  0  0  0  0  0
   36.7110   44.3420   15.1900 C   0  0  0  0  0  3  0  0  0  0  0  0
   36.9110   44.7490   13.8710 C   0  0  0  0  0  3  0  0  0  0  0  0
   36.8790   46.1050   13.5460 C   0  0  0  0  0  3  0  0  0  0  0  0
   36.6420   47.0540   14.5400 C   0  0  0  0  0  3  0  0  0  0  0  0
   36.4380   46.6490   15.8600 C   0  0  0  0  0  3  0  0  0  0  0  0
   33.7880   44.2800   17.7960 C   0  0  0  0  0  0  0  0  0  0  0  0
   33.3500   44.7830   16.5710 C   0  0  0  0  0  3  0  0  0  0  0  0
   32.0390   44.5490   16.1300 C   0  0  0  0  0  3  0  0  0  0  0  0
   31.1140   43.7980   16.8860 C   0  0  0  0  0  0  0  0  0  0  0  0
   31.5810   43.3020   18.1180 C   0  0  0  0  0  3  0  0  0  0  0  0
   32.8880   43.5340   18.5630 C   0  0  0  0  0  3  0  0  0  0  0  0
   29.6630   43.4840   16.3620 C   0  0  1  0  0  0  0  0  0  0  0  0
   29.3110   42.0490   15.8650 C   0  0  0  0  0  2  0  0  0  0  0  0
   27.8550   42.3250   16.3470 C   0  0  1  0  0  0  0  0  0  0  0  0
   27.1240   41.1210   16.9110 C   0  0  0  0  0  1  0  0  0  0  0  0
   28.4930   43.2990   17.3820 C   0  0  0  0  0  2  0  0  0  0  0  0
   29.3280   44.5000   15.3300 N   0  0  0  0  0  4  0  0  0  0  0  0
   29.3310   45.4530   15.7090 H   0  0  0  0  0  0  0  0  0  0  0  0
   29.9890   44.4780   14.5450 H   0  0  0  0  0  0  0  0  0  0  0  0
   28.3820   44.3130   14.9440 H   0  0  0  0  0  0  0  0  0  0  0  0
   27.0510   43.0120   15.3500 O   0  0  0  0  0  0  0  0  0  0  0  0
   26.1200   42.7690   15.5410 H   0  0  0  0  0  0  0  0  0  0  0  0
   37.4190   45.3210   25.6720 C   0  0  0  0  0  1  0  0  0  0  0  0
   37.4270   43.8840   25.5400 N   0  0  0  0  0  0  0  0  0  0  0  0
   37.6250   43.1310   24.4110 C   0  0  0  0  0  0  0  0  0  0  0  0
   37.4130   41.9230   24.4220 O   0  0  0  0  0  0  0  0  0  0  0  0
   37.1640   43.3290   26.3470 H   0  0  0  0  0  0  0  0  0  0  0  0
  1 39  1  0  0  0  0
  2  1  1  0  0  0  0
  3  2  2  0  0  0  0
  4  5  2  0  0  0  0
  4  3  1  0  0  0  0
  5  6  1  0  0  0  0
  6  1  2  0  0  0  0
  7  5  1  0  0  0  0
  8  7  2  0  0  0  0
  9  8  1  0  0  0  0
 10  9  2  0  0  0  0
 10 11  1  0  0  0  0
 11  7  1  0  0  0  0
 12 11  1  0  0  0  0
 12 13  1  0  0  0  0
 13  4  1  0  0  0  0
 14 10  1  0  0  0  0
 15 14  2  0  0  0  0
 16 15  1  0  0  0  0
 17 16  2  0  0  0  0
 17 18  1  0  0  0  0
 18 19  2  0  0  0  0
 19 14  1  0  0  0  0
 20  9  1  0  0  0  0
 20 25  1  0  0  0  0
 21 20  2  0  0  0  0
 22 21  1  0  0  0  0
 22 23  2  0  0  0  0
 23 24  1  0  0  0  0
 24 25  2  0  0  0  0
 26 31  1  6  0  0  0
 26 23  1  0  0  0  0
 26 30  1  0  0  0  0
 27 28  1  0  0  0  0
 27 26  1  0  0  0  0
 28 29  1  1  0  0  0
 28 30  1  0  0  0  0
 31 32  1  0  0  0  0
 33 31  1  0  0  0  0
 34 31  1  0  0  0  0
 35 36  1  0  0  0  0
 35 28  1  0  0  0  0
 38 37  1  0  0  0  0
 38 41  1  0  0  0  0
 39 40  2  0  0  0  0
 39 38  1  0  0  0  0
M  END
>  <minimizedAffinity>
-12.1201534

$$$$

 OpenBabel11232419073D

 41 46  0  0  1  0  0  0  0  0999 V2000
   38.0690   43.0490   25.0140 C   0  0  0  0  0  0  0  0  0  0  0  0
   39.2800   43.7330   25.1860 C   0  0  0  0  0  3  0  0  0  0  0  0
   39.8260   44.4610   24.1260 C   0  0  0  0  0  3  0  0  0  0  0  0
   39.1780   44.4740   22.8920 C   0  0  0  0  0  0  0  0  0  0  0  0
   37.9750   43.7810   22.7170 C   0  0  0  0  0  0  0  0  0  0  0  0
   37.4220   43.0600   23.7740 C   0  0  0  0  0  3  0  0  0  0  0  0
   37.3430   43.8650   21.4220 C   0  0  0  0  0  0  0  0  0  0  0  0
   36.1480   43.4750   21.0400 N   0  0  0  0  0  0  0  0  0  0  0  0
   36.0610   43.8050   19.7020 C   0  0  0  0  0  0  0  0  0  0  0  0
   37.2340   44.4110   19.2610 C   0  0  0  0  0  0  0  0  0  0  0  0
   38.0230   44.4410   20.3890 N   0  0  0  0  0  0  0  0  0  0  0  0
   39.3890   44.9070   20.5390 C   0  0  0  0  0  2  0  0  0  0  0  0
   39.7420   45.2380   21.9000 O   0  0  0  0  0  0  0  0  0  0  0  0
   37.6390   44.9700   17.9780 C   0  0  0  0  0  0  0  0  0  0  0  0
   37.0170   44.5540   16.7950 C   0  0  0  0  0  3  0  0  0  0  0  0
   37.4140   45.0880   15.5670 C   0  0  0  0  0  3  0  0  0  0  0  0
   38.4330   46.0370   15.5160 C   0  0  0  0  0  3  0  0  0  0  0  0
   39.0540   46.4580   16.6910 C   0  0  0  0  0  3  0  0  0  0  0  0
   38.6580   45.9280   17.9200 C   0  0  0  0  0  3  0  0  0  0  0  0
   34.8530   43.5190   18.9440 C   0  0  0  0  0  0  0  0  0  0  0  0
   34.5540   42.2530   18.4400 C   0  0  0  0  0  3  0  0  0  0  0  0
   33.3530   42.0220   17.7540 C   0  0  0  0  0  3  0  0  0  0  0  0
   32.3960   43.0380   17.5500 C   0  0  0  0  0  0  0  0  0  0  0  0
   32.7210   44.3060   18.0680 C   0  0  0  0  0  3  0  0  0  0  0  0
   33.9190   44.5420   18.7520 C   0  0  0  0  0  3  0  0  0  0  0  0
   31.0210   42.7620   16.8350 C   0  0  1  0  0  0  0  0  0  0  0  0
   30.2610   41.4270   17.1030 C   0  0  0  0  0  2  0  0  0  0  0  0
   28.9430   42.2200   16.8520 C   0  0  1  0  0  0  0  0  0  0  0  0
   27.7590   41.7870   17.6950 C   0  0  0  0  0  1  0  0  0  0  0  0
   29.7250   43.4750   17.3420 C   0  0  0  0  0  2  0  0  0  0  0  0
   31.2220   42.9740   15.3770 N   0  0  0  0  0  4  0  0  0  0  0  0
   31.5060   43.9350   15.1610 H   0  0  0  0  0  0  0  0  0  0  0  0
   31.9390   42.3460   14.9960 H   0  0  0  0  0  0  0  0  0  0  0  0
   30.3380   42.7800   14.8660 H   0  0  0  0  0  0  0  0  0  0  0  0
   28.5890   42.2930   15.4440 O   0  0  0  0  0  0  0  0  0  0  0  0
   27.6150   42.4070   15.4170 H   0  0  0  0  0  0  0  0  0  0  0  0
   39.7170   41.6920   27.1540 C   0  0  0  0  0  1  0  0  0  0  0  0
   38.2860   41.5880   26.9940 N   0  0  0  0  0  0  0  0  0  0  0  0
   37.4750   42.2480   26.1070 C   0  0  0  0  0  0  0  0  0  0  0  0
   36.2540   42.1960   26.2200 O   0  0  0  0  0  0  0  0  0  0  0  0
   37.7700   41.0340   27.6690 H   0  0  0  0  0  0  0  0  0  0  0  0
  1  2  1  0  0  0  0
  1 39  1  0  0  0  0
  3  2  2  0  0  0  0
  4  3  1  0  0  0  0
  5  4  2  0  0  0  0
  5  6  1  0  0  0  0
  6  1  2  0  0  0  0
  7  5  1  0  0  0  0
  8  7  2  0  0  0  0
  9  8  1  0  0  0  0
 10  9  2  0  0  0  0
 10 11  1  0  0  0  0
 11 12  1  0  0  0  0
 11  7  1  0  0  0  0
 12 13  1  0  0  0  0
 13  4  1  0  0  0  0
 14 10  1  0  0  0  0
 15 14  2  0  0  0  0
 16 15  1  0  0  0  0
 17 16  2  0  0  0  0
 17 18  1  0  0  0  0
 18 19  2  0  0  0  0
 19 14  1  0  0  0  0
 20  9  1  0  0  0  0
 21 20  2  0  0  0  0
 22 21  1  0  0  0  0
 23 22  2  0  0  0  0
 23 24  1  0  0  0  0
 24 25  2  0  0  0  0
 25 20  1  0  0  0  0
 26 31  1  6  0  0  0
 26 27  1  0  0  0  0
 26 30  1  0  0  0  0
 26 23  1  0  0  0  0
 28 27  1  0  0  0  0
 28 30  1  0  0  0  0
 28 29  1  1  0  0  0
 32 31  1  0  0  0  0
 33 31  1  0  0  0  0
 34 31  1  0  0  0  0
 35 28  1  0  0  0  0
 36 35  1  0  0  0  0
 38 37  1  0  0  0  0
 38 41  1  0  0  0  0
 39 40  2  0  0  0  0
 39 38  1  0  0  0  0
M  END
>  <minimizedAffinity>
-10.7757759

$$$$

 OpenBabel11232419073D

 41 46  0  0  1  0  0  0  0  0999 V2000
   32.3420   43.0950   17.2800 C   0  0  0  0  0  0  0  0  0  0  0  0
   32.6310   43.3240   15.9280 C   0  0  0  0  0  3  0  0  0  0  0  0
   33.9140   43.7270   15.5470 C   0  0  0  0  0  3  0  0  0  0  0  0
   34.8900   43.9300   16.5210 C   0  0  0  0  0  0  0  0  0  0  0  0
   34.5980   43.7130   17.8730 C   0  0  0  0  0  0  0  0  0  0  0  0
   33.3220   43.3030   18.2560 C   0  0  0  0  0  3  0  0  0  0  0  0
   35.6660   43.9110   18.8220 C   0  0  0  0  0  0  0  0  0  0  0  0
   35.7250   43.6130   20.1000 N   0  0  0  0  0  0  0  0  0  0  0  0
   36.9800   44.0120   20.5170 C   0  0  0  0  0  0  0  0  0  0  0  0
   37.7010   44.5690   19.4640 C   0  0  0  0  0  0  0  0  0  0  0  0
   36.8340   44.4770   18.3980 N   0  0  0  0  0  0  0  0  0  0  0  0
   37.0050   44.9470   17.0360 C   0  0  0  0  0  2  0  0  0  0  0  0
   36.1420   44.2870   16.0840 O   0  0  0  0  0  0  0  0  0  0  0  0
   39.0530   45.0980   19.3610 C   0  0  0  0  0  0  0  0  0  0  0  0
   40.0560   44.6590   20.2330 C   0  0  0  0  0  3  0  0  0  0  0  0
   41.3490   45.1750   20.1350 C   0  0  0  0  0  3  0  0  0  0  0  0
   41.6470   46.1330   19.1670 C   0  0  0  0  0  3  0  0  0  0  0  0
   40.6530   46.5740   18.2940 C   0  0  0  0  0  3  0  0  0  0  0  0
   39.3600   46.0580   18.3880 C   0  0  0  0  0  3  0  0  0  0  0  0
   37.3970   43.8250   21.8980 C   0  0  0  0  0  0  0  0  0  0  0  0
   38.0470   44.8150   22.6350 C   0  0  0  0  0  3  0  0  0  0  0  0
   38.3880   44.5980   23.9790 C   0  0  0  0  0  3  0  0  0  0  0  0
   38.0890   43.3910   24.6450 C   0  0  0  0  0  0  0  0  0  0  0  0
   37.4330   42.4080   23.8780 C   0  0  0  0  0  3  0  0  0  0  0  0
   37.0920   42.6200   22.5380 C   0  0  0  0  0  3  0  0  0  0  0  0
   38.4160   43.1720   26.1690 C   0  0  1  0  0  0  0  0  0  0  0  0
   38.2350   41.7600   26.8060 C   0  0  0  0  0  2  0  0  0  0  0  0
   39.3980   42.1350   27.7740 C   0  0  1  0  0  0  0  0  0  0  0  0
   40.3090   40.9870   28.1630 C   0  0  0  0  0  1  0  0  0  0  0  0
   39.9040   43.0710   26.6360 C   0  0  0  0  0  2  0  0  0  0  0  0
   37.6730   44.2020   26.9410 N   0  0  0  0  0  4  0  0  0  0  0  0
   37.9560   45.1550   26.6890 H   0  0  0  0  0  0  0  0  0  0  0  0
   36.6590   44.1300   26.7940 H   0  0  0  0  0  0  0  0  0  0  0  0
   37.8480   44.0760   27.9580 H   0  0  0  0  0  0  0  0  0  0  0  0
   38.9430   42.8690   28.9440 O   0  0  0  0  0  0  0  0  0  0  0  0
   39.6040   42.6890   29.6470 H   0  0  0  0  0  0  0  0  0  0  0  0
   31.6740   40.3070   18.2370 C   0  0  0  0  0  1  0  0  0  0  0  0
   30.7350   41.3890   18.0600 N   0  0  0  0  0  0  0  0  0  0  0  0
   30.9890   42.6930   17.7210 C   0  0  0  0  0  0  0  0  0  0  0  0
   30.1040   43.5400   17.7960 O   0  0  0  0  0  0  0  0  0  0  0  0
   29.7640   41.2210   18.3000 H   0  0  0  0  0  0  0  0  0  0  0  0
  1 39  1  0  0  0  0
  1  6  1  0  0  0  0
  2  1  2  0  0  0  0
  3  2  1  0  0  0  0
  3  4  2  0  0  0  0
  4  5  1  0  0  0  0
  5  6  2  0  0  0  0
  5  7  1  0  0  0  0
  7  8  2  0  0  0  0
  8  9  1  0  0  0  0
  9 20  1  0  0  0  0
 10  9  2  0  0  0  0
 11  7  1  0  0  0  0
 11 10  1  0  0  0  0
 12 11  1  0  0  0  0
 13  4  1  0  0  0  0
 13 12  1  0  0  0  0
 14 10  1  0  0  0  0
 14 15  1  0  0  0  0
 16 15  2  0  0  0  0
 17 16  1  0  0  0  0
 18 19  1  0  0  0  0
 18 17  2  0  0  0  0
 19 14  2  0  0  0  0
 20 25  2  0  0  0  0
 20 21  1  0  0  0  0
 21 22  2  0  0  0  0
 22 23  1  0  0  0  0
 23 26  1  0  0  0  0
 24 23  2  0  0  0  0
 25 24  1  0  0  0  0
 26 30  1  0  0  0  0
 26 27  1  0  0  0  0
 26 31  1  1  0  0  0
 27 28  1  0  0  0  0
 28 29  1  1  0  0  0
 28 35  1  0  0  0  0
 30 28  1  0  0  0  0
 31 34  1  0  0  0  0
 32 31  1  0  0  0  0
 33 31  1  0  0  0  0
 35 36  1  0  0  0  0
 38 37  1  0  0  0  0
 38 41  1  0  0  0  0
 39 40  2  0  0  0  0
 39 38  1  0  0  0  0
M  END
>  <minimizedAffinity>
-10.5142221

$$$$
