
 OpenBabel11232419073D

 41 46  0  0  1  0  0  0  0  0999 V2000
   41.2460   45.2930   20.8210 C   0  0  0  0  0  0  0  0  0  0  0  0
   42.2190   46.1990   20.3780 C   0  0  0  0  0  3  0  0  0  0  0  0
   42.0490   46.8680   19.1640 C   0  0  0  0  0  3  0  0  0  0  0  0
   40.9260   46.6030   18.3820 C   0  0  0  0  0  0  0  0  0  0  0  0
   39.9600   45.6890   18.8180 C   0  0  0  0  0  0  0  0  0  0  0  0
   40.1220   45.0250   20.0330 C   0  0  0  0  0  3  0  0  0  0  0  0
   38.8070   45.4880   17.9730 C   0  0  0  0  0  0  0  0  0  0  0  0
   37.6880   44.8440   18.2130 N   0  0  0  0  0  0  0  0  0  0  0  0
   36.9310   44.9750   17.0650 C   0  0  0  0  0  0  0  0  0  0  0  0
   37.6100   45.7180   16.1030 C   0  0  0  0  0  0  0  0  0  0  0  0
   38.7970   46.0360   16.7240 N   0  0  0  0  0  0  0  0  0  0  0  0
   39.9420   46.7550   16.1960 C   0  0  0  0  0  2  0  0  0  0  0  0
   40.7930   47.3190   17.2180 O   0  0  0  0  0  0  0  0  0  0  0  0
   37.2530   46.1680   14.7650 C   0  0  0  0  0  0  0  0  0  0  0  0
   37.0840   47.5320   14.4970 C   0  0  0  0  0  3  0  0  0  0  0  0
   36.7340   47.9580   13.2140 C   0  0  0  0  0  3  0  0  0  0  0  0
   36.5500   47.0260   12.1950 C   0  0  0  0  0  3  0  0  0  0  0  0
   36.7190   45.6660   12.4550 C   0  0  0  0  0  3  0  0  0  0  0  0
   37.0710   45.2370   13.7360 C   0  0  0  0  0  3  0  0  0  0  0  0
   35.6060   44.3810   16.9770 C   0  0  0  0  0  0  0  0  0  0  0  0
   35.3550   43.0390   17.2640 C   0  0  0  0  0  3  0  0  0  0  0  0
   34.0510   42.5280   17.2070 C   0  0  0  0  0  3  0  0  0  0  0  0
   32.9410   43.3320   16.8710 C   0  0  0  0  0  0  0  0  0  0  0  0
   33.2220   44.6820   16.5850 C   0  0  0  0  0  3  0  0  0  0  0  0
   34.5220   45.1970   16.6400 C   0  0  0  0  0  3  0  0  0  0  0  0
   31.4700   42.7720   16.8670 C   0  0  1  0  0  0  0  0  0  0  0  0
   30.3500   43.5280   17.6440 C   0  0  0  0  0  2  0  0  0  0  0  0
   29.3530   42.9870   16.5760 C   0  0  1  0  0  0  0  0  0  0  0  0
   28.2180   43.9270   16.2170 C   0  0  0  0  0  1  0  0  0  0  0  0
   30.5700   42.9620   15.6040 C   0  0  0  0  0  2  0  0  0  0  0  0
   31.5320   41.3450   17.2810 N   0  0  0  0  0  4  0  0  0  0  0  0
   32.0900   40.7780   16.6340 H   0  0  0  0  0  0  0  0  0  0  0  0
   31.9380   41.2370   18.2170 H   0  0  0  0  0  0  0  0  0  0  0  0
   30.5730   40.9440   17.3110 H   0  0  0  0  0  0  0  0  0  0  0  0
   28.8580   41.6570   16.8900 O   0  0  0  0  0  0  0  0  0  0  0  0
   27.9840   41.5840   16.4490 H   0  0  0  0  0  0  0  0  0  0  0  0
   40.2250   46.3120   23.4770 C   0  0  0  0  0  1  0  0  0  0  0  0
   40.9970   45.1090   23.2720 N   0  0  0  0  0  0  0  0  0  0  0  0
   41.4060   44.5490   22.0890 C   0  0  0  0  0  0  0  0  0  0  0  0
   41.8920   43.4220   22.0680 O   0  0  0  0  0  0  0  0  0  0  0  0
   41.1990   44.5300   24.0780 H   0  0  0  0  0  0  0  0  0  0  0  0
  1 39  1  0  0  0  0
  2  1  1  0  0  0  0
  3  2  2  0  0  0  0
  4  5  2  0  0  0  0
  4  3  1  0  0  0  0
  5  6  1  0  0  0  0
  6  1  2  0  0  0  0
  7  8  2  0  0  0  0
  7  5  1  0  0  0  0
  9  8  1  0  0  0  0
 10 11  1  0  0  0  0
 10  9  2  0  0  0  0
 11  7  1  0  0  0  0
 12 11  1  0  0  0  0
 12 13  1  0  0  0  0
 13  4  1  0  0  0  0
 14 10  1  0  0  0  0
 15 14  1  0  0  0  0
 16 15  2  0  0  0  0
 17 18  2  0  0  0  0
 17 16  1  0  0  0  0
 18 19  1  0  0  0  0
 19 14  2  0  0  0  0
 20  9  1  0  0  0  0
 20 21  1  0  0  0  0
 22 21  2  0  0  0  0
 23 22  1  0  0  0  0
 24 25  1  0  0  0  0
 24 23  2  0  0  0  0
 25 20  2  0  0  0  0
 26 23  1  0  0  0  0
 26 31  1  1  0  0  0
 26 27  1  0  0  0  0
 28 29  1  6  0  0  0
 28 35  1  0  0  0  0
 28 27  1  0  0  0  0
 30 28  1  0  0  0  0
 30 26  1  0  0  0  0
 31 34  1  0  0  0  0
 31 33  1  0  0  0  0
 32 31  1  0  0  0  0
 36 35  1  0  0  0  0
 38 37  1  0  0  0  0
 38 41  1  0  0  0  0
 39 38  1  0  0  0  0
 40 39  2  0  0  0  0
M  END
>  <minimizedAffinity>
-13.3117113

$$$$
