
 OpenBabel11232419073D

 41 46  0  0  1  0  0  0  0  0999 V2000
   38.0770   43.7770   23.1590 C   0  0  0  0  0  0  0  0  0  0  0  0
   39.3680   44.3060   23.0360 C   0  0  0  0  0  3  0  0  0  0  0  0
   39.7730   44.8870   21.8320 C   0  0  0  0  0  3  0  0  0  0  0  0
   38.8970   44.9080   20.7480 C   0  0  0  0  0  0  0  0  0  0  0  0
   37.6110   44.3680   20.8660 C   0  0  0  0  0  0  0  0  0  0  0  0
   37.2010   43.7940   22.0690 C   0  0  0  0  0  3  0  0  0  0  0  0
   36.7470   44.4520   19.7140 C   0  0  0  0  0  0  0  0  0  0  0  0
   35.4630   44.1990   19.6020 N   0  0  0  0  0  0  0  0  0  0  0  0
   35.1490   44.4520   18.2810 C   0  0  0  0  0  0  0  0  0  0  0  0
   36.2720   44.8700   17.5730 C   0  0  0  0  0  0  0  0  0  0  0  0
   37.2690   44.8680   18.5230 N   0  0  0  0  0  0  0  0  0  0  0  0
   38.6820   45.1600   18.3690 C   0  0  0  0  0  2  0  0  0  0  0  0
   39.3350   45.5270   19.6040 O   0  0  0  0  0  0  0  0  0  0  0  0
   36.4740   45.2900   16.1930 C   0  0  0  0  0  0  0  0  0  0  0  0
   36.7110   44.3420   15.1900 C   0  0  0  0  0  3  0  0  0  0  0  0
   36.9110   44.7490   13.8710 C   0  0  0  0  0  3  0  0  0  0  0  0
   36.8790   46.1050   13.5460 C   0  0  0  0  0  3  0  0  0  0  0  0
   36.6420   47.0540   14.5400 C   0  0  0  0  0  3  0  0  0  0  0  0
   36.4380   46.6490   15.8600 C   0  0  0  0  0  3  0  0  0  0  0  0
   33.7880   44.2800   17.7960 C   0  0  0  0  0  0  0  0  0  0  0  0
   33.3500   44.7830   16.5710 C   0  0  0  0  0  3  0  0  0  0  0  0
   32.0390   44.5490   16.1300 C   0  0  0  0  0  3  0  0  0  0  0  0
   31.1140   43.7980   16.8860 C   0  0  0  0  0  0  0  0  0  0  0  0
   31.5810   43.3020   18.1180 C   0  0  0  0  0  3  0  0  0  0  0  0
   32.8880   43.5340   18.5630 C   0  0  0  0  0  3  0  0  0  0  0  0
   29.6630   43.4840   16.3620 C   0  0  1  0  0  0  0  0  0  0  0  0
   29.3110   42.0490   15.8650 C   0  0  0  0  0  2  0  0  0  0  0  0
   27.8550   42.3250   16.3470 C   0  0  1  0  0  0  0  0  0  0  0  0
   27.1240   41.1210   16.9110 C   0  0  0  0  0  1  0  0  0  0  0  0
   28.4930   43.2990   17.3820 C   0  0  0  0  0  2  0  0  0  0  0  0
   29.3280   44.5000   15.3300 N   0  0  0  0  0  4  0  0  0  0  0  0
   29.3310   45.4530   15.7090 H   0  0  0  0  0  0  0  0  0  0  0  0
   29.9890   44.4780   14.5450 H   0  0  0  0  0  0  0  0  0  0  0  0
   28.3820   44.3130   14.9440 H   0  0  0  0  0  0  0  0  0  0  0  0
   27.0510   43.0120   15.3500 O   0  0  0  0  0  0  0  0  0  0  0  0
   26.1200   42.7690   15.5410 H   0  0  0  0  0  0  0  0  0  0  0  0
   37.4190   45.3210   25.6720 C   0  0  0  0  0  1  0  0  0  0  0  0
   37.4270   43.8840   25.5400 N   0  0  0  0  0  0  0  0  0  0  0  0
   37.6250   43.1310   24.4110 C   0  0  0  0  0  0  0  0  0  0  0  0
   37.4130   41.9230   24.4220 O   0  0  0  0  0  0  0  0  0  0  0  0
   37.1640   43.3290   26.3470 H   0  0  0  0  0  0  0  0  0  0  0  0
  1 39  1  0  0  0  0
  2  1  1  0  0  0  0
  3  2  2  0  0  0  0
  4  5  2  0  0  0  0
  4  3  1  0  0  0  0
  5  6  1  0  0  0  0
  6  1  2  0  0  0  0
  7  5  1  0  0  0  0
  8  7  2  0  0  0  0
  9  8  1  0  0  0  0
 10  9  2  0  0  0  0
 10 11  1  0  0  0  0
 11  7  1  0  0  0  0
 12 11  1  0  0  0  0
 12 13  1  0  0  0  0
 13  4  1  0  0  0  0
 14 10  1  0  0  0  0
 15 14  2  0  0  0  0
 16 15  1  0  0  0  0
 17 16  2  0  0  0  0
 17 18  1  0  0  0  0
 18 19  2  0  0  0  0
 19 14  1  0  0  0  0
 20  9  1  0  0  0  0
 20 25  1  0  0  0  0
 21 20  2  0  0  0  0
 22 21  1  0  0  0  0
 22 23  2  0  0  0  0
 23 24  1  0  0  0  0
 24 25  2  0  0  0  0
 26 31  1  6  0  0  0
 26 23  1  0  0  0  0
 26 30  1  0  0  0  0
 27 28  1  0  0  0  0
 27 26  1  0  0  0  0
 28 29  1  1  0  0  0
 28 30  1  0  0  0  0
 31 32  1  0  0  0  0
 33 31  1  0  0  0  0
 34 31  1  0  0  0  0
 35 36  1  0  0  0  0
 35 28  1  0  0  0  0
 38 37  1  0  0  0  0
 38 41  1  0  0  0  0
 39 40  2  0  0  0  0
 39 38  1  0  0  0  0
M  END
>  <minimizedAffinity>
-12.1201534

$$$$
