
 OpenBabel11232419073D

 41 46  0  0  1  0  0  0  0  0999 V2000
   32.3420   43.0950   17.2800 C   0  0  0  0  0  0  0  0  0  0  0  0
   32.6310   43.3240   15.9280 C   0  0  0  0  0  3  0  0  0  0  0  0
   33.9140   43.7270   15.5470 C   0  0  0  0  0  3  0  0  0  0  0  0
   34.8900   43.9300   16.5210 C   0  0  0  0  0  0  0  0  0  0  0  0
   34.5980   43.7130   17.8730 C   0  0  0  0  0  0  0  0  0  0  0  0
   33.3220   43.3030   18.2560 C   0  0  0  0  0  3  0  0  0  0  0  0
   35.6660   43.9110   18.8220 C   0  0  0  0  0  0  0  0  0  0  0  0
   35.7250   43.6130   20.1000 N   0  0  0  0  0  0  0  0  0  0  0  0
   36.9800   44.0120   20.5170 C   0  0  0  0  0  0  0  0  0  0  0  0
   37.7010   44.5690   19.4640 C   0  0  0  0  0  0  0  0  0  0  0  0
   36.8340   44.4770   18.3980 N   0  0  0  0  0  0  0  0  0  0  0  0
   37.0050   44.9470   17.0360 C   0  0  0  0  0  2  0  0  0  0  0  0
   36.1420   44.2870   16.0840 O   0  0  0  0  0  0  0  0  0  0  0  0
   39.0530   45.0980   19.3610 C   0  0  0  0  0  0  0  0  0  0  0  0
   40.0560   44.6590   20.2330 C   0  0  0  0  0  3  0  0  0  0  0  0
   41.3490   45.1750   20.1350 C   0  0  0  0  0  3  0  0  0  0  0  0
   41.6470   46.1330   19.1670 C   0  0  0  0  0  3  0  0  0  0  0  0
   40.6530   46.5740   18.2940 C   0  0  0  0  0  3  0  0  0  0  0  0
   39.3600   46.0580   18.3880 C   0  0  0  0  0  3  0  0  0  0  0  0
   37.3970   43.8250   21.8980 C   0  0  0  0  0  0  0  0  0  0  0  0
   38.0470   44.8150   22.6350 C   0  0  0  0  0  3  0  0  0  0  0  0
   38.3880   44.5980   23.9790 C   0  0  0  0  0  3  0  0  0  0  0  0
   38.0890   43.3910   24.6450 C   0  0  0  0  0  0  0  0  0  0  0  0
   37.4330   42.4080   23.8780 C   0  0  0  0  0  3  0  0  0  0  0  0
   37.0920   42.6200   22.5380 C   0  0  0  0  0  3  0  0  0  0  0  0
   38.4160   43.1720   26.1690 C   0  0  1  0  0  0  0  0  0  0  0  0
   38.2350   41.7600   26.8060 C   0  0  0  0  0  2  0  0  0  0  0  0
   39.3980   42.1350   27.7740 C   0  0  1  0  0  0  0  0  0  0  0  0
   40.3090   40.9870   28.1630 C   0  0  0  0  0  1  0  0  0  0  0  0
   39.9040   43.0710   26.6360 C   0  0  0  0  0  2  0  0  0  0  0  0
   37.6730   44.2020   26.9410 N   0  0  0  0  0  4  0  0  0  0  0  0
   37.9560   45.1550   26.6890 H   0  0  0  0  0  0  0  0  0  0  0  0
   36.6590   44.1300   26.7940 H   0  0  0  0  0  0  0  0  0  0  0  0
   37.8480   44.0760   27.9580 H   0  0  0  0  0  0  0  0  0  0  0  0
   38.9430   42.8690   28.9440 O   0  0  0  0  0  0  0  0  0  0  0  0
   39.6040   42.6890   29.6470 H   0  0  0  0  0  0  0  0  0  0  0  0
   31.6740   40.3070   18.2370 C   0  0  0  0  0  1  0  0  0  0  0  0
   30.7350   41.3890   18.0600 N   0  0  0  0  0  0  0  0  0  0  0  0
   30.9890   42.6930   17.7210 C   0  0  0  0  0  0  0  0  0  0  0  0
   30.1040   43.5400   17.7960 O   0  0  0  0  0  0  0  0  0  0  0  0
   29.7640   41.2210   18.3000 H   0  0  0  0  0  0  0  0  0  0  0  0
  1 39  1  0  0  0  0
  1  6  1  0  0  0  0
  2  1  2  0  0  0  0
  3  2  1  0  0  0  0
  3  4  2  0  0  0  0
  4  5  1  0  0  0  0
  5  6  2  0  0  0  0
  5  7  1  0  0  0  0
  7  8  2  0  0  0  0
  8  9  1  0  0  0  0
  9 20  1  0  0  0  0
 10  9  2  0  0  0  0
 11  7  1  0  0  0  0
 11 10  1  0  0  0  0
 12 11  1  0  0  0  0
 13  4  1  0  0  0  0
 13 12  1  0  0  0  0
 14 10  1  0  0  0  0
 14 15  1  0  0  0  0
 16 15  2  0  0  0  0
 17 16  1  0  0  0  0
 18 19  1  0  0  0  0
 18 17  2  0  0  0  0
 19 14  2  0  0  0  0
 20 25  2  0  0  0  0
 20 21  1  0  0  0  0
 21 22  2  0  0  0  0
 22 23  1  0  0  0  0
 23 26  1  0  0  0  0
 24 23  2  0  0  0  0
 25 24  1  0  0  0  0
 26 30  1  0  0  0  0
 26 27  1  0  0  0  0
 26 31  1  1  0  0  0
 27 28  1  0  0  0  0
 28 29  1  1  0  0  0
 28 35  1  0  0  0  0
 30 28  1  0  0  0  0
 31 34  1  0  0  0  0
 32 31  1  0  0  0  0
 33 31  1  0  0  0  0
 35 36  1  0  0  0  0
 38 37  1  0  0  0  0
 38 41  1  0  0  0  0
 39 40  2  0  0  0  0
 39 38  1  0  0  0  0
M  END
>  <minimizedAffinity>
-10.5142221

$$$$
