
 OpenBabel11232420483D

 35 39  0  0  1  0  0  0  0  0999 V2000
  -17.5330   23.6100    9.0750 O   0  0  0  0  0  0  0  0  0  0  0  0
  -17.4650   27.0690   10.4390 C   0  0  0  0  0  0  0  0  0  0  0  0
  -16.0930   27.0950   10.6780 C   0  0  0  0  0  3  0  0  0  0  0  0
  -15.2460   26.0880   10.3590 N   0  0  0  0  0  0  0  0  0  0  0  0
  -15.7830   24.9900    9.7850 C   0  0  0  0  0  3  0  0  0  0  0  0
  -17.1360   24.8400    9.5130 C   0  0  0  0  0  0  0  0  0  0  0  0
  -17.9650   25.9190    9.8030 C   0  0  0  0  0  3  0  0  0  0  0  0
  -19.0870   30.3170   15.0040 C   0  0  0  0  0  1  0  0  0  0  0  0
  -19.6880   30.3590   13.6480 C   0  0  0  0  0  0  0  0  0  0  0  0
  -20.6970   31.1990   13.3870 N   0  0  0  0  0  0  0  0  0  0  0  0
  -20.9810   30.9810   12.0950 N   0  0  0  0  0  0  0  0  0  0  0  0
  -20.1870   30.0360   11.5040 C   0  0  0  0  0  0  0  0  0  0  0  0
  -20.1460   29.5360   10.2150 C   0  0  0  0  0  3  0  0  0  0  0  0
  -19.2290   28.5800    9.9140 N   0  0  0  0  0  0  0  0  0  0  0  0
  -18.3790   28.1280   10.8880 C   0  0  0  0  0  0  0  0  0  0  0  0
  -18.3840   28.6120   12.1970 C   0  0  0  0  0  3  0  0  0  0  0  0
  -19.3270   29.6010   12.5020 C   0  0  0  0  0  0  0  0  0  0  0  0
  -21.7320   31.5200   11.6770 H   0  0  0  0  0  0  0  0  0  0  0  0
  -18.1590   22.7020    9.9880 C   0  0  0  0  0  2  0  0  0  0  0  0
  -19.5040   22.1810    9.4320 C   0  0  1  0  0  3  0  0  0  0  0  0
  -20.5430   23.2700    9.4380 N   0  0  0  0  0  4  0  0  0  0  0  0
  -20.3180   24.0640    8.8210 H   0  0  0  0  0  0  0  0  0  0  0  0
  -21.4710   22.9170    9.1690 H   0  0  0  0  0  0  0  0  0  0  0  0
  -20.6400   23.6550   10.3910 H   0  0  0  0  0  0  0  0  0  0  0  0
  -19.3770   21.6260    8.0040 C   0  0  0  0  0  2  0  0  0  0  0  0
  -18.4210   20.4830    7.9200 C   0  0  0  0  0  0  0  0  0  0  0  0
  -18.5060   19.3050    8.6390 C   0  0  0  0  0  3  0  0  0  0  0  0
  -17.4440   18.5120    8.2930 N   0  0  0  0  0  0  0  0  0  0  0  0
  -16.6560   19.1550    7.3690 C   0  0  0  0  0  0  0  0  0  0  0  0
  -15.4720   18.7300    6.7540 C   0  0  0  0  0  3  0  0  0  0  0  0
  -14.8780   19.5900    5.8290 C   0  0  0  0  0  3  0  0  0  0  0  0
  -15.4520   20.8220    5.5250 C   0  0  0  0  0  3  0  0  0  0  0  0
  -16.6390   21.2290    6.1460 C   0  0  0  0  0  3  0  0  0  0  0  0
  -17.2530   20.3850    7.0960 C   0  0  0  0  0  0  0  0  0  0  0  0
  -17.2590   17.5840    8.6550 H   0  0  0  0  0  0  0  0  0  0  0  0
  1  6  1  0  0  0  0
  1 19  1  0  0  0  0
  2  3  1  0  0  0  0
  2 15  1  0  0  0  0
  4  3  2  0  0  0  0
  5  4  1  0  0  0  0
  6  5  2  0  0  0  0
  6  7  1  0  0  0  0
  7  2  2  0  0  0  0
  9  8  1  0  0  0  0
 10  9  2  0  0  0  0
 11 10  1  0  0  0  0
 12 11  1  0  0  0  0
 12 17  1  0  0  0  0
 13 12  2  0  0  0  0
 14 13  1  0  0  0  0
 14 15  2  0  0  0  0
 15 16  1  0  0  0  0
 16 17  2  0  0  0  0
 17  9  1  0  0  0  0
 18 11  1  0  0  0  0
 20 25  1  6  0  0  0
 20 21  1  0  0  0  0
 20 19  1  0  0  0  0
 21 24  1  0  0  0  0
 22 21  1  0  0  0  0
 23 21  1  0  0  0  0
 26 25  1  0  0  0  0
 26 27  2  0  0  0  0
 28 27  1  0  0  0  0
 28 35  1  0  0  0  0
 29 28  1  0  0  0  0
 30 29  2  0  0  0  0
 31 30  1  0  0  0  0
 32 31  2  0  0  0  0
 32 33  1  0  0  0  0
 33 34  2  0  0  0  0
 34 29  1  0  0  0  0
 34 26  1  0  0  0  0
M  END
>  <minimizedAffinity>
-10.239007

$$$$
