
 OpenBabel11232420483D

 35 39  0  0  1  0  0  0  0  0999 V2000
  -19.2030   21.8000   11.4340 O   0  0  0  0  0  0  0  0  0  0  0  0
  -21.4570   19.2410   12.9150 C   0  0  0  0  0  0  0  0  0  0  0  0
  -22.5390   20.0990   13.0960 C   0  0  0  0  0  3  0  0  0  0  0  0
  -22.5550   21.3950   12.7040 N   0  0  0  0  0  0  0  0  0  0  0  0
  -21.4380   21.8750   12.1150 C   0  0  0  0  0  3  0  0  0  0  0  0
  -20.2920   21.1230   11.8970 C   0  0  0  0  0  0  0  0  0  0  0  0
  -20.3350   19.7800   12.2620 C   0  0  0  0  0  3  0  0  0  0  0  0
  -18.0540   15.1660   15.3320 C   0  0  0  0  0  1  0  0  0  0  0  0
  -19.4870   15.0080   14.9810 C   0  0  0  0  0  0  0  0  0  0  0  0
  -20.1120   13.8470   15.2170 N   0  0  0  0  0  0  0  0  0  0  0  0
  -21.3660   14.0570   14.7940 N   0  0  0  0  0  0  0  0  0  0  0  0
  -21.5820   15.3140   14.3000 C   0  0  0  0  0  0  0  0  0  0  0  0
  -22.7120   15.9250   13.7850 C   0  0  0  0  0  3  0  0  0  0  0  0
  -22.6220   17.2130   13.3610 N   0  0  0  0  0  0  0  0  0  0  0  0
  -21.4230   17.8700   13.4420 C   0  0  0  0  0  0  0  0  0  0  0  0
  -20.2650   17.2910   13.9610 C   0  0  0  0  0  3  0  0  0  0  0  0
  -20.3620   15.9660   14.4020 C   0  0  0  0  0  0  0  0  0  0  0  0
  -22.0280   13.2930   14.8780 H   0  0  0  0  0  0  0  0  0  0  0  0
  -19.3870   22.9560   10.6090 C   0  0  0  0  0  2  0  0  0  0  0  0
  -18.5720   22.8500    9.2990 C   0  0  1  0  0  3  0  0  0  0  0  0
  -17.1460   22.4620    9.5880 N   0  0  0  0  0  4  0  0  0  0  0  0
  -17.0450   21.5290   10.0110 H   0  0  0  0  0  0  0  0  0  0  0  0
  -16.5620   22.4880    8.7420 H   0  0  0  0  0  0  0  0  0  0  0  0
  -16.7290   23.1340   10.2520 H   0  0  0  0  0  0  0  0  0  0  0  0
  -19.1700   21.8350    8.3120 C   0  0  0  0  0  2  0  0  0  0  0  0
  -18.3290   20.6100    8.1750 C   0  0  0  0  0  0  0  0  0  0  0  0
  -18.4550   19.4560    8.9250 C   0  0  0  0  0  3  0  0  0  0  0  0
  -17.5000   18.5660    8.5100 N   0  0  0  0  0  0  0  0  0  0  0  0
  -16.7400   19.1210    7.5090 C   0  0  0  0  0  0  0  0  0  0  0  0
  -15.6560   18.5820    6.8070 C   0  0  0  0  0  3  0  0  0  0  0  0
  -15.0700   19.3710    5.8160 C   0  0  0  0  0  3  0  0  0  0  0  0
  -15.5580   20.6450    5.5320 C   0  0  0  0  0  3  0  0  0  0  0  0
  -16.6470   21.1660    6.2410 C   0  0  0  0  0  3  0  0  0  0  0  0
  -17.2490   20.3950    7.2580 C   0  0  0  0  0  0  0  0  0  0  0  0
  -17.3670   17.6310    8.8780 H   0  0  0  0  0  0  0  0  0  0  0  0
  1  6  1  0  0  0  0
  2  3  1  0  0  0  0
  2 15  1  0  0  0  0
  4  3  2  0  0  0  0
  5  4  1  0  0  0  0
  6  5  2  0  0  0  0
  6  7  1  0  0  0  0
  7  2  2  0  0  0  0
  9 10  2  0  0  0  0
  9  8  1  0  0  0  0
 11 18  1  0  0  0  0
 11 10  1  0  0  0  0
 12 17  1  0  0  0  0
 12 11  1  0  0  0  0
 13 12  2  0  0  0  0
 14 15  2  0  0  0  0
 14 13  1  0  0  0  0
 15 16  1  0  0  0  0
 16 17  2  0  0  0  0
 17  9  1  0  0  0  0
 19  1  1  0  0  0  0
 20 25  1  6  0  0  0
 20 21  1  0  0  0  0
 20 19  1  0  0  0  0
 21 22  1  0  0  0  0
 21 24  1  0  0  0  0
 23 21  1  0  0  0  0
 26 25  1  0  0  0  0
 26 27  2  0  0  0  0
 28 35  1  0  0  0  0
 28 27  1  0  0  0  0
 29 28  1  0  0  0  0
 30 29  2  0  0  0  0
 31 30  1  0  0  0  0
 32 31  2  0  0  0  0
 32 33  1  0  0  0  0
 33 34  2  0  0  0  0
 34 29  1  0  0  0  0
 34 26  1  0  0  0  0
M  END
>  <minimizedAffinity>
-9.92184639

$$$$
