
 OpenBabel11232420483D

 35 39  0  0  1  0  0  0  0  0999 V2000
  -18.7440   19.4890    8.3420 O   0  0  0  0  0  0  0  0  0  0  0  0
  -20.0030   18.1860   11.5890 C   0  0  0  0  0  0  0  0  0  0  0  0
  -19.6180   16.8670   11.3660 C   0  0  0  0  0  3  0  0  0  0  0  0
  -18.9400   16.4470   10.2710 N   0  0  0  0  0  0  0  0  0  0  0  0
  -18.6400   17.3760    9.3390 C   0  0  0  0  0  3  0  0  0  0  0  0
  -18.9860   18.7170    9.4400 C   0  0  0  0  0  0  0  0  0  0  0  0
  -19.6310   19.1190   10.6060 C   0  0  0  0  0  3  0  0  0  0  0  0
  -21.0630   17.2770   17.2530 C   0  0  0  0  0  1  0  0  0  0  0  0
  -21.7850   18.2300   16.3740 C   0  0  0  0  0  0  0  0  0  0  0  0
  -22.7790   18.9780   16.8680 N   0  0  0  0  0  0  0  0  0  0  0  0
  -23.1890   19.7120   15.8240 N   0  0  0  0  0  0  0  0  0  0  0  0
  -22.4930   19.4740   14.6710 C   0  0  0  0  0  0  0  0  0  0  0  0
  -22.5910   20.0150   13.4010 C   0  0  0  0  0  3  0  0  0  0  0  0
  -21.7450   19.5720   12.4350 N   0  0  0  0  0  0  0  0  0  0  0  0
  -20.8280   18.5990   12.7330 C   0  0  0  0  0  0  0  0  0  0  0  0
  -20.6930   18.0340   14.0010 C   0  0  0  0  0  3  0  0  0  0  0  0
  -21.5630   18.4980   14.9970 C   0  0  0  0  0  0  0  0  0  0  0  0
  -23.9530   20.3620   15.9730 H   0  0  0  0  0  0  0  0  0  0  0  0
  -17.4370   19.4980    7.7580 C   0  0  0  0  0  2  0  0  0  0  0  0
  -16.7090   20.8360    8.0250 C   0  0  1  0  0  3  0  0  0  0  0  0
  -15.8210   21.2010    6.8660 N   0  0  0  0  0  4  0  0  0  0  0  0
  -16.3310   21.3750    5.9880 H   0  0  0  0  0  0  0  0  0  0  0  0
  -15.2500   22.0330    7.0670 H   0  0  0  0  0  0  0  0  0  0  0  0
  -15.1600   20.4310    6.6760 H   0  0  0  0  0  0  0  0  0  0  0  0
  -17.6830   21.9960    8.2870 C   0  0  0  0  0  2  0  0  0  0  0  0
  -17.7340   22.3840    9.7270 C   0  0  0  0  0  0  0  0  0  0  0  0
  -16.8980   21.9100   10.7210 C   0  0  0  0  0  3  0  0  0  0  0  0
  -17.2630   22.4920   11.9050 N   0  0  0  0  0  0  0  0  0  0  0  0
  -18.3340   23.3310   11.7090 C   0  0  0  0  0  0  0  0  0  0  0  0
  -19.0380   24.1130   12.6320 C   0  0  0  0  0  3  0  0  0  0  0  0
  -20.0900   24.8940   12.1500 C   0  0  0  0  0  3  0  0  0  0  0  0
  -20.4170   24.8990   10.7960 C   0  0  0  0  0  3  0  0  0  0  0  0
  -19.6990   24.1140    9.8850 C   0  0  0  0  0  3  0  0  0  0  0  0
  -18.6400   23.3040   10.3480 C   0  0  0  0  0  0  0  0  0  0  0  0
  -16.8150   22.3380   12.8000 H   0  0  0  0  0  0  0  0  0  0  0  0
  1  6  1  0  0  0  0
  2 15  1  0  0  0  0
  3  2  1  0  0  0  0
  4  3  2  0  0  0  0
  5  6  2  0  0  0  0
  5  4  1  0  0  0  0
  6  7  1  0  0  0  0
  7  2  2  0  0  0  0
  9 10  2  0  0  0  0
  9  8  1  0  0  0  0
 11 18  1  0  0  0  0
 11 10  1  0  0  0  0
 12 17  1  0  0  0  0
 12 11  1  0  0  0  0
 13 12  2  0  0  0  0
 14 15  2  0  0  0  0
 14 13  1  0  0  0  0
 15 16  1  0  0  0  0
 16 17  2  0  0  0  0
 17  9  1  0  0  0  0
 19  1  1  0  0  0  0
 20 19  1  6  0  0  0
 20 25  1  0  0  0  0
 21 23  1  0  0  0  0
 21 20  1  0  0  0  0
 22 21  1  0  0  0  0
 24 21  1  0  0  0  0
 25 26  1  0  0  0  0
 26 34  1  0  0  0  0
 26 27  2  0  0  0  0
 27 28  1  0  0  0  0
 28 35  1  0  0  0  0
 29 28  1  0  0  0  0
 29 30  1  0  0  0  0
 31 30  2  0  0  0  0
 32 31  1  0  0  0  0
 33 34  1  0  0  0  0
 33 32  2  0  0  0  0
 34 29  2  0  0  0  0
M  END
>  <minimizedAffinity>
-10.5574751

$$$$

 OpenBabel11232420483D

 35 39  0  0  1  0  0  0  0  0999 V2000
  -17.5330   23.6100    9.0750 O   0  0  0  0  0  0  0  0  0  0  0  0
  -17.4650   27.0690   10.4390 C   0  0  0  0  0  0  0  0  0  0  0  0
  -16.0930   27.0950   10.6780 C   0  0  0  0  0  3  0  0  0  0  0  0
  -15.2460   26.0880   10.3590 N   0  0  0  0  0  0  0  0  0  0  0  0
  -15.7830   24.9900    9.7850 C   0  0  0  0  0  3  0  0  0  0  0  0
  -17.1360   24.8400    9.5130 C   0  0  0  0  0  0  0  0  0  0  0  0
  -17.9650   25.9190    9.8030 C   0  0  0  0  0  3  0  0  0  0  0  0
  -19.0870   30.3170   15.0040 C   0  0  0  0  0  1  0  0  0  0  0  0
  -19.6880   30.3590   13.6480 C   0  0  0  0  0  0  0  0  0  0  0  0
  -20.6970   31.1990   13.3870 N   0  0  0  0  0  0  0  0  0  0  0  0
  -20.9810   30.9810   12.0950 N   0  0  0  0  0  0  0  0  0  0  0  0
  -20.1870   30.0360   11.5040 C   0  0  0  0  0  0  0  0  0  0  0  0
  -20.1460   29.5360   10.2150 C   0  0  0  0  0  3  0  0  0  0  0  0
  -19.2290   28.5800    9.9140 N   0  0  0  0  0  0  0  0  0  0  0  0
  -18.3790   28.1280   10.8880 C   0  0  0  0  0  0  0  0  0  0  0  0
  -18.3840   28.6120   12.1970 C   0  0  0  0  0  3  0  0  0  0  0  0
  -19.3270   29.6010   12.5020 C   0  0  0  0  0  0  0  0  0  0  0  0
  -21.7320   31.5200   11.6770 H   0  0  0  0  0  0  0  0  0  0  0  0
  -18.1590   22.7020    9.9880 C   0  0  0  0  0  2  0  0  0  0  0  0
  -19.5040   22.1810    9.4320 C   0  0  1  0  0  3  0  0  0  0  0  0
  -20.5430   23.2700    9.4380 N   0  0  0  0  0  4  0  0  0  0  0  0
  -20.3180   24.0640    8.8210 H   0  0  0  0  0  0  0  0  0  0  0  0
  -21.4710   22.9170    9.1690 H   0  0  0  0  0  0  0  0  0  0  0  0
  -20.6400   23.6550   10.3910 H   0  0  0  0  0  0  0  0  0  0  0  0
  -19.3770   21.6260    8.0040 C   0  0  0  0  0  2  0  0  0  0  0  0
  -18.4210   20.4830    7.9200 C   0  0  0  0  0  0  0  0  0  0  0  0
  -18.5060   19.3050    8.6390 C   0  0  0  0  0  3  0  0  0  0  0  0
  -17.4440   18.5120    8.2930 N   0  0  0  0  0  0  0  0  0  0  0  0
  -16.6560   19.1550    7.3690 C   0  0  0  0  0  0  0  0  0  0  0  0
  -15.4720   18.7300    6.7540 C   0  0  0  0  0  3  0  0  0  0  0  0
  -14.8780   19.5900    5.8290 C   0  0  0  0  0  3  0  0  0  0  0  0
  -15.4520   20.8220    5.5250 C   0  0  0  0  0  3  0  0  0  0  0  0
  -16.6390   21.2290    6.1460 C   0  0  0  0  0  3  0  0  0  0  0  0
  -17.2530   20.3850    7.0960 C   0  0  0  0  0  0  0  0  0  0  0  0
  -17.2590   17.5840    8.6550 H   0  0  0  0  0  0  0  0  0  0  0  0
  1  6  1  0  0  0  0
  1 19  1  0  0  0  0
  2  3  1  0  0  0  0
  2 15  1  0  0  0  0
  4  3  2  0  0  0  0
  5  4  1  0  0  0  0
  6  5  2  0  0  0  0
  6  7  1  0  0  0  0
  7  2  2  0  0  0  0
  9  8  1  0  0  0  0
 10  9  2  0  0  0  0
 11 10  1  0  0  0  0
 12 11  1  0  0  0  0
 12 17  1  0  0  0  0
 13 12  2  0  0  0  0
 14 13  1  0  0  0  0
 14 15  2  0  0  0  0
 15 16  1  0  0  0  0
 16 17  2  0  0  0  0
 17  9  1  0  0  0  0
 18 11  1  0  0  0  0
 20 25  1  6  0  0  0
 20 21  1  0  0  0  0
 20 19  1  0  0  0  0
 21 24  1  0  0  0  0
 22 21  1  0  0  0  0
 23 21  1  0  0  0  0
 26 25  1  0  0  0  0
 26 27  2  0  0  0  0
 28 27  1  0  0  0  0
 28 35  1  0  0  0  0
 29 28  1  0  0  0  0
 30 29  2  0  0  0  0
 31 30  1  0  0  0  0
 32 31  2  0  0  0  0
 32 33  1  0  0  0  0
 33 34  2  0  0  0  0
 34 29  1  0  0  0  0
 34 26  1  0  0  0  0
M  END
>  <minimizedAffinity>
-10.239007

$$$$

 OpenBabel11232420483D

 35 39  0  0  1  0  0  0  0  0999 V2000
  -19.7170   19.3260   12.0980 O   0  0  0  0  0  0  0  0  0  0  0  0
  -19.6130   23.0210   11.6960 C   0  0  0  0  0  0  0  0  0  0  0  0
  -20.9930   23.2010   11.7220 C   0  0  0  0  0  3  0  0  0  0  0  0
  -21.8870   22.2030   11.9220 N   0  0  0  0  0  0  0  0  0  0  0  0
  -21.3920   20.9580   12.0910 C   0  0  0  0  0  3  0  0  0  0  0  0
  -20.0380   20.6510   12.0670 C   0  0  0  0  0  0  0  0  0  0  0  0
  -19.1500   21.7130   11.9160 C   0  0  0  0  0  3  0  0  0  0  0  0
  -18.4120   28.6740   12.4880 C   0  0  0  0  0  1  0  0  0  0  0  0
  -17.6300   27.7260   11.6570 C   0  0  0  0  0  0  0  0  0  0  0  0
  -16.5380   28.1470   11.0060 N   0  0  0  0  0  0  0  0  0  0  0  0
  -16.0870   27.0520   10.3770 N   0  0  0  0  0  0  0  0  0  0  0  0
  -16.8420   25.9330   10.6030 C   0  0  0  0  0  0  0  0  0  0  0  0
  -16.7170   24.6280   10.1610 C   0  0  0  0  0  3  0  0  0  0  0  0
  -17.6380   23.7120   10.5590 N   0  0  0  0  0  0  0  0  0  0  0  0
  -18.6690   24.1000   11.3730 C   0  0  0  0  0  0  0  0  0  0  0  0
  -18.8250   25.4030   11.8450 C   0  0  0  0  0  3  0  0  0  0  0  0
  -17.8700   26.3430   11.4380 C   0  0  0  0  0  0  0  0  0  0  0  0
  -15.2520   27.1420    9.8100 H   0  0  0  0  0  0  0  0  0  0  0  0
  -20.1480   18.4690   11.0350 C   0  0  0  0  0  2  0  0  0  0  0  0
  -19.0040   18.1920   10.0340 C   0  0  1  0  0  3  0  0  0  0  0  0
  -18.6660   16.7250   10.0010 N   0  0  0  0  0  4  0  0  0  0  0  0
  -19.4340   16.1280    9.6610 H   0  0  0  0  0  0  0  0  0  0  0  0
  -17.8400   16.5340    9.4190 H   0  0  0  0  0  0  0  0  0  0  0  0
  -18.4370   16.3980   10.9520 H   0  0  0  0  0  0  0  0  0  0  0  0
  -19.3430   18.6540    8.6070 C   0  0  0  0  0  2  0  0  0  0  0  0
  -18.5320   19.8330    8.1820 C   0  0  0  0  0  0  0  0  0  0  0  0
  -18.7850   21.1490    8.5160 C   0  0  0  0  0  3  0  0  0  0  0  0
  -17.8260   21.9340    7.9310 N   0  0  0  0  0  0  0  0  0  0  0  0
  -16.9570   21.1550    7.2060 C   0  0  0  0  0  0  0  0  0  0  0  0
  -15.8460   21.5310    6.4420 C   0  0  0  0  0  3  0  0  0  0  0  0
  -15.1200   20.5170    5.8140 C   0  0  0  0  0  3  0  0  0  0  0  0
  -15.4850   19.1810    5.9550 C   0  0  0  0  0  3  0  0  0  0  0  0
  -16.5960   18.8230    6.7280 C   0  0  0  0  0  3  0  0  0  0  0  0
  -17.3570   19.8290    7.3620 C   0  0  0  0  0  0  0  0  0  0  0  0
  -17.7570   22.9410    8.0150 H   0  0  0  0  0  0  0  0  0  0  0  0
  2  3  2  0  0  0  0
  2  7  1  0  0  0  0
  3  4  1  0  0  0  0
  4  5  2  0  0  0  0
  6  5  1  0  0  0  0
  6  1  1  0  0  0  0
  7  6  2  0  0  0  0
  9  8  1  0  0  0  0
 10  9  2  0  0  0  0
 11 12  1  0  0  0  0
 11 10  1  0  0  0  0
 12 17  1  0  0  0  0
 13 14  1  0  0  0  0
 13 12  2  0  0  0  0
 14 15  2  0  0  0  0
 15  2  1  0  0  0  0
 15 16  1  0  0  0  0
 17  9  1  0  0  0  0
 17 16  2  0  0  0  0
 18 11  1  0  0  0  0
 19  1  1  0  0  0  0
 20 25  1  6  0  0  0
 20 19  1  0  0  0  0
 21 20  1  0  0  0  0
 21 24  1  0  0  0  0
 22 21  1  0  0  0  0
 23 21  1  0  0  0  0
 26 27  2  0  0  0  0
 26 25  1  0  0  0  0
 28 35  1  0  0  0  0
 28 27  1  0  0  0  0
 29 34  1  0  0  0  0
 29 28  1  0  0  0  0
 30 29  2  0  0  0  0
 31 32  2  0  0  0  0
 31 30  1  0  0  0  0
 32 33  1  0  0  0  0
 33 34  2  0  0  0  0
 34 26  1  0  0  0  0
M  END
>  <minimizedAffinity>
-10.1644077

$$$$

 OpenBabel11232420483D

 35 39  0  0  1  0  0  0  0  0999 V2000
  -18.5880   20.1640    8.8980 O   0  0  0  0  0  0  0  0  0  0  0  0
  -20.1470   18.4830   11.8250 C   0  0  0  0  0  0  0  0  0  0  0  0
  -19.9200   17.1860   11.3740 C   0  0  0  0  0  3  0  0  0  0  0  0
  -19.2520   16.8810   10.2360 N   0  0  0  0  0  0  0  0  0  0  0  0
  -18.7950   17.9140    9.4960 C   0  0  0  0  0  3  0  0  0  0  0  0
  -18.9740   19.2490    9.8310 C   0  0  0  0  0  0  0  0  0  0  0  0
  -19.6150   19.5190   11.0370 C   0  0  0  0  0  3  0  0  0  0  0  0
  -21.1580   17.0820   17.3960 C   0  0  0  0  0  1  0  0  0  0  0  0
  -21.8910   18.1040   16.6090 C   0  0  0  0  0  0  0  0  0  0  0  0
  -22.8830   18.8030   17.1740 N   0  0  0  0  0  0  0  0  0  0  0  0
  -23.3050   19.6220   16.2000 N   0  0  0  0  0  0  0  0  0  0  0  0
  -22.6160   19.4880   15.0260 C   0  0  0  0  0  0  0  0  0  0  0  0
  -22.7270   20.1370   13.8090 C   0  0  0  0  0  3  0  0  0  0  0  0
  -21.8870   19.7830   12.8010 N   0  0  0  0  0  0  0  0  0  0  0  0
  -20.9640   18.7930   13.0070 C   0  0  0  0  0  0  0  0  0  0  0  0
  -20.8160   18.1200   14.2200 C   0  0  0  0  0  3  0  0  0  0  0  0
  -21.6800   18.4910   15.2580 C   0  0  0  0  0  0  0  0  0  0  0  0
  -24.0700   20.2540   16.4110 H   0  0  0  0  0  0  0  0  0  0  0  0
  -17.3440   20.8560    9.0580 C   0  0  0  0  0  2  0  0  0  0  0  0
  -17.4610   21.9940   10.0980 C   0  0  1  0  0  3  0  0  0  0  0  0
  -16.2950   21.9700   11.0500 N   0  0  0  0  0  4  0  0  0  0  0  0
  -15.3860   22.1470   10.6000 H   0  0  0  0  0  0  0  0  0  0  0  0
  -16.4070   22.6530   11.8110 H   0  0  0  0  0  0  0  0  0  0  0  0
  -16.2290   21.0420   11.4960 H   0  0  0  0  0  0  0  0  0  0  0  0
  -17.5380   23.3840    9.4450 C   0  0  0  0  0  2  0  0  0  0  0  0
  -18.7100   24.1750    9.9250 C   0  0  0  0  0  0  0  0  0  0  0  0
  -20.0380   23.8310    9.7600 C   0  0  0  0  0  3  0  0  0  0  0  0
  -20.8110   24.8090   10.3280 N   0  0  0  0  0  0  0  0  0  0  0  0
  -20.0110   25.7970   10.8500 C   0  0  0  0  0  0  0  0  0  0  0  0
  -20.3680   26.9830   11.5040 C   0  0  0  0  0  3  0  0  0  0  0  0
  -19.3370   27.8100   11.9520 C   0  0  0  0  0  3  0  0  0  0  0  0
  -18.0030   27.4590   11.7630 C   0  0  0  0  0  3  0  0  0  0  0  0
  -17.6640   26.2670   11.1110 C   0  0  0  0  0  3  0  0  0  0  0  0
  -18.6860   25.4190   10.6350 C   0  0  0  0  0  0  0  0  0  0  0  0
  -21.8230   24.8130   10.3660 H   0  0  0  0  0  0  0  0  0  0  0  0
  1 19  1  0  0  0  0
  1  6  1  0  0  0  0
  2 15  1  0  0  0  0
  3  2  1  0  0  0  0
  4  3  2  0  0  0  0
  5  6  2  0  0  0  0
  5  4  1  0  0  0  0
  6  7  1  0  0  0  0
  7  2  2  0  0  0  0
  9 10  2  0  0  0  0
  9  8  1  0  0  0  0
 11 18  1  0  0  0  0
 11 10  1  0  0  0  0
 12 17  1  0  0  0  0
 12 11  1  0  0  0  0
 13 12  2  0  0  0  0
 14 15  2  0  0  0  0
 14 13  1  0  0  0  0
 15 16  1  0  0  0  0
 16 17  2  0  0  0  0
 17  9  1  0  0  0  0
 20 19  1  6  0  0  0
 20 21  1  0  0  0  0
 21 24  1  0  0  0  0
 21 23  1  0  0  0  0
 22 21  1  0  0  0  0
 25 26  1  0  0  0  0
 25 20  1  0  0  0  0
 26 34  1  0  0  0  0
 27 26  2  0  0  0  0
 27 28  1  0  0  0  0
 28 35  1  0  0  0  0
 28 29  1  0  0  0  0
 29 30  1  0  0  0  0
 30 31  2  0  0  0  0
 32 31  1  0  0  0  0
 33 32  2  0  0  0  0
 34 29  2  0  0  0  0
 34 33  1  0  0  0  0
M  END
>  <minimizedAffinity>
-10.0903883

$$$$

 OpenBabel11232420483D

 35 39  0  0  1  0  0  0  0  0999 V2000
  -17.2320   23.1110   11.5180 O   0  0  0  0  0  0  0  0  0  0  0  0
  -19.7390   25.8510   11.6910 C   0  0  0  0  0  0  0  0  0  0  0  0
  -20.8510   25.0160   11.7410 C   0  0  0  0  0  3  0  0  0  0  0  0
  -20.7860   23.6640   11.7830 N   0  0  0  0  0  0  0  0  0  0  0  0
  -19.5570   23.1050   11.7580 C   0  0  0  0  0  3  0  0  0  0  0  0
  -18.3760   23.8320   11.6910 C   0  0  0  0  0  0  0  0  0  0  0  0
  -18.4830   25.2190   11.7080 C   0  0  0  0  0  3  0  0  0  0  0  0
  -20.8410   30.8480   14.4920 C   0  0  0  0  0  1  0  0  0  0  0  0
  -20.5320   30.7090   13.0470 C   0  0  0  0  0  0  0  0  0  0  0  0
  -20.4860   31.7940   12.2630 N   0  0  0  0  0  0  0  0  0  0  0  0
  -20.1790   31.3110   11.0510 N   0  0  0  0  0  0  0  0  0  0  0  0
  -20.0160   29.9530   11.0200 C   0  0  0  0  0  0  0  0  0  0  0  0
  -19.6920   29.0830    9.9940 C   0  0  0  0  0  3  0  0  0  0  0  0
  -19.5990   27.7550   10.2690 N   0  0  0  0  0  0  0  0  0  0  0  0
  -19.8360   27.3100   11.5420 C   0  0  0  0  0  0  0  0  0  0  0  0
  -20.1570   28.1550   12.6040 C   0  0  0  0  0  3  0  0  0  0  0  0
  -20.2470   29.5240   12.3180 C   0  0  0  0  0  0  0  0  0  0  0  0
  -20.0930   31.9710   10.2860 H   0  0  0  0  0  0  0  0  0  0  0  0
  -17.1920   22.0710   10.5340 C   0  0  0  0  0  2  0  0  0  0  0  0
  -17.5340   22.6130    9.1260 C   0  0  1  0  0  3  0  0  0  0  0  0
  -16.3010   22.6780    8.2650 N   0  0  0  0  0  4  0  0  0  0  0  0
  -15.8770   21.7590    8.0740 H   0  0  0  0  0  0  0  0  0  0  0  0
  -16.4870   23.1320    7.3620 H   0  0  0  0  0  0  0  0  0  0  0  0
  -15.5770   23.2450    8.7340 H   0  0  0  0  0  0  0  0  0  0  0  0
  -18.5940   21.7620    8.4080 C   0  0  0  0  0  2  0  0  0  0  0  0
  -18.2670   20.3060    8.4310 C   0  0  0  0  0  0  0  0  0  0  0  0
  -17.4020   19.6590    7.5680 C   0  0  0  0  0  3  0  0  0  0  0  0
  -17.3730   18.3310    7.9020 N   0  0  0  0  0  0  0  0  0  0  0  0
  -18.2160   18.0920    8.9610 C   0  0  0  0  0  0  0  0  0  0  0  0
  -18.5080   16.8910    9.6160 C   0  0  0  0  0  3  0  0  0  0  0  0
  -19.4030   16.9390   10.6870 C   0  0  0  0  0  3  0  0  0  0  0  0
  -19.9720   18.1430   11.0920 C   0  0  0  0  0  3  0  0  0  0  0  0
  -19.6650   19.3370   10.4270 C   0  0  0  0  0  3  0  0  0  0  0  0
  -18.7750   19.3150    9.3320 C   0  0  0  0  0  0  0  0  0  0  0  0
  -16.8140   17.6210    7.4440 H   0  0  0  0  0  0  0  0  0  0  0  0
  1  6  1  0  0  0  0
  2  7  2  0  0  0  0
  2  3  1  0  0  0  0
  3  4  2  0  0  0  0
  5  4  1  0  0  0  0
  6  7  1  0  0  0  0
  6  5  2  0  0  0  0
  9  8  1  0  0  0  0
 10  9  2  0  0  0  0
 11 10  1  0  0  0  0
 12 11  1  0  0  0  0
 12 17  1  0  0  0  0
 13 14  1  0  0  0  0
 13 12  2  0  0  0  0
 14 15  2  0  0  0  0
 15  2  1  0  0  0  0
 15 16  1  0  0  0  0
 17 16  2  0  0  0  0
 17  9  1  0  0  0  0
 18 11  1  0  0  0  0
 19  1  1  0  0  0  0
 20 25  1  6  0  0  0
 20 19  1  0  0  0  0
 21 24  1  0  0  0  0
 21 20  1  0  0  0  0
 22 21  1  0  0  0  0
 23 21  1  0  0  0  0
 25 26  1  0  0  0  0
 26 34  1  0  0  0  0
 27 28  1  0  0  0  0
 27 26  2  0  0  0  0
 28 29  1  0  0  0  0
 29 34  2  0  0  0  0
 29 30  1  0  0  0  0
 30 31  2  0  0  0  0
 31 32  1  0  0  0  0
 33 32  2  0  0  0  0
 34 33  1  0  0  0  0
 35 28  1  0  0  0  0
M  END
>  <minimizedAffinity>
-9.98004532

$$$$

 OpenBabel11232420483D

 35 39  0  0  1  0  0  0  0  0999 V2000
  -19.2030   21.8000   11.4340 O   0  0  0  0  0  0  0  0  0  0  0  0
  -21.4570   19.2410   12.9150 C   0  0  0  0  0  0  0  0  0  0  0  0
  -22.5390   20.0990   13.0960 C   0  0  0  0  0  3  0  0  0  0  0  0
  -22.5550   21.3950   12.7040 N   0  0  0  0  0  0  0  0  0  0  0  0
  -21.4380   21.8750   12.1150 C   0  0  0  0  0  3  0  0  0  0  0  0
  -20.2920   21.1230   11.8970 C   0  0  0  0  0  0  0  0  0  0  0  0
  -20.3350   19.7800   12.2620 C   0  0  0  0  0  3  0  0  0  0  0  0
  -18.0540   15.1660   15.3320 C   0  0  0  0  0  1  0  0  0  0  0  0
  -19.4870   15.0080   14.9810 C   0  0  0  0  0  0  0  0  0  0  0  0
  -20.1120   13.8470   15.2170 N   0  0  0  0  0  0  0  0  0  0  0  0
  -21.3660   14.0570   14.7940 N   0  0  0  0  0  0  0  0  0  0  0  0
  -21.5820   15.3140   14.3000 C   0  0  0  0  0  0  0  0  0  0  0  0
  -22.7120   15.9250   13.7850 C   0  0  0  0  0  3  0  0  0  0  0  0
  -22.6220   17.2130   13.3610 N   0  0  0  0  0  0  0  0  0  0  0  0
  -21.4230   17.8700   13.4420 C   0  0  0  0  0  0  0  0  0  0  0  0
  -20.2650   17.2910   13.9610 C   0  0  0  0  0  3  0  0  0  0  0  0
  -20.3620   15.9660   14.4020 C   0  0  0  0  0  0  0  0  0  0  0  0
  -22.0280   13.2930   14.8780 H   0  0  0  0  0  0  0  0  0  0  0  0
  -19.3870   22.9560   10.6090 C   0  0  0  0  0  2  0  0  0  0  0  0
  -18.5720   22.8500    9.2990 C   0  0  1  0  0  3  0  0  0  0  0  0
  -17.1460   22.4620    9.5880 N   0  0  0  0  0  4  0  0  0  0  0  0
  -17.0450   21.5290   10.0110 H   0  0  0  0  0  0  0  0  0  0  0  0
  -16.5620   22.4880    8.7420 H   0  0  0  0  0  0  0  0  0  0  0  0
  -16.7290   23.1340   10.2520 H   0  0  0  0  0  0  0  0  0  0  0  0
  -19.1700   21.8350    8.3120 C   0  0  0  0  0  2  0  0  0  0  0  0
  -18.3290   20.6100    8.1750 C   0  0  0  0  0  0  0  0  0  0  0  0
  -18.4550   19.4560    8.9250 C   0  0  0  0  0  3  0  0  0  0  0  0
  -17.5000   18.5660    8.5100 N   0  0  0  0  0  0  0  0  0  0  0  0
  -16.7400   19.1210    7.5090 C   0  0  0  0  0  0  0  0  0  0  0  0
  -15.6560   18.5820    6.8070 C   0  0  0  0  0  3  0  0  0  0  0  0
  -15.0700   19.3710    5.8160 C   0  0  0  0  0  3  0  0  0  0  0  0
  -15.5580   20.6450    5.5320 C   0  0  0  0  0  3  0  0  0  0  0  0
  -16.6470   21.1660    6.2410 C   0  0  0  0  0  3  0  0  0  0  0  0
  -17.2490   20.3950    7.2580 C   0  0  0  0  0  0  0  0  0  0  0  0
  -17.3670   17.6310    8.8780 H   0  0  0  0  0  0  0  0  0  0  0  0
  1  6  1  0  0  0  0
  2  3  1  0  0  0  0
  2 15  1  0  0  0  0
  4  3  2  0  0  0  0
  5  4  1  0  0  0  0
  6  5  2  0  0  0  0
  6  7  1  0  0  0  0
  7  2  2  0  0  0  0
  9 10  2  0  0  0  0
  9  8  1  0  0  0  0
 11 18  1  0  0  0  0
 11 10  1  0  0  0  0
 12 17  1  0  0  0  0
 12 11  1  0  0  0  0
 13 12  2  0  0  0  0
 14 15  2  0  0  0  0
 14 13  1  0  0  0  0
 15 16  1  0  0  0  0
 16 17  2  0  0  0  0
 17  9  1  0  0  0  0
 19  1  1  0  0  0  0
 20 25  1  6  0  0  0
 20 21  1  0  0  0  0
 20 19  1  0  0  0  0
 21 22  1  0  0  0  0
 21 24  1  0  0  0  0
 23 21  1  0  0  0  0
 26 25  1  0  0  0  0
 26 27  2  0  0  0  0
 28 35  1  0  0  0  0
 28 27  1  0  0  0  0
 29 28  1  0  0  0  0
 30 29  2  0  0  0  0
 31 30  1  0  0  0  0
 32 31  2  0  0  0  0
 32 33  1  0  0  0  0
 33 34  2  0  0  0  0
 34 29  1  0  0  0  0
 34 26  1  0  0  0  0
M  END
>  <minimizedAffinity>
-9.92184639

$$$$

 OpenBabel11232420483D

 35 39  0  0  1  0  0  0  0  0999 V2000
  -17.9580   24.1510    9.2130 O   0  0  0  0  0  0  0  0  0  0  0  0
  -17.7550   27.5290   10.7530 C   0  0  0  0  0  0  0  0  0  0  0  0
  -16.3850   27.4840   11.0010 C   0  0  0  0  0  3  0  0  0  0  0  0
  -15.5790   26.4600   10.6350 N   0  0  0  0  0  0  0  0  0  0  0  0
  -16.1580   25.4170   10.0020 C   0  0  0  0  0  3  0  0  0  0  0  0
  -17.5140   25.3380    9.7160 C   0  0  0  0  0  0  0  0  0  0  0  0
  -18.2990   26.4360   10.0570 C   0  0  0  0  0  3  0  0  0  0  0  0
  -19.5400   30.3590   15.5310 C   0  0  0  0  0  1  0  0  0  0  0  0
  -20.0140   30.6040   14.1460 C   0  0  0  0  0  0  0  0  0  0  0  0
  -20.9320   31.5480   13.9080 N   0  0  0  0  0  0  0  0  0  0  0  0
  -21.1140   31.5030   12.5810 N   0  0  0  0  0  0  0  0  0  0  0  0
  -20.3410   30.5690   11.9460 C   0  0  0  0  0  0  0  0  0  0  0  0
  -20.2200   30.2170   10.6140 C   0  0  0  0  0  3  0  0  0  0  0  0
  -19.3510   29.2300   10.2750 N   0  0  0  0  0  0  0  0  0  0  0  0
  -18.6260   28.6020   11.2520 C   0  0  0  0  0  0  0  0  0  0  0  0
  -18.7140   28.9320   12.6050 C   0  0  0  0  0  3  0  0  0  0  0  0
  -19.6070   29.9540   12.9500 C   0  0  0  0  0  0  0  0  0  0  0  0
  -21.7840   32.1450   12.1720 H   0  0  0  0  0  0  0  0  0  0  0  0
  -17.0730   23.0270    9.1650 C   0  0  0  0  0  2  0  0  0  0  0  0
  -17.4060   21.9980   10.2700 C   0  0  1  0  0  3  0  0  0  0  0  0
  -16.5830   22.2560   11.5050 N   0  0  0  0  0  4  0  0  0  0  0  0
  -16.7760   23.1630   11.9530 H   0  0  0  0  0  0  0  0  0  0  0  0
  -16.7140   21.5220   12.2130 H   0  0  0  0  0  0  0  0  0  0  0  0
  -15.5800   22.2540   11.2630 H   0  0  0  0  0  0  0  0  0  0  0  0
  -18.8940   22.0080   10.6570 C   0  0  0  0  0  2  0  0  0  0  0  0
  -19.3990   20.6480   11.0090 C   0  0  0  0  0  0  0  0  0  0  0  0
  -20.2060   20.3420   12.0880 C   0  0  0  0  0  3  0  0  0  0  0  0
  -20.4470   18.9930   12.0770 N   0  0  0  0  0  0  0  0  0  0  0  0
  -19.7990   18.4070   11.0160 C   0  0  0  0  0  0  0  0  0  0  0  0
  -19.7540   17.0630   10.6290 C   0  0  0  0  0  3  0  0  0  0  0  0
  -19.0220   16.7430    9.4840 C   0  0  0  0  0  3  0  0  0  0  0  0
  -18.3700   17.7320    8.7510 C   0  0  0  0  0  3  0  0  0  0  0  0
  -18.4300   19.0720    9.1500 C   0  0  0  0  0  3  0  0  0  0  0  0
  -19.1510   19.4220   10.3120 C   0  0  0  0  0  0  0  0  0  0  0  0
  -21.0190   18.4910   12.7460 H   0  0  0  0  0  0  0  0  0  0  0  0
  1  6  1  0  0  0  0
  2  3  1  0  0  0  0
  2 15  1  0  0  0  0
  4  3  2  0  0  0  0
  5  4  1  0  0  0  0
  6  5  2  0  0  0  0
  6  7  1  0  0  0  0
  7  2  2  0  0  0  0
  9  8  1  0  0  0  0
 10  9  2  0  0  0  0
 11 10  1  0  0  0  0
 12 11  1  0  0  0  0
 12 17  1  0  0  0  0
 13 12  2  0  0  0  0
 14 13  1  0  0  0  0
 14 15  2  0  0  0  0
 15 16  1  0  0  0  0
 16 17  2  0  0  0  0
 17  9  1  0  0  0  0
 18 11  1  0  0  0  0
 19  1  1  0  0  0  0
 20 19  1  6  0  0  0
 20 25  1  0  0  0  0
 20 21  1  0  0  0  0
 21 22  1  0  0  0  0
 21 23  1  0  0  0  0
 24 21  1  0  0  0  0
 25 26  1  0  0  0  0
 26 27  2  0  0  0  0
 28 27  1  0  0  0  0
 28 35  1  0  0  0  0
 29 28  1  0  0  0  0
 30 29  1  0  0  0  0
 31 30  2  0  0  0  0
 32 33  2  0  0  0  0
 32 31  1  0  0  0  0
 33 34  1  0  0  0  0
 34 26  1  0  0  0  0
 34 29  2  0  0  0  0
M  END
>  <minimizedAffinity>
-9.79538918

$$$$

 OpenBabel11232420483D

 35 39  0  0  1  0  0  0  0  0999 V2000
  -22.0470   31.2350   14.7870 O   0  0  0  0  0  0  0  0  0  0  0  0
  -19.8730   29.3750   12.4120 C   0  0  0  0  0  0  0  0  0  0  0  0
  -19.6220   30.4610   11.5770 C   0  0  0  0  0  3  0  0  0  0  0  0
  -20.0720   31.7170   11.8070 N   0  0  0  0  0  0  0  0  0  0  0  0
  -20.8230   31.9100   12.9130 C   0  0  0  0  0  3  0  0  0  0  0  0
  -21.1550   30.9040   13.8100 C   0  0  0  0  0  0  0  0  0  0  0  0
  -20.6260   29.6390   13.5690 C   0  0  0  0  0  3  0  0  0  0  0  0
  -15.5820   26.0970   10.2060 C   0  0  0  0  0  1  0  0  0  0  0  0
  -16.8980   25.6030   10.6810 C   0  0  0  0  0  0  0  0  0  0  0  0
  -17.1860   24.2970   10.6260 N   0  0  0  0  0  0  0  0  0  0  0  0
  -18.4240   24.2100   11.1320 N   0  0  0  0  0  0  0  0  0  0  0  0
  -18.9490   25.4120   11.5230 C   0  0  0  0  0  0  0  0  0  0  0  0
  -20.1630   25.7510   12.0920 C   0  0  0  0  0  3  0  0  0  0  0  0
  -20.4100   27.0560   12.3770 N   0  0  0  0  0  0  0  0  0  0  0  0
  -19.4630   28.0020   12.0880 C   0  0  0  0  0  0  0  0  0  0  0  0
  -18.2240   27.7000   11.5220 C   0  0  0  0  0  3  0  0  0  0  0  0
  -17.9710   26.3530   11.2350 C   0  0  0  0  0  0  0  0  0  0  0  0
  -18.8510   23.2920   11.1850 H   0  0  0  0  0  0  0  0  0  0  0  0
  -21.6170   31.2800   16.1520 C   0  0  0  0  0  2  0  0  0  0  0  0
  -21.1040   32.6870   16.5350 C   0  0  1  0  0  3  0  0  0  0  0  0
  -21.9220   33.2660   17.6590 N   0  0  0  0  0  4  0  0  0  0  0  0
  -21.8540   32.7360   18.5390 H   0  0  0  0  0  0  0  0  0  0  0  0
  -21.6640   34.2410   17.8590 H   0  0  0  0  0  0  0  0  0  0  0  0
  -22.9200   33.2750   17.3950 H   0  0  0  0  0  0  0  0  0  0  0  0
  -19.6240   32.6830   16.9520 C   0  0  0  0  0  2  0  0  0  0  0  0
  -18.7020   32.7700   15.7810 C   0  0  0  0  0  0  0  0  0  0  0  0
  -18.4320   33.9100   15.0490 C   0  0  0  0  0  3  0  0  0  0  0  0
  -17.5480   33.5850   14.0540 N   0  0  0  0  0  0  0  0  0  0  0  0
  -17.2450   32.2460   14.1120 C   0  0  0  0  0  0  0  0  0  0  0  0
  -16.4050   31.4840   13.2920 C   0  0  0  0  0  3  0  0  0  0  0  0
  -16.2650   30.1270   13.5910 C   0  0  0  0  0  3  0  0  0  0  0  0
  -16.9310   29.5600   14.6750 C   0  0  0  0  0  3  0  0  0  0  0  0
  -17.7630   30.3380   15.4880 C   0  0  0  0  0  3  0  0  0  0  0  0
  -17.9350   31.7090   15.1990 C   0  0  0  0  0  0  0  0  0  0  0  0
  -17.1650   34.2290   13.3720 H   0  0  0  0  0  0  0  0  0  0  0  0
  1 19  1  0  0  0  0
  2  7  1  0  0  0  0
  3  4  1  0  0  0  0
  3  2  2  0  0  0  0
  4  5  2  0  0  0  0
  5  6  1  0  0  0  0
  6  1  1  0  0  0  0
  7  6  2  0  0  0  0
  8  9  1  0  0  0  0
  9 17  1  0  0  0  0
 10  9  2  0  0  0  0
 10 11  1  0  0  0  0
 11 18  1  0  0  0  0
 11 12  1  0  0  0  0
 12 13  1  0  0  0  0
 13 14  2  0  0  0  0
 15 14  1  0  0  0  0
 15  2  1  0  0  0  0
 16 15  2  0  0  0  0
 17 16  1  0  0  0  0
 17 12  2  0  0  0  0
 20 19  1  1  0  0  0
 20 25  1  0  0  0  0
 20 21  1  0  0  0  0
 21 23  1  0  0  0  0
 21 22  1  0  0  0  0
 24 21  1  0  0  0  0
 26 25  1  0  0  0  0
 27 26  2  0  0  0  0
 28 29  1  0  0  0  0
 28 27  1  0  0  0  0
 29 34  1  0  0  0  0
 30 31  1  0  0  0  0
 30 29  2  0  0  0  0
 31 32  2  0  0  0  0
 32 33  1  0  0  0  0
 34 33  2  0  0  0  0
 34 26  1  0  0  0  0
 35 28  1  0  0  0  0
M  END
>  <minimizedAffinity>
-9.71352482

$$$$

 OpenBabel11232420483D

 35 39  0  0  1  0  0  0  0  0999 V2000
  -17.2180   24.4250   10.7920 O   0  0  0  0  0  0  0  0  0  0  0  0
  -19.5460   27.0960   11.9210 C   0  0  0  0  0  0  0  0  0  0  0  0
  -20.6910   26.3050   11.8810 C   0  0  0  0  0  3  0  0  0  0  0  0
  -20.6950   24.9860   11.5740 N   0  0  0  0  0  0  0  0  0  0  0  0
  -19.5050   24.4200   11.2760 C   0  0  0  0  0  3  0  0  0  0  0  0
  -18.3000   25.1080   11.2650 C   0  0  0  0  0  0  0  0  0  0  0  0
  -18.3300   26.4470   11.6420 C   0  0  0  0  0  3  0  0  0  0  0  0
  -17.1340   32.1970   10.4450 C   0  0  0  0  0  1  0  0  0  0  0  0
  -18.2100   32.0010   11.4470 C   0  0  0  0  0  0  0  0  0  0  0  0
  -18.7160   33.0520   12.1040 N   0  0  0  0  0  0  0  0  0  0  0  0
  -19.6510   32.5210   12.9040 N   0  0  0  0  0  0  0  0  0  0  0  0
  -19.7780   31.1640   12.7850 C   0  0  0  0  0  0  0  0  0  0  0  0
  -20.6140   30.2540   13.4080 C   0  0  0  0  0  3  0  0  0  0  0  0
  -20.5090   28.9400   13.0800 N   0  0  0  0  0  0  0  0  0  0  0  0
  -19.5790   28.5460   12.1540 C   0  0  0  0  0  0  0  0  0  0  0  0
  -18.7240   29.4330   11.5000 C   0  0  0  0  0  3  0  0  0  0  0  0
  -18.8390   30.7880   11.8360 C   0  0  0  0  0  0  0  0  0  0  0  0
  -20.1710   33.1500   13.5070 H   0  0  0  0  0  0  0  0  0  0  0  0
  -17.1940   23.9950    9.4260 C   0  0  0  0  0  2  0  0  0  0  0  0
  -16.9910   22.4660    9.3200 C   0  0  1  0  0  3  0  0  0  0  0  0
  -16.6450   21.8780   10.6630 N   0  0  0  0  0  4  0  0  0  0  0  0
  -17.3920   21.9740   11.3650 H   0  0  0  0  0  0  0  0  0  0  0  0
  -16.4050   20.8810   10.5950 H   0  0  0  0  0  0  0  0  0  0  0  0
  -15.8140   22.3540   11.0480 H   0  0  0  0  0  0  0  0  0  0  0  0
  -18.2310   21.7430    8.7690 C   0  0  0  0  0  2  0  0  0  0  0  0
  -18.0560   20.2610    8.7300 C   0  0  0  0  0  0  0  0  0  0  0  0
  -17.2240   19.5680    7.8700 C   0  0  0  0  0  3  0  0  0  0  0  0
  -17.3460   18.2300    8.1370 N   0  0  0  0  0  0  0  0  0  0  0  0
  -18.2550   18.0320    9.1480 C   0  0  0  0  0  0  0  0  0  0  0  0
  -18.6980   16.8380    9.7300 C   0  0  0  0  0  3  0  0  0  0  0  0
  -19.6290   16.9290   10.7660 C   0  0  0  0  0  3  0  0  0  0  0  0
  -20.0900   18.1670   11.2090 C   0  0  0  0  0  3  0  0  0  0  0  0
  -19.6330   19.3510   10.6180 C   0  0  0  0  0  3  0  0  0  0  0  0
  -18.7020   19.2870    9.5590 C   0  0  0  0  0  0  0  0  0  0  0  0
  -16.8430   17.4870    7.6670 H   0  0  0  0  0  0  0  0  0  0  0  0
  1  6  1  0  0  0  0
  2 15  1  0  0  0  0
  3  2  1  0  0  0  0
  4  3  2  0  0  0  0
  5  4  1  0  0  0  0
  6  5  2  0  0  0  0
  6  7  1  0  0  0  0
  7  2  2  0  0  0  0
  8  9  1  0  0  0  0
  9 17  1  0  0  0  0
  9 10  2  0  0  0  0
 10 11  1  0  0  0  0
 11 18  1  0  0  0  0
 12 11  1  0  0  0  0
 12 13  1  0  0  0  0
 14 13  2  0  0  0  0
 15 14  1  0  0  0  0
 16 17  1  0  0  0  0
 16 15  2  0  0  0  0
 17 12  2  0  0  0  0
 19  1  1  0  0  0  0
 20 25  1  1  0  0  0
 20 19  1  0  0  0  0
 20 21  1  0  0  0  0
 21 24  1  0  0  0  0
 21 22  1  0  0  0  0
 23 21  1  0  0  0  0
 26 25  1  0  0  0  0
 26 34  1  0  0  0  0
 27 28  1  0  0  0  0
 27 26  2  0  0  0  0
 28 29  1  0  0  0  0
 29 34  2  0  0  0  0
 29 30  1  0  0  0  0
 30 31  2  0  0  0  0
 31 32  1  0  0  0  0
 33 32  2  0  0  0  0
 34 33  1  0  0  0  0
 35 28  1  0  0  0  0
M  END
>  <minimizedAffinity>
-9.5096159

$$$$
