
 OpenBabel11232420483D

 35 39  0  0  1  0  0  0  0  0999 V2000
  -17.9580   24.1510    9.2130 O   0  0  0  0  0  0  0  0  0  0  0  0
  -17.7550   27.5290   10.7530 C   0  0  0  0  0  0  0  0  0  0  0  0
  -16.3850   27.4840   11.0010 C   0  0  0  0  0  3  0  0  0  0  0  0
  -15.5790   26.4600   10.6350 N   0  0  0  0  0  0  0  0  0  0  0  0
  -16.1580   25.4170   10.0020 C   0  0  0  0  0  3  0  0  0  0  0  0
  -17.5140   25.3380    9.7160 C   0  0  0  0  0  0  0  0  0  0  0  0
  -18.2990   26.4360   10.0570 C   0  0  0  0  0  3  0  0  0  0  0  0
  -19.5400   30.3590   15.5310 C   0  0  0  0  0  1  0  0  0  0  0  0
  -20.0140   30.6040   14.1460 C   0  0  0  0  0  0  0  0  0  0  0  0
  -20.9320   31.5480   13.9080 N   0  0  0  0  0  0  0  0  0  0  0  0
  -21.1140   31.5030   12.5810 N   0  0  0  0  0  0  0  0  0  0  0  0
  -20.3410   30.5690   11.9460 C   0  0  0  0  0  0  0  0  0  0  0  0
  -20.2200   30.2170   10.6140 C   0  0  0  0  0  3  0  0  0  0  0  0
  -19.3510   29.2300   10.2750 N   0  0  0  0  0  0  0  0  0  0  0  0
  -18.6260   28.6020   11.2520 C   0  0  0  0  0  0  0  0  0  0  0  0
  -18.7140   28.9320   12.6050 C   0  0  0  0  0  3  0  0  0  0  0  0
  -19.6070   29.9540   12.9500 C   0  0  0  0  0  0  0  0  0  0  0  0
  -21.7840   32.1450   12.1720 H   0  0  0  0  0  0  0  0  0  0  0  0
  -17.0730   23.0270    9.1650 C   0  0  0  0  0  2  0  0  0  0  0  0
  -17.4060   21.9980   10.2700 C   0  0  1  0  0  3  0  0  0  0  0  0
  -16.5830   22.2560   11.5050 N   0  0  0  0  0  4  0  0  0  0  0  0
  -16.7760   23.1630   11.9530 H   0  0  0  0  0  0  0  0  0  0  0  0
  -16.7140   21.5220   12.2130 H   0  0  0  0  0  0  0  0  0  0  0  0
  -15.5800   22.2540   11.2630 H   0  0  0  0  0  0  0  0  0  0  0  0
  -18.8940   22.0080   10.6570 C   0  0  0  0  0  2  0  0  0  0  0  0
  -19.3990   20.6480   11.0090 C   0  0  0  0  0  0  0  0  0  0  0  0
  -20.2060   20.3420   12.0880 C   0  0  0  0  0  3  0  0  0  0  0  0
  -20.4470   18.9930   12.0770 N   0  0  0  0  0  0  0  0  0  0  0  0
  -19.7990   18.4070   11.0160 C   0  0  0  0  0  0  0  0  0  0  0  0
  -19.7540   17.0630   10.6290 C   0  0  0  0  0  3  0  0  0  0  0  0
  -19.0220   16.7430    9.4840 C   0  0  0  0  0  3  0  0  0  0  0  0
  -18.3700   17.7320    8.7510 C   0  0  0  0  0  3  0  0  0  0  0  0
  -18.4300   19.0720    9.1500 C   0  0  0  0  0  3  0  0  0  0  0  0
  -19.1510   19.4220   10.3120 C   0  0  0  0  0  0  0  0  0  0  0  0
  -21.0190   18.4910   12.7460 H   0  0  0  0  0  0  0  0  0  0  0  0
  1  6  1  0  0  0  0
  2  3  1  0  0  0  0
  2 15  1  0  0  0  0
  4  3  2  0  0  0  0
  5  4  1  0  0  0  0
  6  5  2  0  0  0  0
  6  7  1  0  0  0  0
  7  2  2  0  0  0  0
  9  8  1  0  0  0  0
 10  9  2  0  0  0  0
 11 10  1  0  0  0  0
 12 11  1  0  0  0  0
 12 17  1  0  0  0  0
 13 12  2  0  0  0  0
 14 13  1  0  0  0  0
 14 15  2  0  0  0  0
 15 16  1  0  0  0  0
 16 17  2  0  0  0  0
 17  9  1  0  0  0  0
 18 11  1  0  0  0  0
 19  1  1  0  0  0  0
 20 19  1  6  0  0  0
 20 25  1  0  0  0  0
 20 21  1  0  0  0  0
 21 22  1  0  0  0  0
 21 23  1  0  0  0  0
 24 21  1  0  0  0  0
 25 26  1  0  0  0  0
 26 27  2  0  0  0  0
 28 27  1  0  0  0  0
 28 35  1  0  0  0  0
 29 28  1  0  0  0  0
 30 29  1  0  0  0  0
 31 30  2  0  0  0  0
 32 33  2  0  0  0  0
 32 31  1  0  0  0  0
 33 34  1  0  0  0  0
 34 26  1  0  0  0  0
 34 29  2  0  0  0  0
M  END
>  <minimizedAffinity>
-9.79538918

$$$$
