
 OpenBabel11232420483D

 35 39  0  0  1  0  0  0  0  0999 V2000
  -18.5880   20.1640    8.8980 O   0  0  0  0  0  0  0  0  0  0  0  0
  -20.1470   18.4830   11.8250 C   0  0  0  0  0  0  0  0  0  0  0  0
  -19.9200   17.1860   11.3740 C   0  0  0  0  0  3  0  0  0  0  0  0
  -19.2520   16.8810   10.2360 N   0  0  0  0  0  0  0  0  0  0  0  0
  -18.7950   17.9140    9.4960 C   0  0  0  0  0  3  0  0  0  0  0  0
  -18.9740   19.2490    9.8310 C   0  0  0  0  0  0  0  0  0  0  0  0
  -19.6150   19.5190   11.0370 C   0  0  0  0  0  3  0  0  0  0  0  0
  -21.1580   17.0820   17.3960 C   0  0  0  0  0  1  0  0  0  0  0  0
  -21.8910   18.1040   16.6090 C   0  0  0  0  0  0  0  0  0  0  0  0
  -22.8830   18.8030   17.1740 N   0  0  0  0  0  0  0  0  0  0  0  0
  -23.3050   19.6220   16.2000 N   0  0  0  0  0  0  0  0  0  0  0  0
  -22.6160   19.4880   15.0260 C   0  0  0  0  0  0  0  0  0  0  0  0
  -22.7270   20.1370   13.8090 C   0  0  0  0  0  3  0  0  0  0  0  0
  -21.8870   19.7830   12.8010 N   0  0  0  0  0  0  0  0  0  0  0  0
  -20.9640   18.7930   13.0070 C   0  0  0  0  0  0  0  0  0  0  0  0
  -20.8160   18.1200   14.2200 C   0  0  0  0  0  3  0  0  0  0  0  0
  -21.6800   18.4910   15.2580 C   0  0  0  0  0  0  0  0  0  0  0  0
  -24.0700   20.2540   16.4110 H   0  0  0  0  0  0  0  0  0  0  0  0
  -17.3440   20.8560    9.0580 C   0  0  0  0  0  2  0  0  0  0  0  0
  -17.4610   21.9940   10.0980 C   0  0  1  0  0  3  0  0  0  0  0  0
  -16.2950   21.9700   11.0500 N   0  0  0  0  0  4  0  0  0  0  0  0
  -15.3860   22.1470   10.6000 H   0  0  0  0  0  0  0  0  0  0  0  0
  -16.4070   22.6530   11.8110 H   0  0  0  0  0  0  0  0  0  0  0  0
  -16.2290   21.0420   11.4960 H   0  0  0  0  0  0  0  0  0  0  0  0
  -17.5380   23.3840    9.4450 C   0  0  0  0  0  2  0  0  0  0  0  0
  -18.7100   24.1750    9.9250 C   0  0  0  0  0  0  0  0  0  0  0  0
  -20.0380   23.8310    9.7600 C   0  0  0  0  0  3  0  0  0  0  0  0
  -20.8110   24.8090   10.3280 N   0  0  0  0  0  0  0  0  0  0  0  0
  -20.0110   25.7970   10.8500 C   0  0  0  0  0  0  0  0  0  0  0  0
  -20.3680   26.9830   11.5040 C   0  0  0  0  0  3  0  0  0  0  0  0
  -19.3370   27.8100   11.9520 C   0  0  0  0  0  3  0  0  0  0  0  0
  -18.0030   27.4590   11.7630 C   0  0  0  0  0  3  0  0  0  0  0  0
  -17.6640   26.2670   11.1110 C   0  0  0  0  0  3  0  0  0  0  0  0
  -18.6860   25.4190   10.6350 C   0  0  0  0  0  0  0  0  0  0  0  0
  -21.8230   24.8130   10.3660 H   0  0  0  0  0  0  0  0  0  0  0  0
  1 19  1  0  0  0  0
  1  6  1  0  0  0  0
  2 15  1  0  0  0  0
  3  2  1  0  0  0  0
  4  3  2  0  0  0  0
  5  6  2  0  0  0  0
  5  4  1  0  0  0  0
  6  7  1  0  0  0  0
  7  2  2  0  0  0  0
  9 10  2  0  0  0  0
  9  8  1  0  0  0  0
 11 18  1  0  0  0  0
 11 10  1  0  0  0  0
 12 17  1  0  0  0  0
 12 11  1  0  0  0  0
 13 12  2  0  0  0  0
 14 15  2  0  0  0  0
 14 13  1  0  0  0  0
 15 16  1  0  0  0  0
 16 17  2  0  0  0  0
 17  9  1  0  0  0  0
 20 19  1  6  0  0  0
 20 21  1  0  0  0  0
 21 24  1  0  0  0  0
 21 23  1  0  0  0  0
 22 21  1  0  0  0  0
 25 26  1  0  0  0  0
 25 20  1  0  0  0  0
 26 34  1  0  0  0  0
 27 26  2  0  0  0  0
 27 28  1  0  0  0  0
 28 35  1  0  0  0  0
 28 29  1  0  0  0  0
 29 30  1  0  0  0  0
 30 31  2  0  0  0  0
 32 31  1  0  0  0  0
 33 32  2  0  0  0  0
 34 29  2  0  0  0  0
 34 33  1  0  0  0  0
M  END
>  <minimizedAffinity>
-10.0903883

$$$$
