
 OpenBabel11232420483D

 35 39  0  0  1  0  0  0  0  0999 V2000
  -17.2180   24.4250   10.7920 O   0  0  0  0  0  0  0  0  0  0  0  0
  -19.5460   27.0960   11.9210 C   0  0  0  0  0  0  0  0  0  0  0  0
  -20.6910   26.3050   11.8810 C   0  0  0  0  0  3  0  0  0  0  0  0
  -20.6950   24.9860   11.5740 N   0  0  0  0  0  0  0  0  0  0  0  0
  -19.5050   24.4200   11.2760 C   0  0  0  0  0  3  0  0  0  0  0  0
  -18.3000   25.1080   11.2650 C   0  0  0  0  0  0  0  0  0  0  0  0
  -18.3300   26.4470   11.6420 C   0  0  0  0  0  3  0  0  0  0  0  0
  -17.1340   32.1970   10.4450 C   0  0  0  0  0  1  0  0  0  0  0  0
  -18.2100   32.0010   11.4470 C   0  0  0  0  0  0  0  0  0  0  0  0
  -18.7160   33.0520   12.1040 N   0  0  0  0  0  0  0  0  0  0  0  0
  -19.6510   32.5210   12.9040 N   0  0  0  0  0  0  0  0  0  0  0  0
  -19.7780   31.1640   12.7850 C   0  0  0  0  0  0  0  0  0  0  0  0
  -20.6140   30.2540   13.4080 C   0  0  0  0  0  3  0  0  0  0  0  0
  -20.5090   28.9400   13.0800 N   0  0  0  0  0  0  0  0  0  0  0  0
  -19.5790   28.5460   12.1540 C   0  0  0  0  0  0  0  0  0  0  0  0
  -18.7240   29.4330   11.5000 C   0  0  0  0  0  3  0  0  0  0  0  0
  -18.8390   30.7880   11.8360 C   0  0  0  0  0  0  0  0  0  0  0  0
  -20.1710   33.1500   13.5070 H   0  0  0  0  0  0  0  0  0  0  0  0
  -17.1940   23.9950    9.4260 C   0  0  0  0  0  2  0  0  0  0  0  0
  -16.9910   22.4660    9.3200 C   0  0  1  0  0  3  0  0  0  0  0  0
  -16.6450   21.8780   10.6630 N   0  0  0  0  0  4  0  0  0  0  0  0
  -17.3920   21.9740   11.3650 H   0  0  0  0  0  0  0  0  0  0  0  0
  -16.4050   20.8810   10.5950 H   0  0  0  0  0  0  0  0  0  0  0  0
  -15.8140   22.3540   11.0480 H   0  0  0  0  0  0  0  0  0  0  0  0
  -18.2310   21.7430    8.7690 C   0  0  0  0  0  2  0  0  0  0  0  0
  -18.0560   20.2610    8.7300 C   0  0  0  0  0  0  0  0  0  0  0  0
  -17.2240   19.5680    7.8700 C   0  0  0  0  0  3  0  0  0  0  0  0
  -17.3460   18.2300    8.1370 N   0  0  0  0  0  0  0  0  0  0  0  0
  -18.2550   18.0320    9.1480 C   0  0  0  0  0  0  0  0  0  0  0  0
  -18.6980   16.8380    9.7300 C   0  0  0  0  0  3  0  0  0  0  0  0
  -19.6290   16.9290   10.7660 C   0  0  0  0  0  3  0  0  0  0  0  0
  -20.0900   18.1670   11.2090 C   0  0  0  0  0  3  0  0  0  0  0  0
  -19.6330   19.3510   10.6180 C   0  0  0  0  0  3  0  0  0  0  0  0
  -18.7020   19.2870    9.5590 C   0  0  0  0  0  0  0  0  0  0  0  0
  -16.8430   17.4870    7.6670 H   0  0  0  0  0  0  0  0  0  0  0  0
  1  6  1  0  0  0  0
  2 15  1  0  0  0  0
  3  2  1  0  0  0  0
  4  3  2  0  0  0  0
  5  4  1  0  0  0  0
  6  5  2  0  0  0  0
  6  7  1  0  0  0  0
  7  2  2  0  0  0  0
  8  9  1  0  0  0  0
  9 17  1  0  0  0  0
  9 10  2  0  0  0  0
 10 11  1  0  0  0  0
 11 18  1  0  0  0  0
 12 11  1  0  0  0  0
 12 13  1  0  0  0  0
 14 13  2  0  0  0  0
 15 14  1  0  0  0  0
 16 17  1  0  0  0  0
 16 15  2  0  0  0  0
 17 12  2  0  0  0  0
 19  1  1  0  0  0  0
 20 25  1  1  0  0  0
 20 19  1  0  0  0  0
 20 21  1  0  0  0  0
 21 24  1  0  0  0  0
 21 22  1  0  0  0  0
 23 21  1  0  0  0  0
 26 25  1  0  0  0  0
 26 34  1  0  0  0  0
 27 28  1  0  0  0  0
 27 26  2  0  0  0  0
 28 29  1  0  0  0  0
 29 34  2  0  0  0  0
 29 30  1  0  0  0  0
 30 31  2  0  0  0  0
 31 32  1  0  0  0  0
 33 32  2  0  0  0  0
 34 33  1  0  0  0  0
 35 28  1  0  0  0  0
M  END
>  <minimizedAffinity>
-9.5096159

$$$$
