
 OpenBabel10152419383D

 39 42  0  0  1  0  0  0  0  0999 V2000
   -1.7610   -7.3520  -23.6930 C   0  0  0  0  0  0  0  0  0  0  0  0
   -1.2300   -6.7280  -22.5600 C   0  0  0  0  0  3  0  0  0  0  0  0
   -0.4530   -5.5790  -22.6960 C   0  0  0  0  0  3  0  0  0  0  0  0
   -0.2410   -5.0080  -23.9560 C   0  0  0  0  0  3  0  0  0  0  0  0
   -0.7450   -5.6170  -25.1030 C   0  0  0  0  0  0  0  0  0  0  0  0
   -1.4440   -6.8190  -24.9570 C   0  0  0  0  0  3  0  0  0  0  0  0
   -0.7290   -5.0730  -26.4040 N   0  0  0  0  0  0  0  0  0  0  0  0
    0.1670   -5.1450  -27.4420 C   0  0  0  0  0  0  0  0  0  0  0  0
    0.0840   -4.3730  -28.3940 O   0  0  0  0  0  0  0  0  0  0  0  0
   -1.4680   -4.4120  -26.6190 H   0  0  0  0  0  0  0  0  0  0  0  0
    1.1840   -6.1890  -27.4820 C   0  0  0  0  0  0  0  0  0  0  0  0
    2.0140   -6.3260  -28.5920 C   0  0  0  0  0  3  0  0  0  0  0  0
    2.9120   -7.3870  -28.6270 C   0  0  0  0  0  3  0  0  0  0  0  0
    2.9540   -8.2850  -27.5550 C   0  0  0  0  0  0  0  0  0  0  0  0
    2.1740   -8.1150  -26.4420 N   0  0  0  0  0  0  0  0  0  0  0  0
    1.3200   -7.0640  -26.4200 C   0  0  0  0  0  3  0  0  0  0  0  0
    3.8890   -9.4880  -27.6270 C   0  0  0  0  0  0  0  0  0  0  0  0
    3.2270  -10.6770  -27.6770 F   0  0  0  0  0  0  0  0  0  0  0  0
    4.7180   -9.4650  -28.7090 F   0  0  0  0  0  0  0  0  0  0  0  0
    4.7180   -9.5780  -26.5430 F   0  0  0  0  0  0  0  0  0  0  0  0
   -4.2120   -7.9270  -23.3850 C   0  0  0  0  0  1  0  0  0  0  0  0
   -2.7950   -8.4720  -23.6070 C   0  0  1  0  0  3  0  0  0  0  0  0
   -2.8030   -9.3300  -24.8050 N   0  0  0  0  0  0  0  0  0  0  0  0
   -3.0930   -8.8390  -25.6470 H   0  0  0  0  0  0  0  0  0  0  0  0
   -1.7250  -10.1260  -25.1650 C   0  0  0  0  0  0  0  0  0  0  0  0
   -1.3590   -9.9300  -26.4400 N   0  0  0  0  0  0  0  0  0  0  0  0
   -0.2090  -10.4830  -26.8150 C   0  0  0  0  0  3  0  0  0  0  0  0
    0.6110  -11.2000  -26.0380 N   0  0  0  0  0  0  0  0  0  0  0  0
    0.2180  -11.4580  -24.7700 C   0  0  0  0  0  0  0  0  0  0  0  0
    1.0180  -12.1970  -23.8720 C   0  0  0  0  0  0  0  0  0  0  0  0
    0.5670  -12.5040  -22.5730 C   0  0  0  0  0  3  0  0  0  0  0  0
   -0.6930  -12.1100  -22.1520 C   0  0  0  0  0  3  0  0  0  0  0  0
   -1.4830  -11.3610  -23.0120 C   0  0  0  0  0  3  0  0  0  0  0  0
   -1.0200  -10.9800  -24.2970 C   0  0  0  0  0  0  0  0  0  0  0  0
    2.3880  -12.6950  -24.2150 C   0  0  0  0  0  0  0  0  0  0  0  0
    2.6800  -12.9520  -25.5210 N   0  0  0  0  0  0  0  0  0  0  0  0
    3.2430  -12.8690  -23.3530 O   0  0  0  0  0  0  0  0  0  0  0  0
    3.6020  -13.2880  -25.7610 H   0  0  0  0  0  0  0  0  0  0  0  0
    1.9800  -12.8260  -26.2450 H   0  0  0  0  0  0  0  0  0  0  0  0
  1 22  1  0  0  0  0
  1  2  1  0  0  0  0
  3  2  2  0  0  0  0
  4  3  1  0  0  0  0
  5  6  1  0  0  0  0
  5  4  2  0  0  0  0
  6  1  2  0  0  0  0
  7  5  1  0  0  0  0
  8  7  1  0  0  0  0
  9  8  2  0  0  0  0
 10  7  1  0  0  0  0
 11  8  1  0  0  0  0
 11 16  1  0  0  0  0
 12 11  2  0  0  0  0
 13 12  1  0  0  0  0
 13 14  2  0  0  0  0
 14 15  1  0  0  0  0
 15 16  2  0  0  0  0
 17 14  1  0  0  0  0
 17 20  1  0  0  0  0
 18 17  1  0  0  0  0
 19 17  1  0  0  0  0
 22 21  1  6  0  0  0
 23 22  1  0  0  0  0
 24 23  1  0  0  0  0
 25 23  1  0  0  0  0
 25 34  1  0  0  0  0
 26 25  2  0  0  0  0
 27 26  1  0  0  0  0
 27 28  2  0  0  0  0
 28 29  1  0  0  0  0
 29 34  2  0  0  0  0
 29 30  1  0  0  0  0
 30 31  2  0  0  0  0
 31 32  1  0  0  0  0
 33 32  2  0  0  0  0
 34 33  1  0  0  0  0
 35 30  1  0  0  0  0
 35 37  2  0  0  0  0
 36 35  1  0  0  0  0
 38 36  1  0  0  0  0
 39 36  1  0  0  0  0
M  END
>  <minimizedAffinity>
-7.25418139

$$$$
