
 OpenBabel10152419383D

 39 42  0  0  1  0  0  0  0  0999 V2000
    2.4310  -10.1830  -26.1000 C   0  0  0  0  0  0  0  0  0  0  0  0
    2.6650  -10.8740  -27.2930 C   0  0  0  0  0  3  0  0  0  0  0  0
    2.4960  -12.2570  -27.3430 C   0  0  0  0  0  3  0  0  0  0  0  0
    2.0410  -12.9590  -26.2210 C   0  0  0  0  0  3  0  0  0  0  0  0
    1.8150  -12.2990  -25.0160 C   0  0  0  0  0  0  0  0  0  0  0  0
    2.0780  -10.9260  -24.9570 C   0  0  0  0  0  3  0  0  0  0  0  0
    1.2230  -12.8560  -23.8640 N   0  0  0  0  0  0  0  0  0  0  0  0
    0.3770  -12.3550  -22.9050 C   0  0  0  0  0  0  0  0  0  0  0  0
    0.1990  -12.9590  -21.8500 O   0  0  0  0  0  0  0  0  0  0  0  0
    1.5380  -13.7860  -23.6070 H   0  0  0  0  0  0  0  0  0  0  0  0
   -0.3940  -11.1430  -23.1490 C   0  0  0  0  0  0  0  0  0  0  0  0
   -0.5290  -10.1780  -22.1530 C   0  0  0  0  0  3  0  0  0  0  0  0
   -1.3430   -9.0760  -22.3950 C   0  0  0  0  0  3  0  0  0  0  0  0
   -2.0040   -8.9710  -23.6230 C   0  0  0  0  0  0  0  0  0  0  0  0
   -1.8270   -9.8940  -24.6190 N   0  0  0  0  0  0  0  0  0  0  0  0
   -1.0140  -10.9490  -24.3700 C   0  0  0  0  0  3  0  0  0  0  0  0
   -2.9520   -7.8000  -23.8610 C   0  0  0  0  0  0  0  0  0  0  0  0
   -2.7330   -7.1670  -25.0460 F   0  0  0  0  0  0  0  0  0  0  0  0
   -4.2680   -8.1590  -23.8550 F   0  0  0  0  0  0  0  0  0  0  0  0
   -2.8430   -6.8290  -22.9040 F   0  0  0  0  0  0  0  0  0  0  0  0
    3.7540   -8.0250  -26.2780 C   0  0  0  0  0  1  0  0  0  0  0  0
    2.3780   -8.6590  -26.0290 C   0  0  1  0  0  3  0  0  0  0  0  0
    1.4140   -8.0800  -26.9810 N   0  0  0  0  0  0  0  0  0  0  0  0
    0.5010   -8.5280  -26.9480 H   0  0  0  0  0  0  0  0  0  0  0  0
    1.1790   -6.7160  -27.0750 C   0  0  0  0  0  0  0  0  0  0  0  0
    1.4920   -6.2330  -28.2850 N   0  0  0  0  0  0  0  0  0  0  0  0
    1.1040   -4.9870  -28.5420 C   0  0  0  0  0  3  0  0  0  0  0  0
    0.4250   -4.1870  -27.7130 N   0  0  0  0  0  0  0  0  0  0  0  0
    0.1610   -4.6420  -26.4670 C   0  0  0  0  0  0  0  0  0  0  0  0
   -0.5560   -3.8760  -25.5240 C   0  0  0  0  0  0  0  0  0  0  0  0
   -0.7730   -4.3430  -24.2130 C   0  0  0  0  0  3  0  0  0  0  0  0
   -0.2570   -5.5630  -23.8050 C   0  0  0  0  0  3  0  0  0  0  0  0
    0.4300   -6.3410  -24.7260 C   0  0  0  0  0  3  0  0  0  0  0  0
    0.5960   -5.9210  -26.0700 C   0  0  0  0  0  0  0  0  0  0  0  0
   -1.1460   -2.5350  -25.8360 C   0  0  0  0  0  0  0  0  0  0  0  0
   -0.6690   -1.8480  -26.9120 N   0  0  0  0  0  0  0  0  0  0  0  0
   -2.0430   -2.0520  -25.1530 O   0  0  0  0  0  0  0  0  0  0  0  0
   -1.0620   -0.9430  -27.1300 H   0  0  0  0  0  0  0  0  0  0  0  0
    0.0820   -2.2270  -27.4810 H   0  0  0  0  0  0  0  0  0  0  0  0
  1 22  1  0  0  0  0
  1  6  1  0  0  0  0
  2  1  2  0  0  0  0
  3  2  1  0  0  0  0
  3  4  2  0  0  0  0
  4  5  1  0  0  0  0
  5  6  2  0  0  0  0
  5  7  1  0  0  0  0
  7 10  1  0  0  0  0
  7  8  1  0  0  0  0
  8  9  2  0  0  0  0
 11  8  1  0  0  0  0
 11 12  1  0  0  0  0
 13 12  2  0  0  0  0
 14 13  1  0  0  0  0
 15 16  1  0  0  0  0
 15 14  2  0  0  0  0
 16 11  2  0  0  0  0
 17 19  1  0  0  0  0
 17 14  1  0  0  0  0
 17 20  1  0  0  0  0
 18 17  1  0  0  0  0
 22 21  1  6  0  0  0
 23 24  1  0  0  0  0
 23 22  1  0  0  0  0
 25 23  1  0  0  0  0
 25 34  1  0  0  0  0
 26 25  2  0  0  0  0
 27 26  1  0  0  0  0
 27 28  2  0  0  0  0
 28 29  1  0  0  0  0
 29 34  2  0  0  0  0
 29 30  1  0  0  0  0
 30 31  2  0  0  0  0
 31 32  1  0  0  0  0
 33 32  2  0  0  0  0
 34 33  1  0  0  0  0
 35 30  1  0  0  0  0
 35 37  2  0  0  0  0
 36 35  1  0  0  0  0
 38 36  1  0  0  0  0
 39 36  1  0  0  0  0
M  END
>  <minimizedAffinity>
-8.75858021

$$$$
