
 OpenBabel10152419383D

 39 42  0  0  1  0  0  0  0  0999 V2000
    4.3560   -9.9460  -27.6030 C   0  0  0  0  0  0  0  0  0  0  0  0
    4.4780  -10.6430  -28.8100 C   0  0  0  0  0  3  0  0  0  0  0  0
    4.5610  -12.0340  -28.8070 C   0  0  0  0  0  3  0  0  0  0  0  0
    4.4690  -12.7500  -27.6080 C   0  0  0  0  0  3  0  0  0  0  0  0
    4.3630  -12.0820  -26.3910 C   0  0  0  0  0  0  0  0  0  0  0  0
    4.3740  -10.6840  -26.4030 C   0  0  0  0  0  3  0  0  0  0  0  0
    4.1180  -12.6790  -25.1360 N   0  0  0  0  0  0  0  0  0  0  0  0
    3.1420  -12.5040  -24.1870 C   0  0  0  0  0  0  0  0  0  0  0  0
    3.2820  -12.9590  -23.0540 O   0  0  0  0  0  0  0  0  0  0  0  0
    4.8420  -13.3010  -24.7910 H   0  0  0  0  0  0  0  0  0  0  0  0
    1.8820  -11.8510  -24.5210 C   0  0  0  0  0  0  0  0  0  0  0  0
    1.0860  -12.3370  -25.5550 C   0  0  0  0  0  3  0  0  0  0  0  0
   -0.0650  -11.6350  -25.8990 C   0  0  0  0  0  3  0  0  0  0  0  0
   -0.3860  -10.4650  -25.2030 C   0  0  0  0  0  0  0  0  0  0  0  0
    0.3700  -10.0210  -24.1510 N   0  0  0  0  0  0  0  0  0  0  0  0
    1.4760  -10.7300  -23.8200 C   0  0  0  0  0  3  0  0  0  0  0  0
   -1.6090   -9.6580  -25.6270 C   0  0  0  0  0  0  0  0  0  0  0  0
   -2.2270   -9.0360  -24.5850 F   0  0  0  0  0  0  0  0  0  0  0  0
   -1.3250   -8.6860  -26.5400 F   0  0  0  0  0  0  0  0  0  0  0  0
   -2.5730  -10.4300  -26.2150 F   0  0  0  0  0  0  0  0  0  0  0  0
    4.7050   -7.6790  -28.6870 C   0  0  0  0  0  1  0  0  0  0  0  0
    4.0380   -8.4550  -27.5430 C   0  0  1  0  0  3  0  0  0  0  0  0
    2.5900   -8.1820  -27.5710 N   0  0  0  0  0  0  0  0  0  0  0  0
    2.0780   -8.6650  -26.8360 H   0  0  0  0  0  0  0  0  0  0  0  0
    2.0690   -6.8980  -27.6340 C   0  0  0  0  0  0  0  0  0  0  0  0
    2.3520   -6.2970  -28.7980 N   0  0  0  0  0  0  0  0  0  0  0  0
    1.7200   -5.1520  -29.0400 C   0  0  0  0  0  3  0  0  0  0  0  0
    0.8270   -4.5600  -28.2390 N   0  0  0  0  0  0  0  0  0  0  0  0
    0.5840   -5.1260  -27.0350 C   0  0  0  0  0  0  0  0  0  0  0  0
   -0.3470   -4.5810  -26.1240 C   0  0  0  0  0  0  0  0  0  0  0  0
   -0.5450   -5.1510  -24.8510 C   0  0  0  0  0  3  0  0  0  0  0  0
    0.1950   -6.2510  -24.4470 C   0  0  0  0  0  3  0  0  0  0  0  0
    1.0970   -6.8150  -25.3390 C   0  0  0  0  0  3  0  0  0  0  0  0
    1.2600   -6.3000  -26.6500 C   0  0  0  0  0  0  0  0  0  0  0  0
   -1.1920   -3.3850  -26.4340 C   0  0  0  0  0  0  0  0  0  0  0  0
   -0.6130   -2.1520  -26.4010 N   0  0  0  0  0  0  0  0  0  0  0  0
   -2.3810   -3.4930  -26.7180 O   0  0  0  0  0  0  0  0  0  0  0  0
   -1.1760   -1.3390  -26.6080 H   0  0  0  0  0  0  0  0  0  0  0  0
    0.3660   -2.0430  -26.1540 H   0  0  0  0  0  0  0  0  0  0  0  0
  1 22  1  0  0  0  0
  1  6  1  0  0  0  0
  2  3  1  0  0  0  0
  2  1  2  0  0  0  0
  3  4  2  0  0  0  0
  4  5  1  0  0  0  0
  5  7  1  0  0  0  0
  6  5  2  0  0  0  0
  7 10  1  0  0  0  0
  7  8  1  0  0  0  0
  8  9  2  0  0  0  0
 11  8  1  0  0  0  0
 11 16  1  0  0  0  0
 12 11  2  0  0  0  0
 13 12  1  0  0  0  0
 13 14  2  0  0  0  0
 14 15  1  0  0  0  0
 15 16  2  0  0  0  0
 17 14  1  0  0  0  0
 17 18  1  0  0  0  0
 19 17  1  0  0  0  0
 20 17  1  0  0  0  0
 22 21  1  6  0  0  0
 23 22  1  0  0  0  0
 23 24  1  0  0  0  0
 25 23  1  0  0  0  0
 25 34  1  0  0  0  0
 26 25  2  0  0  0  0
 27 26  1  0  0  0  0
 27 28  2  0  0  0  0
 28 29  1  0  0  0  0
 29 34  2  0  0  0  0
 29 30  1  0  0  0  0
 30 31  2  0  0  0  0
 31 32  1  0  0  0  0
 33 32  2  0  0  0  0
 34 33  1  0  0  0  0
 35 36  1  0  0  0  0
 35 30  1  0  0  0  0
 36 39  1  0  0  0  0
 37 35  2  0  0  0  0
 38 36  1  0  0  0  0
M  END
>  <minimizedAffinity>
-8.48975754

$$$$
