
 OpenBabel10152419383D

 39 42  0  0  1  0  0  0  0  0999 V2000
    2.3890  -10.8100  -25.9270 C   0  0  0  0  0  0  0  0  0  0  0  0
    1.7980  -11.2890  -27.1010 C   0  0  0  0  0  3  0  0  0  0  0  0
    0.9240  -12.3730  -27.0510 C   0  0  0  0  0  3  0  0  0  0  0  0
    0.5870  -12.9590  -25.8260 C   0  0  0  0  0  3  0  0  0  0  0  0
    1.1720  -12.5140  -24.6430 C   0  0  0  0  0  0  0  0  0  0  0  0
    2.1160  -11.4850  -24.7210 C   0  0  0  0  0  3  0  0  0  0  0  0
    0.8140  -12.9150  -23.3390 N   0  0  0  0  0  0  0  0  0  0  0  0
    0.1200  -12.3040  -22.3240 C   0  0  0  0  0  0  0  0  0  0  0  0
    0.1560  -12.7540  -21.1820 O   0  0  0  0  0  0  0  0  0  0  0  0
    1.2150  -13.7910  -23.0170 H   0  0  0  0  0  0  0  0  0  0  0  0
   -0.7420  -11.1600  -22.5920 C   0  0  0  0  0  0  0  0  0  0  0  0
   -1.2240  -10.9230  -23.8770 C   0  0  0  0  0  3  0  0  0  0  0  0
   -1.9730   -9.7730  -24.1090 C   0  0  0  0  0  3  0  0  0  0  0  0
   -2.2150   -8.8900  -23.0520 C   0  0  0  0  0  0  0  0  0  0  0  0
   -1.7840   -9.1530  -21.7780 N   0  0  0  0  0  0  0  0  0  0  0  0
   -1.0740  -10.2880  -21.5710 C   0  0  0  0  0  3  0  0  0  0  0  0
   -2.9750   -7.5950  -23.3220 C   0  0  0  0  0  0  0  0  0  0  0  0
   -2.5850   -6.5680  -22.5180 F   0  0  0  0  0  0  0  0  0  0  0  0
   -2.8430   -7.1490  -24.6040 F   0  0  0  0  0  0  0  0  0  0  0  0
   -4.3220   -7.7220  -23.1240 F   0  0  0  0  0  0  0  0  0  0  0  0
    4.6530   -9.7040  -26.2220 C   0  0  0  0  0  1  0  0  0  0  0  0
    3.1710   -9.5010  -25.8740 C   0  0  1  0  0  3  0  0  0  0  0  0
    2.6140   -8.4710  -26.7680 N   0  0  0  0  0  0  0  0  0  0  0  0
    2.3000   -8.8440  -27.6600 H   0  0  0  0  0  0  0  0  0  0  0  0
    1.6480   -7.5640  -26.3580 C   0  0  0  0  0  0  0  0  0  0  0  0
    1.2090   -7.8230  -25.1180 N   0  0  0  0  0  0  0  0  0  0  0  0
    0.4430   -6.8910  -24.5570 C   0  0  0  0  0  3  0  0  0  0  0  0
    0.0880   -5.7260  -25.1090 N   0  0  0  0  0  0  0  0  0  0  0  0
    0.4720   -5.4840  -26.3830 C   0  0  0  0  0  0  0  0  0  0  0  0
    0.1540   -4.2820  -27.0490 C   0  0  0  0  0  0  0  0  0  0  0  0
    0.5140   -4.0720  -28.3950 C   0  0  0  0  0  3  0  0  0  0  0  0
    1.1690   -5.0600  -29.1120 C   0  0  0  0  0  3  0  0  0  0  0  0
    1.5120   -6.2400  -28.4670 C   0  0  0  0  0  3  0  0  0  0  0  0
    1.2230   -6.4420  -27.0940 C   0  0  0  0  0  0  0  0  0  0  0  0
   -0.5670   -3.1470  -26.3900 C   0  0  0  0  0  0  0  0  0  0  0  0
   -0.1610   -1.8740  -26.6570 N   0  0  0  0  0  0  0  0  0  0  0  0
   -1.5090   -3.3390  -25.6270 O   0  0  0  0  0  0  0  0  0  0  0  0
   -0.6420   -1.1020  -26.2170 H   0  0  0  0  0  0  0  0  0  0  0  0
    0.6250   -1.6970  -27.2750 H   0  0  0  0  0  0  0  0  0  0  0  0
  1 22  1  0  0  0  0
  1  6  1  0  0  0  0
  2  3  1  0  0  0  0
  2  1  2  0  0  0  0
  3  4  2  0  0  0  0
  4  5  1  0  0  0  0
  5  7  1  0  0  0  0
  6  5  2  0  0  0  0
  7 10  1  0  0  0  0
  7  8  1  0  0  0  0
  8  9  2  0  0  0  0
 11  8  1  0  0  0  0
 11 16  1  0  0  0  0
 12 11  2  0  0  0  0
 13 12  1  0  0  0  0
 13 14  2  0  0  0  0
 14 15  1  0  0  0  0
 15 16  2  0  0  0  0
 17 20  1  0  0  0  0
 17 14  1  0  0  0  0
 17 18  1  0  0  0  0
 19 17  1  0  0  0  0
 22 21  1  6  0  0  0
 23 25  1  0  0  0  0
 23 22  1  0  0  0  0
 24 23  1  0  0  0  0
 25 26  1  0  0  0  0
 26 27  2  0  0  0  0
 28 27  1  0  0  0  0
 29 28  2  0  0  0  0
 30 35  1  0  0  0  0
 30 29  1  0  0  0  0
 31 30  2  0  0  0  0
 32 33  2  0  0  0  0
 32 31  1  0  0  0  0
 33 34  1  0  0  0  0
 34 29  1  0  0  0  0
 34 25  2  0  0  0  0
 35 37  2  0  0  0  0
 36 35  1  0  0  0  0
 36 38  1  0  0  0  0
 39 36  1  0  0  0  0
M  END
>  <minimizedAffinity>
-7.53460073

$$$$
