
 OpenBabel10152419383D

 39 42  0  0  1  0  0  0  0  0999 V2000
    0.2980   -5.5310  -27.3150 C   0  0  0  0  0  0  0  0  0  0  0  0
    0.0470   -4.8970  -26.0940 C   0  0  0  0  0  3  0  0  0  0  0  0
   -0.7260   -5.5320  -25.1240 C   0  0  0  0  0  3  0  0  0  0  0  0
   -1.2140   -6.8260  -25.3370 C   0  0  0  0  0  3  0  0  0  0  0  0
   -0.9930   -7.4750  -26.5500 C   0  0  0  0  0  0  0  0  0  0  0  0
   -0.2930   -6.7880  -27.5470 C   0  0  0  0  0  3  0  0  0  0  0  0
   -1.2990   -8.8220  -26.8370 N   0  0  0  0  0  0  0  0  0  0  0  0
   -1.2640   -9.9740  -26.0910 C   0  0  0  0  0  0  0  0  0  0  0  0
   -1.3320  -11.0730  -26.6340 O   0  0  0  0  0  0  0  0  0  0  0  0
   -1.4980   -9.0350  -27.8090 H   0  0  0  0  0  0  0  0  0  0  0  0
   -1.2330   -9.9200  -24.6340 C   0  0  0  0  0  0  0  0  0  0  0  0
   -0.3760  -10.7500  -23.9140 C   0  0  0  0  0  3  0  0  0  0  0  0
   -0.4370  -10.7290  -22.5250 C   0  0  0  0  0  3  0  0  0  0  0  0
   -1.3560   -9.8850  -21.8930 C   0  0  0  0  0  0  0  0  0  0  0  0
   -2.1580   -9.0320  -22.6030 N   0  0  0  0  0  0  0  0  0  0  0  0
   -2.0680   -9.0530  -23.9540 C   0  0  0  0  0  3  0  0  0  0  0  0
   -1.4720   -9.9160  -20.3720 C   0  0  0  0  0  0  0  0  0  0  0  0
   -0.2640   -9.9050  -19.7430 F   0  0  0  0  0  0  0  0  0  0  0  0
   -2.1790   -8.8660  -19.8620 F   0  0  0  0  0  0  0  0  0  0  0  0
   -2.1120  -11.0340  -19.9130 F   0  0  0  0  0  0  0  0  0  0  0  0
    1.4010   -3.4660  -28.2950 C   0  0  0  0  0  1  0  0  0  0  0  0
    1.3100   -4.9990  -28.3260 C   0  0  1  0  0  3  0  0  0  0  0  0
    2.6600   -5.5540  -28.1220 N   0  0  0  0  0  0  0  0  0  0  0  0
    3.0370   -5.3590  -27.1980 H   0  0  0  0  0  0  0  0  0  0  0  0
    2.9800   -6.8730  -28.4080 C   0  0  0  0  0  0  0  0  0  0  0  0
    3.4410   -7.0200  -29.6590 N   0  0  0  0  0  0  0  0  0  0  0  0
    3.9730   -8.2020  -29.9560 C   0  0  0  0  0  3  0  0  0  0  0  0
    4.0990   -9.2410  -29.1240 N   0  0  0  0  0  0  0  0  0  0  0  0
    3.5780   -9.1250  -27.8810 C   0  0  0  0  0  0  0  0  0  0  0  0
    3.6680  -10.1630  -26.9300 C   0  0  0  0  0  0  0  0  0  0  0  0
    3.0700  -10.0450  -25.6590 C   0  0  0  0  0  3  0  0  0  0  0  0
    2.3490   -8.9110  -25.3210 C   0  0  0  0  0  3  0  0  0  0  0  0
    2.2710   -7.8700  -26.2360 C   0  0  0  0  0  3  0  0  0  0  0  0
    2.9260   -7.9390  -27.4910 C   0  0  0  0  0  0  0  0  0  0  0  0
    4.4020  -11.4430  -27.1810 C   0  0  0  0  0  0  0  0  0  0  0  0
    4.7220  -11.7700  -28.4650 N   0  0  0  0  0  0  0  0  0  0  0  0
    4.7210  -12.1930  -26.2640 O   0  0  0  0  0  0  0  0  0  0  0  0
    5.2170  -12.6320  -28.6440 H   0  0  0  0  0  0  0  0  0  0  0  0
    4.4530  -11.1680  -29.2370 H   0  0  0  0  0  0  0  0  0  0  0  0
  1  2  1  0  0  0  0
  2  3  2  0  0  0  0
  4  3  1  0  0  0  0
  5  4  2  0  0  0  0
  6  1  2  0  0  0  0
  6  5  1  0  0  0  0
  7  5  1  0  0  0  0
  7  8  1  0  0  0  0
  8 11  1  0  0  0  0
  9  8  2  0  0  0  0
 10  7  1  0  0  0  0
 11 16  2  0  0  0  0
 11 12  1  0  0  0  0
 12 13  2  0  0  0  0
 13 14  1  0  0  0  0
 14 17  1  0  0  0  0
 15 14  2  0  0  0  0
 16 15  1  0  0  0  0
 17 20  1  0  0  0  0
 17 19  1  0  0  0  0
 17 18  1  0  0  0  0
 22 21  1  1  0  0  0
 22 23  1  0  0  0  0
 22  1  1  0  0  0  0
 23 24  1  0  0  0  0
 25 23  1  0  0  0  0
 25 34  1  0  0  0  0
 26 25  2  0  0  0  0
 27 26  1  0  0  0  0
 27 28  2  0  0  0  0
 28 29  1  0  0  0  0
 29 34  2  0  0  0  0
 29 30  1  0  0  0  0
 30 31  2  0  0  0  0
 31 32  1  0  0  0  0
 33 32  2  0  0  0  0
 34 33  1  0  0  0  0
 35 30  1  0  0  0  0
 35 37  2  0  0  0  0
 36 35  1  0  0  0  0
 38 36  1  0  0  0  0
 39 36  1  0  0  0  0
M  END
>  <minimizedAffinity>
-7.74213982

$$$$
