
 OpenBabel10152419423D

 41 45  0  0  1  0  0  0  0  0999 V2000
   -1.7670   -6.8910  -24.8430 C   0  0  0  0  0  0  0  0  0  0  0  0
   -1.1770   -6.4690  -23.6460 C   0  0  0  0  0  3  0  0  0  0  0  0
   -0.2140   -5.4620  -23.6500 C   0  0  0  0  0  3  0  0  0  0  0  0
    0.1880   -4.8800  -24.8550 C   0  0  0  0  0  3  0  0  0  0  0  0
   -0.3530   -5.3130  -26.0660 C   0  0  0  0  0  0  0  0  0  0  0  0
   -1.3430   -6.3010  -26.0480 C   0  0  0  0  0  3  0  0  0  0  0  0
   -0.0010   -4.7880  -27.3240 N   0  0  0  0  0  0  0  0  0  0  0  0
    1.0800   -4.9970  -28.1320 C   0  0  0  0  0  0  0  0  0  0  0  0
    1.3110   -4.2470  -29.0780 O   0  0  0  0  0  0  0  0  0  0  0  0
   -0.6430   -4.1090  -27.7220 H   0  0  0  0  0  0  0  0  0  0  0  0
    1.9240   -6.2140  -27.9310 C   0  0  0  0  0  0  0  0  0  0  0  0
    2.8290   -6.5190  -28.8770 C   0  0  0  0  0  3  0  0  0  0  0  0
    3.7060   -7.7370  -28.7800 C   0  0  0  0  0  2  0  0  0  0  0  0
    3.7710   -8.3620  -27.3550 C   0  0  1  0  0  3  0  0  0  0  0  0
    2.5520   -8.0960  -26.5130 C   0  0  0  0  0  3  0  0  0  0  0  0
    1.7010   -7.0990  -26.8030 C   0  0  0  0  0  3  0  0  0  0  0  0
    4.1310   -9.8360  -27.3850 N   0  0  0  0  0  4  0  0  0  0  0  0
    3.6790  -10.6570  -26.1760 C   0  0  0  0  0  2  0  0  0  0  0  0
    4.2370  -12.0810  -26.3060 C   0  0  0  0  0  2  0  0  0  0  0  0
    3.8150  -12.6890  -27.5320 O   0  0  0  0  0  0  0  0  0  0  0  0
    4.2700  -11.9640  -28.6800 C   0  0  0  0  0  2  0  0  0  0  0  0
    3.7150  -10.5350  -28.6770 C   0  0  0  0  0  2  0  0  0  0  0  0
    5.1570   -9.8590  -27.3730 H   0  0  0  0  0  0  0  0  0  0  0  0
   -2.7430   -8.0520  -24.8280 C   0  0  0  0  0  2  0  0  0  0  0  0
   -0.7300  -12.2160  -20.8660 C   0  0  0  0  0  0  0  0  0  0  0  0
    0.1260  -12.9590  -21.6950 C   0  0  0  0  0  3  0  0  0  0  0  0
    0.2380  -12.6270  -23.0350 C   0  0  0  0  0  3  0  0  0  0  0  0
   -0.5080  -11.5620  -23.5330 C   0  0  0  0  0  3  0  0  0  0  0  0
   -1.3830  -10.8140  -22.6980 C   0  0  0  0  0  0  0  0  0  0  0  0
   -2.1580   -9.7220  -23.1390 C   0  0  0  0  0  0  0  0  0  0  0  0
   -2.0730   -9.2870  -24.4630 N   0  0  0  0  0  0  0  0  0  0  0  0
   -2.9400   -9.0170  -22.3050 N   0  0  0  0  0  0  0  0  0  0  0  0
   -2.9670   -9.4090  -21.0300 C   0  0  0  0  0  3  0  0  0  0  0  0
   -2.2730  -10.4210  -20.5100 N   0  0  0  0  0  0  0  0  0  0  0  0
   -1.4930  -11.1390  -21.3350 C   0  0  0  0  0  0  0  0  0  0  0  0
   -2.1000  -10.0190  -25.1600 H   0  0  0  0  0  0  0  0  0  0  0  0
   -2.0790  -12.9580  -19.0120 N   0  0  0  0  0  0  0  0  0  0  0  0
   -0.8270  -12.6240  -19.4490 C   0  0  0  0  0  0  0  0  0  0  0  0
    0.1380  -12.6170  -18.6990 O   0  0  0  0  0  0  0  0  0  0  0  0
   -2.1730  -13.2400  -18.0450 H   0  0  0  0  0  0  0  0  0  0  0  0
   -2.8890  -13.0000  -19.6130 H   0  0  0  0  0  0  0  0  0  0  0  0
  1 24  1  0  0  0  0
  1  2  1  0  0  0  0
  3  2  2  0  0  0  0
  4  3  1  0  0  0  0
  5  6  1  0  0  0  0
  5  4  2  0  0  0  0
  6  1  2  0  0  0  0
  7  5  1  0  0  0  0
  8 11  1  0  0  0  0
  8  7  1  0  0  0  0
  9  8  2  0  0  0  0
 10  7  1  0  0  0  0
 11 16  1  0  0  0  0
 12 13  1  0  0  0  0
 12 11  2  0  0  0  0
 14 13  1  6  0  0  0
 14 15  1  0  0  0  0
 16 15  2  0  0  0  0
 17 23  1  0  0  0  0
 17 14  1  0  0  0  0
 17 18  1  0  0  0  0
 19 18  1  0  0  0  0
 20 19  1  0  0  0  0
 21 22  1  0  0  0  0
 21 20  1  0  0  0  0
 22 17  1  0  0  0  0
 24 31  1  0  0  0  0
 25 38  1  0  0  0  0
 26 25  2  0  0  0  0
 27 26  1  0  0  0  0
 28 27  2  0  0  0  0
 28 29  1  0  0  0  0
 29 35  1  0  0  0  0
 30 29  2  0  0  0  0
 30 32  1  0  0  0  0
 31 30  1  0  0  0  0
 32 33  2  0  0  0  0
 33 34  1  0  0  0  0
 35 25  1  0  0  0  0
 35 34  2  0  0  0  0
 36 31  1  0  0  0  0
 37 40  1  0  0  0  0
 38 37  1  0  0  0  0
 38 39  2  0  0  0  0
 41 37  1  0  0  0  0
M  END
>  <minimizedAffinity>
-7.43894434

$$$$
