
 OpenBabel10152419423D

 41 45  0  0  1  0  0  0  0  0999 V2000
   -1.4800   -6.9540  -22.8260 C   0  0  0  0  0  0  0  0  0  0  0  0
   -2.6050   -6.8010  -23.6450 C   0  0  0  0  0  3  0  0  0  0  0  0
   -3.7140   -7.6290  -23.4820 C   0  0  0  0  0  3  0  0  0  0  0  0
   -3.7020   -8.6370  -22.5130 C   0  0  0  0  0  3  0  0  0  0  0  0
   -2.5760   -8.8380  -21.7140 C   0  0  0  0  0  0  0  0  0  0  0  0
   -1.4810   -7.9790  -21.8630 C   0  0  0  0  0  3  0  0  0  0  0  0
   -2.4770   -9.8300  -20.7220 N   0  0  0  0  0  0  0  0  0  0  0  0
   -2.0430  -11.1250  -20.7640 C   0  0  0  0  0  0  0  0  0  0  0  0
   -2.2730  -11.8940  -19.8330 O   0  0  0  0  0  0  0  0  0  0  0  0
   -2.7980   -9.5710  -19.7940 H   0  0  0  0  0  0  0  0  0  0  0  0
   -1.1850  -11.5770  -21.9010 C   0  0  0  0  0  0  0  0  0  0  0  0
   -0.2080  -12.4640  -21.6420 C   0  0  0  0  0  3  0  0  0  0  0  0
    0.7250  -12.9590  -22.7130 C   0  0  0  0  0  2  0  0  0  0  0  0
    0.2270  -12.6900  -24.1650 C   0  0  1  0  0  3  0  0  0  0  0  0
   -0.6910  -11.5040  -24.2880 C   0  0  0  0  0  3  0  0  0  0  0  0
   -1.3300  -10.9960  -23.2230 C   0  0  0  0  0  3  0  0  0  0  0  0
    1.3660  -12.6350  -25.1660 N   0  0  0  0  0  4  0  0  0  0  0  0
    1.1400  -11.7370  -26.3830 C   0  0  0  0  0  2  0  0  0  0  0  0
    2.3220  -11.9020  -27.3480 C   0  0  0  0  0  2  0  0  0  0  0  0
    3.5620  -11.5950  -26.7020 O   0  0  0  0  0  0  0  0  0  0  0  0
    3.8180  -12.4570  -25.5880 C   0  0  0  0  0  2  0  0  0  0  0  0
    2.7190  -12.3230  -24.5290 C   0  0  0  0  0  2  0  0  0  0  0  0
    1.4440  -13.5910  -25.5320 H   0  0  0  0  0  0  0  0  0  0  0  0
   -0.2480   -6.1070  -23.0810 C   0  0  0  0  0  2  0  0  0  0  0  0
    2.4330   -6.6440  -28.5230 C   0  0  0  0  0  0  0  0  0  0  0  0
    1.8310   -5.5750  -29.2060 C   0  0  0  0  0  3  0  0  0  0  0  0
    0.8720   -4.8070  -28.5660 C   0  0  0  0  0  3  0  0  0  0  0  0
    0.5230   -5.1170  -27.2540 C   0  0  0  0  0  3  0  0  0  0  0  0
    1.1240   -6.2050  -26.5630 C   0  0  0  0  0  0  0  0  0  0  0  0
    0.8180   -6.5640  -25.2340 C   0  0  0  0  0  0  0  0  0  0  0  0
   -0.1010   -5.8180  -24.4960 N   0  0  0  0  0  0  0  0  0  0  0  0
    1.4420   -7.5750  -24.6060 N   0  0  0  0  0  0  0  0  0  0  0  0
    2.3600   -8.2430  -25.3050 C   0  0  0  0  0  3  0  0  0  0  0  0
    2.7260   -7.9840  -26.5610 N   0  0  0  0  0  0  0  0  0  0  0  0
    2.1040   -6.9810  -27.2030 C   0  0  0  0  0  0  0  0  0  0  0  0
   -0.9550   -5.5820  -24.9820 H   0  0  0  0  0  0  0  0  0  0  0  0
    4.6680   -7.5320  -28.6720 N   0  0  0  0  0  0  0  0  0  0  0  0
    3.4360   -7.4430  -29.2580 C   0  0  0  0  0  0  0  0  0  0  0  0
    3.1990   -7.9510  -30.3430 O   0  0  0  0  0  0  0  0  0  0  0  0
    5.3740   -8.0730  -29.1560 H   0  0  0  0  0  0  0  0  0  0  0  0
    4.8870   -7.1470  -27.7650 H   0  0  0  0  0  0  0  0  0  0  0  0
  1  6  1  0  0  0  0
  2  3  1  0  0  0  0
  2  1  2  0  0  0  0
  3  4  2  0  0  0  0
  4  5  1  0  0  0  0
  5  7  1  0  0  0  0
  6  5  2  0  0  0  0
  7 10  1  0  0  0  0
  8  7  1  0  0  0  0
  8  9  2  0  0  0  0
 11 12  2  0  0  0  0
 11  8  1  0  0  0  0
 13 12  1  0  0  0  0
 14 15  1  1  0  0  0
 14 13  1  0  0  0  0
 15 16  2  0  0  0  0
 16 11  1  0  0  0  0
 17 22  1  0  0  0  0
 17 14  1  0  0  0  0
 18 17  1  0  0  0  0
 19 20  1  0  0  0  0
 19 18  1  0  0  0  0
 20 21  1  0  0  0  0
 21 22  1  0  0  0  0
 23 17  1  0  0  0  0
 24  1  1  0  0  0  0
 25 35  1  0  0  0  0
 26 27  1  0  0  0  0
 26 25  2  0  0  0  0
 27 28  2  0  0  0  0
 28 29  1  0  0  0  0
 29 30  1  0  0  0  0
 30 32  2  0  0  0  0
 30 31  1  0  0  0  0
 31 24  1  0  0  0  0
 33 32  1  0  0  0  0
 34 33  2  0  0  0  0
 35 29  2  0  0  0  0
 35 34  1  0  0  0  0
 36 31  1  0  0  0  0
 37 41  1  0  0  0  0
 38 37  1  0  0  0  0
 38 25  1  0  0  0  0
 39 38  2  0  0  0  0
 40 37  1  0  0  0  0
M  END
>  <minimizedAffinity>
-8.77842045

$$$$
