
 OpenBabel10152419423D

 41 45  0  0  1  0  0  0  0  0999 V2000
   -1.2100  -11.4070  -21.2870 C   0  0  0  0  0  0  0  0  0  0  0  0
   -0.5720  -10.8580  -20.1680 C   0  0  0  0  0  3  0  0  0  0  0  0
   -0.9070   -9.5820  -19.7210 C   0  0  0  0  0  3  0  0  0  0  0  0
   -1.8680   -8.8280  -20.4010 C   0  0  0  0  0  3  0  0  0  0  0  0
   -2.4860   -9.3350  -21.5440 C   0  0  0  0  0  0  0  0  0  0  0  0
   -2.1670  -10.6310  -21.9650 C   0  0  0  0  0  3  0  0  0  0  0  0
   -3.4570   -8.6440  -22.2920 N   0  0  0  0  0  0  0  0  0  0  0  0
   -3.3540   -7.6900  -23.2650 C   0  0  0  0  0  0  0  0  0  0  0  0
   -4.3370   -7.0390  -23.6120 O   0  0  0  0  0  0  0  0  0  0  0  0
   -4.4260   -8.8590  -22.0770 H   0  0  0  0  0  0  0  0  0  0  0  0
   -2.0590   -7.5170  -23.9900 C   0  0  0  0  0  0  0  0  0  0  0  0
   -1.2870   -6.4650  -23.6640 C   0  0  0  0  0  3  0  0  0  0  0  0
    0.0200   -6.1890  -24.3550 C   0  0  0  0  0  2  0  0  0  0  0  0
    0.5850   -7.4010  -25.1550 C   0  0  1  0  0  3  0  0  0  0  0  0
   -0.4680   -8.3630  -25.6340 C   0  0  0  0  0  3  0  0  0  0  0  0
   -1.6930   -8.3950  -25.0860 C   0  0  0  0  0  3  0  0  0  0  0  0
    1.5150   -6.9710  -26.2740 N   0  0  0  0  0  4  0  0  0  0  0  0
    2.4260   -8.0630  -26.8380 C   0  0  0  0  0  2  0  0  0  0  0  0
    3.3860   -7.4330  -27.8570 C   0  0  0  0  0  2  0  0  0  0  0  0
    2.6640   -6.7700  -28.9010 O   0  0  0  0  0  0  0  0  0  0  0  0
    1.8420   -5.7100  -28.4010 C   0  0  0  0  0  2  0  0  0  0  0  0
    0.8010   -6.2470  -27.4130 C   0  0  0  0  0  2  0  0  0  0  0  0
    2.1400   -6.2760  -25.8490 H   0  0  0  0  0  0  0  0  0  0  0  0
   -0.7650  -12.7580  -21.8150 C   0  0  0  0  0  2  0  0  0  0  0  0
    3.2670  -12.2820  -26.3540 C   0  0  0  0  0  0  0  0  0  0  0  0
    4.4470  -12.6320  -25.6800 C   0  0  0  0  0  3  0  0  0  0  0  0
    4.4040  -12.9090  -24.3230 C   0  0  0  0  0  3  0  0  0  0  0  0
    3.1840  -12.8300  -23.6560 C   0  0  0  0  0  3  0  0  0  0  0  0
    1.9880  -12.4670  -24.3340 C   0  0  0  0  0  0  0  0  0  0  0  0
    0.7240  -12.3760  -23.7170 C   0  0  0  0  0  0  0  0  0  0  0  0
    0.5760  -12.6840  -22.3640 N   0  0  0  0  0  0  0  0  0  0  0  0
   -0.3870  -12.0690  -24.4070 N   0  0  0  0  0  0  0  0  0  0  0  0
   -0.2410  -11.8340  -25.7120 C   0  0  0  0  0  3  0  0  0  0  0  0
    0.9040  -11.8960  -26.3920 N   0  0  0  0  0  0  0  0  0  0  0  0
    2.0240  -12.1940  -25.7120 C   0  0  0  0  0  0  0  0  0  0  0  0
    1.2760  -12.2850  -21.7520 H   0  0  0  0  0  0  0  0  0  0  0  0
    2.9330  -12.9570  -28.6430 N   0  0  0  0  0  0  0  0  0  0  0  0
    3.3720  -11.9770  -27.7960 C   0  0  0  0  0  0  0  0  0  0  0  0
    3.8650  -10.9390  -28.2110 O   0  0  0  0  0  0  0  0  0  0  0  0
    2.9960  -12.7730  -29.6370 H   0  0  0  0  0  0  0  0  0  0  0  0
    2.4980  -13.8130  -28.3320 H   0  0  0  0  0  0  0  0  0  0  0  0
  1  2  1  0  0  0  0
  2  3  2  0  0  0  0
  4  3  1  0  0  0  0
  5  4  2  0  0  0  0
  6  5  1  0  0  0  0
  6  1  2  0  0  0  0
  7 10  1  0  0  0  0
  7  5  1  0  0  0  0
  8  7  1  0  0  0  0
  9  8  2  0  0  0  0
 11 12  2  0  0  0  0
 11  8  1  0  0  0  0
 13 12  1  0  0  0  0
 14 15  1  6  0  0  0
 14 13  1  0  0  0  0
 15 16  2  0  0  0  0
 16 11  1  0  0  0  0
 17 23  1  0  0  0  0
 17 14  1  0  0  0  0
 18 17  1  0  0  0  0
 19 18  1  0  0  0  0
 20 21  1  0  0  0  0
 20 19  1  0  0  0  0
 21 22  1  0  0  0  0
 22 17  1  0  0  0  0
 24  1  1  0  0  0  0
 25 35  2  0  0  0  0
 25 26  1  0  0  0  0
 26 27  2  0  0  0  0
 27 28  1  0  0  0  0
 29 30  1  0  0  0  0
 29 28  2  0  0  0  0
 30 31  1  0  0  0  0
 31 24  1  0  0  0  0
 31 36  1  0  0  0  0
 32 30  2  0  0  0  0
 33 32  1  0  0  0  0
 34 35  1  0  0  0  0
 34 33  2  0  0  0  0
 35 29  1  0  0  0  0
 37 41  1  0  0  0  0
 37 38  1  0  0  0  0
 38 25  1  0  0  0  0
 39 38  2  0  0  0  0
 40 37  1  0  0  0  0
M  END
>  <minimizedAffinity>
-7.82238817

$$$$
