
 OpenBabel10152418223D

 41 45  0  0  1  0  0  0  0  0999 V2000
    2.1730  -11.6770  -26.5040 C   0  0  0  0  0  0  0  0  0  0  0  0
    2.9450  -12.0380  -25.3920 C   0  0  0  0  0  3  0  0  0  0  0  0
    4.3340  -11.9370  -25.4320 C   0  0  0  0  0  3  0  0  0  0  0  0
    4.9720  -11.4930  -26.5920 C   0  0  0  0  0  3  0  0  0  0  0  0
    4.2300  -11.1670  -27.7280 C   0  0  0  0  0  0  0  0  0  0  0  0
    2.8330  -11.2410  -27.6670 C   0  0  0  0  0  3  0  0  0  0  0  0
    4.7930  -10.7190  -28.9370 N   0  0  0  0  0  0  0  0  0  0  0  0
    4.4870   -9.6680  -29.7540 C   0  0  0  0  0  0  0  0  0  0  0  0
    4.9460   -9.6040  -30.8940 O   0  0  0  0  0  0  0  0  0  0  0  0
    5.5580  -11.2730  -29.3090 H   0  0  0  0  0  0  0  0  0  0  0  0
    3.6770   -8.5310  -29.2200 C   0  0  0  0  0  0  0  0  0  0  0  0
    3.3690   -8.5330  -27.9110 C   0  0  0  0  0  3  0  0  0  0  0  0
    2.5380   -7.4470  -27.2850 C   0  0  0  0  0  2  0  0  0  0  0  0
    2.4140   -6.1600  -28.1520 C   0  0  1  0  0  3  0  0  0  0  0  0
    2.5640   -6.4010  -29.6300 C   0  0  0  0  0  3  0  0  0  0  0  0
    3.1460   -7.5120  -30.1070 C   0  0  0  0  0  3  0  0  0  0  0  0
    1.1640   -5.3610  -27.8290 N   0  0  0  0  0  4  0  0  0  0  0  0
    0.4610   -5.7250  -26.5210 C   0  0  0  0  0  2  0  0  0  0  0  0
   -0.8430   -4.9240  -26.4180 C   0  0  0  0  0  2  0  0  0  0  0  0
   -0.5890   -3.5160  -26.4940 O   0  0  0  0  0  0  0  0  0  0  0  0
    0.0230   -3.1450  -27.7340 C   0  0  0  0  0  2  0  0  0  0  0  0
    1.3730   -3.8510  -27.9070 C   0  0  0  0  0  2  0  0  0  0  0  0
    0.5010   -5.5910  -28.5780 H   0  0  0  0  0  0  0  0  0  0  0  0
    0.6730  -11.8950  -26.4580 C   0  0  0  0  0  2  0  0  0  0  0  0
   -2.0640   -8.7590  -22.0100 C   0  0  0  0  0  0  0  0  0  0  0  0
   -2.6360   -7.7120  -22.7510 C   0  0  0  0  0  3  0  0  0  0  0  0
   -2.4240   -7.6480  -24.1190 C   0  0  0  0  0  3  0  0  0  0  0  0
   -1.6410   -8.6240  -24.7290 C   0  0  0  0  0  3  0  0  0  0  0  0
   -1.0530   -9.6800  -23.9810 C   0  0  0  0  0  0  0  0  0  0  0  0
   -0.2540  -10.6990  -24.5390 C   0  0  0  0  0  0  0  0  0  0  0  0
   -0.0220  -10.7400  -25.9160 N   0  0  0  0  0  0  0  0  0  0  0  0
    0.2480  -11.6990  -23.7950 N   0  0  0  0  0  0  0  0  0  0  0  0
   -0.0290  -11.6800  -22.4920 C   0  0  0  0  0  3  0  0  0  0  0  0
   -0.7720  -10.7690  -21.8660 N   0  0  0  0  0  0  0  0  0  0  0  0
   -1.2730   -9.7570  -22.5940 C   0  0  0  0  0  0  0  0  0  0  0  0
    0.2230   -9.8520  -26.3340 H   0  0  0  0  0  0  0  0  0  0  0  0
   -2.5430   -9.9970  -19.9990 N   0  0  0  0  0  0  0  0  0  0  0  0
   -2.3020   -8.7690  -20.5510 C   0  0  0  0  0  0  0  0  0  0  0  0
   -2.3310   -7.7460  -19.8850 O   0  0  0  0  0  0  0  0  0  0  0  0
   -2.7090  -10.0310  -19.0000 H   0  0  0  0  0  0  0  0  0  0  0  0
   -2.5000  -10.8640  -20.5150 H   0  0  0  0  0  0  0  0  0  0  0  0
  1 24  1  0  0  0  0
  1  2  1  0  0  0  0
  3  2  2  0  0  0  0
  4  3  1  0  0  0  0
  5  6  1  0  0  0  0
  5  4  2  0  0  0  0
  6  1  2  0  0  0  0
  7  5  1  0  0  0  0
  8 11  1  0  0  0  0
  8  7  1  0  0  0  0
  9  8  2  0  0  0  0
 10  7  1  0  0  0  0
 11 12  2  0  0  0  0
 12 13  1  0  0  0  0
 14 15  1  6  0  0  0
 14 17  1  0  0  0  0
 14 13  1  0  0  0  0
 16 15  2  0  0  0  0
 16 11  1  0  0  0  0
 17 18  1  0  0  0  0
 18 19  1  0  0  0  0
 20 19  1  0  0  0  0
 21 20  1  0  0  0  0
 22 17  1  0  0  0  0
 22 21  1  0  0  0  0
 23 17  1  0  0  0  0
 24 31  1  0  0  0  0
 25 38  1  0  0  0  0
 26 25  2  0  0  0  0
 27 26  1  0  0  0  0
 28 27  2  0  0  0  0
 28 29  1  0  0  0  0
 29 35  1  0  0  0  0
 30 29  2  0  0  0  0
 30 32  1  0  0  0  0
 31 30  1  0  0  0  0
 32 33  2  0  0  0  0
 33 34  1  0  0  0  0
 35 25  1  0  0  0  0
 35 34  2  0  0  0  0
 36 31  1  0  0  0  0
 37 40  1  0  0  0  0
 38 37  1  0  0  0  0
 38 39  2  0  0  0  0
 41 37  1  0  0  0  0
M  END
>  <minimizedAffinity>
-6.01347351

$$$$

 OpenBabel10152418223D

 41 45  0  0  1  0  0  0  0  0999 V2000
    1.7280  -11.1830  -26.6670 C   0  0  0  0  0  0  0  0  0  0  0  0
    2.5610  -11.9820  -25.8730 C   0  0  0  0  0  3  0  0  0  0  0  0
    3.9470  -11.8490  -25.9430 C   0  0  0  0  0  3  0  0  0  0  0  0
    4.5190  -10.9300  -26.8240 C   0  0  0  0  0  3  0  0  0  0  0  0
    3.7140  -10.1520  -27.6570 C   0  0  0  0  0  0  0  0  0  0  0  0
    2.3220  -10.2700  -27.5550 C   0  0  0  0  0  3  0  0  0  0  0  0
    4.2090   -9.2080  -28.5760 N   0  0  0  0  0  0  0  0  0  0  0  0
    3.6960   -8.0320  -29.0450 C   0  0  0  0  0  0  0  0  0  0  0  0
    4.1810   -7.4860  -30.0350 O   0  0  0  0  0  0  0  0  0  0  0  0
    5.1030   -9.4250  -29.0060 H   0  0  0  0  0  0  0  0  0  0  0  0
    2.6080   -7.3470  -28.2820 C   0  0  0  0  0  0  0  0  0  0  0  0
    1.3590   -7.3990  -28.7760 C   0  0  0  0  0  3  0  0  0  0  0  0
    0.2020   -6.7190  -28.0950 C   0  0  0  0  0  2  0  0  0  0  0  0
    0.4810   -6.3160  -26.6170 C   0  0  1  0  0  3  0  0  0  0  0  0
    1.9360   -6.0790  -26.3110 C   0  0  0  0  0  3  0  0  0  0  0  0
    2.9090   -6.5580  -27.1020 C   0  0  0  0  0  3  0  0  0  0  0  0
   -0.3940   -5.1660  -26.1550 N   0  0  0  0  0  4  0  0  0  0  0  0
   -0.3660   -4.8690  -24.6560 C   0  0  0  0  0  2  0  0  0  0  0  0
   -1.3980   -3.7770  -24.3460 C   0  0  0  0  0  2  0  0  0  0  0  0
   -1.1410   -2.5940  -25.1120 O   0  0  0  0  0  0  0  0  0  0  0  0
   -1.2120   -2.8380  -26.5210 C   0  0  0  0  0  2  0  0  0  0  0  0
   -0.1710   -3.8790  -26.9470 C   0  0  0  0  0  2  0  0  0  0  0  0
   -1.3540   -5.4610  -26.3660 H   0  0  0  0  0  0  0  0  0  0  0  0
    0.2320  -11.4260  -26.6360 C   0  0  0  0  0  2  0  0  0  0  0  0
   -1.7500   -9.5490  -21.1900 C   0  0  0  0  0  0  0  0  0  0  0  0
   -1.7140  -10.7580  -20.4750 C   0  0  0  0  0  3  0  0  0  0  0  0
   -1.3270  -11.9210  -21.1200 C   0  0  0  0  0  3  0  0  0  0  0  0
   -0.9850  -11.8670  -22.4690 C   0  0  0  0  0  3  0  0  0  0  0  0
   -1.0300  -10.6470  -23.1970 C   0  0  0  0  0  0  0  0  0  0  0  0
   -0.6940  -10.5250  -24.5620 C   0  0  0  0  0  0  0  0  0  0  0  0
   -0.2510  -11.6370  -25.2820 N   0  0  0  0  0  0  0  0  0  0  0  0
   -0.7140   -9.3410  -25.1970 N   0  0  0  0  0  0  0  0  0  0  0  0
   -1.0830   -8.2790  -24.4830 C   0  0  0  0  0  3  0  0  0  0  0  0
   -1.4170   -8.2830  -23.1930 N   0  0  0  0  0  0  0  0  0  0  0  0
   -1.4120   -9.4610  -22.5470 C   0  0  0  0  0  0  0  0  0  0  0  0
   -0.7920  -12.4800  -25.1420 H   0  0  0  0  0  0  0  0  0  0  0  0
   -2.9920   -7.4850  -21.1670 N   0  0  0  0  0  0  0  0  0  0  0  0
   -2.1920   -8.3410  -20.4620 C   0  0  0  0  0  0  0  0  0  0  0  0
   -1.8290   -8.0940  -19.3220 O   0  0  0  0  0  0  0  0  0  0  0  0
   -3.3080   -6.6480  -20.6900 H   0  0  0  0  0  0  0  0  0  0  0  0
   -3.3310   -7.6720  -22.0990 H   0  0  0  0  0  0  0  0  0  0  0  0
  1 24  1  0  0  0  0
  1  2  1  0  0  0  0
  3  2  2  0  0  0  0
  4  3  1  0  0  0  0
  5  6  1  0  0  0  0
  5  4  2  0  0  0  0
  6  1  2  0  0  0  0
  7  5  1  0  0  0  0
  8  7  1  0  0  0  0
  8 11  1  0  0  0  0
  9  8  2  0  0  0  0
 10  7  1  0  0  0  0
 11 16  1  0  0  0  0
 12 11  2  0  0  0  0
 12 13  1  0  0  0  0
 14 13  1  6  0  0  0
 14 15  1  0  0  0  0
 14 17  1  0  0  0  0
 16 15  2  0  0  0  0
 17 18  1  0  0  0  0
 18 19  1  0  0  0  0
 20 19  1  0  0  0  0
 21 20  1  0  0  0  0
 22 21  1  0  0  0  0
 22 17  1  0  0  0  0
 23 17  1  0  0  0  0
 24 31  1  0  0  0  0
 25 26  1  0  0  0  0
 25 38  1  0  0  0  0
 27 26  2  0  0  0  0
 28 27  1  0  0  0  0
 29 35  1  0  0  0  0
 29 28  2  0  0  0  0
 30 29  1  0  0  0  0
 31 36  1  0  0  0  0
 31 30  1  0  0  0  0
 32 30  2  0  0  0  0
 32 33  1  0  0  0  0
 33 34  2  0  0  0  0
 34 35  1  0  0  0  0
 35 25  2  0  0  0  0
 37 40  1  0  0  0  0
 37 38  1  0  0  0  0
 38 39  2  0  0  0  0
 41 37  1  0  0  0  0
M  END
>  <minimizedAffinity>
-3.91786957

$$$$

 OpenBabel10152418223D

 41 45  0  0  1  0  0  0  0  0999 V2000
    2.2270  -11.9550  -24.2450 C   0  0  0  0  0  0  0  0  0  0  0  0
    1.9130  -11.8390  -22.8850 C   0  0  0  0  0  3  0  0  0  0  0  0
    0.5890  -11.6990  -22.4730 C   0  0  0  0  0  3  0  0  0  0  0  0
   -0.4370  -11.6520  -23.4170 C   0  0  0  0  0  3  0  0  0  0  0  0
   -0.1500  -11.7240  -24.7810 C   0  0  0  0  0  0  0  0  0  0  0  0
    1.1810  -11.8970  -25.1830 C   0  0  0  0  0  3  0  0  0  0  0  0
   -1.1230  -11.6780  -25.7970 N   0  0  0  0  0  0  0  0  0  0  0  0
   -1.7590  -10.6340  -26.4060 C   0  0  0  0  0  0  0  0  0  0  0  0
   -2.7590  -10.8270  -27.0970 O   0  0  0  0  0  0  0  0  0  0  0  0
   -1.4490  -12.5730  -26.1470 H   0  0  0  0  0  0  0  0  0  0  0  0
   -1.1710   -9.2630  -26.3250 C   0  0  0  0  0  0  0  0  0  0  0  0
   -1.6960   -8.4010  -25.4370 C   0  0  0  0  0  3  0  0  0  0  0  0
   -1.1890   -6.9910  -25.2980 C   0  0  0  0  0  2  0  0  0  0  0  0
    0.2050   -6.7480  -25.9480 C   0  0  1  0  0  3  0  0  0  0  0  0
    0.5200   -7.6800  -27.0870 C   0  0  0  0  0  3  0  0  0  0  0  0
   -0.1360   -8.8390  -27.2510 C   0  0  0  0  0  3  0  0  0  0  0  0
    0.4240   -5.2940  -26.3230 N   0  0  0  0  0  4  0  0  0  0  0  0
    0.9960   -5.0460  -27.7200 C   0  0  0  0  0  2  0  0  0  0  0  0
    1.2780   -3.5470  -27.8820 C   0  0  0  0  0  2  0  0  0  0  0  0
    0.0910   -2.7740  -27.6640 O   0  0  0  0  0  0  0  0  0  0  0  0
   -0.4340   -2.9520  -26.3450 C   0  0  0  0  0  2  0  0  0  0  0  0
   -0.8070   -4.4190  -26.1000 C   0  0  0  0  0  2  0  0  0  0  0  0
    1.1330   -4.9540  -25.6640 H   0  0  0  0  0  0  0  0  0  0  0  0
    3.6840  -12.0050  -24.6610 C   0  0  0  0  0  2  0  0  0  0  0  0
    3.9950   -9.4130  -30.1650 C   0  0  0  0  0  0  0  0  0  0  0  0
    3.9210  -10.5500  -30.9870 C   0  0  0  0  0  3  0  0  0  0  0  0
    3.8480  -11.8070  -30.4080 C   0  0  0  0  0  3  0  0  0  0  0  0
    3.8540  -11.9160  -29.0200 C   0  0  0  0  0  3  0  0  0  0  0  0
    3.9380  -10.7680  -28.1860 C   0  0  0  0  0  0  0  0  0  0  0  0
    3.9450  -10.8100  -26.7760 C   0  0  0  0  0  0  0  0  0  0  0  0
    3.8310  -12.0300  -26.1060 N   0  0  0  0  0  0  0  0  0  0  0  0
    3.9870   -9.6940  -26.0300 N   0  0  0  0  0  0  0  0  0  0  0  0
    4.0370   -8.5330  -26.6820 C   0  0  0  0  0  3  0  0  0  0  0  0
    4.0330   -8.3810  -28.0060 N   0  0  0  0  0  0  0  0  0  0  0  0
    4.0030   -9.4890  -28.7660 C   0  0  0  0  0  0  0  0  0  0  0  0
    4.4140  -12.7730  -26.4690 H   0  0  0  0  0  0  0  0  0  0  0  0
    3.1120   -7.1990  -30.5190 N   0  0  0  0  0  0  0  0  0  0  0  0
    4.0950   -8.0980  -30.8310 C   0  0  0  0  0  0  0  0  0  0  0  0
    4.9690   -7.8410  -31.6450 O   0  0  0  0  0  0  0  0  0  0  0  0
    3.1580   -6.2900  -30.9620 H   0  0  0  0  0  0  0  0  0  0  0  0
    2.3930   -7.3710  -29.8310 H   0  0  0  0  0  0  0  0  0  0  0  0
  1  2  1  0  0  0  0
  2  3  2  0  0  0  0
  4  3  1  0  0  0  0
  5  4  2  0  0  0  0
  6  5  1  0  0  0  0
  6  1  2  0  0  0  0
  7  5  1  0  0  0  0
  8 11  1  0  0  0  0
  8  7  1  0  0  0  0
  9  8  2  0  0  0  0
 10  7  1  0  0  0  0
 11 12  2  0  0  0  0
 12 13  1  0  0  0  0
 14 15  1  6  0  0  0
 14 13  1  0  0  0  0
 16 15  2  0  0  0  0
 16 11  1  0  0  0  0
 17 22  1  0  0  0  0
 17 14  1  0  0  0  0
 17 23  1  0  0  0  0
 18 17  1  0  0  0  0
 19 18  1  0  0  0  0
 19 20  1  0  0  0  0
 20 21  1  0  0  0  0
 21 22  1  0  0  0  0
 24  1  1  0  0  0  0
 25 35  1  0  0  0  0
 26 27  1  0  0  0  0
 26 25  2  0  0  0  0
 27 28  2  0  0  0  0
 28 29  1  0  0  0  0
 29 30  1  0  0  0  0
 30 31  1  0  0  0  0
 30 32  2  0  0  0  0
 31 24  1  0  0  0  0
 33 32  1  0  0  0  0
 34 33  2  0  0  0  0
 35 29  2  0  0  0  0
 35 34  1  0  0  0  0
 36 31  1  0  0  0  0
 37 41  1  0  0  0  0
 38 37  1  0  0  0  0
 38 25  1  0  0  0  0
 39 38  2  0  0  0  0
 40 37  1  0  0  0  0
M  END
>  <minimizedAffinity>
-3.4832232

$$$$

 OpenBabel10152418223D

 41 45  0  0  1  0  0  0  0  0999 V2000
    1.3070  -11.8080  -25.9940 C   0  0  0  0  0  0  0  0  0  0  0  0
    1.8690  -11.8270  -24.7110 C   0  0  0  0  0  3  0  0  0  0  0  0
    3.2510  -11.8840  -24.5440 C   0  0  0  0  0  3  0  0  0  0  0  0
    4.0900  -11.9450  -25.6580 C   0  0  0  0  0  3  0  0  0  0  0  0
    3.5550  -11.9700  -26.9470 C   0  0  0  0  0  0  0  0  0  0  0  0
    2.1670  -11.8800  -27.1050 C   0  0  0  0  0  3  0  0  0  0  0  0
    4.3280  -12.0370  -28.1220 N   0  0  0  0  0  0  0  0  0  0  0  0
    4.4180  -11.2100  -29.2050 C   0  0  0  0  0  0  0  0  0  0  0  0
    4.9730  -11.5850  -30.2370 O   0  0  0  0  0  0  0  0  0  0  0  0
    4.9230  -12.8530  -28.2220 H   0  0  0  0  0  0  0  0  0  0  0  0
    3.9390   -9.7990  -29.0960 C   0  0  0  0  0  0  0  0  0  0  0  0
    3.9850   -9.2060  -27.8900 C   0  0  0  0  0  3  0  0  0  0  0  0
    3.5020   -7.7980  -27.6740 C   0  0  0  0  0  2  0  0  0  0  0  0
    3.3340   -6.9730  -28.9850 C   0  0  1  0  0  3  0  0  0  0  0  0
    3.0610   -7.8120  -30.2040 C   0  0  0  0  0  3  0  0  0  0  0  0
    3.3410   -9.1250  -30.2330 C   0  0  0  0  0  3  0  0  0  0  0  0
    2.3340   -5.8430  -28.8350 N   0  0  0  0  0  4  0  0  0  0  0  0
    0.8790   -6.2650  -28.6260 C   0  0  0  0  0  2  0  0  0  0  0  0
   -0.0070   -5.0120  -28.6290 C   0  0  0  0  0  2  0  0  0  0  0  0
    0.4110   -4.0840  -27.6220 O   0  0  0  0  0  0  0  0  0  0  0  0
    1.7550   -3.6360  -27.8250 C   0  0  0  0  0  2  0  0  0  0  0  0
    2.7350   -4.8140  -27.7800 C   0  0  0  0  0  2  0  0  0  0  0  0
    2.3570   -5.3460  -29.7330 H   0  0  0  0  0  0  0  0  0  0  0  0
   -0.2020  -11.8470  -26.1350 C   0  0  0  0  0  2  0  0  0  0  0  0
   -1.0200   -6.5560  -23.2280 C   0  0  0  0  0  0  0  0  0  0  0  0
   -1.8920   -6.9600  -22.2030 C   0  0  0  0  0  3  0  0  0  0  0  0
   -2.3180   -8.2770  -22.1500 C   0  0  0  0  0  3  0  0  0  0  0  0
   -1.8740   -9.1730  -23.1190 C   0  0  0  0  0  3  0  0  0  0  0  0
   -0.9990   -8.7650  -24.1620 C   0  0  0  0  0  0  0  0  0  0  0  0
   -0.5120   -9.6230  -25.1700 C   0  0  0  0  0  0  0  0  0  0  0  0
   -0.8540  -10.9770  -25.1710 N   0  0  0  0  0  0  0  0  0  0  0  0
    0.3450   -9.1990  -26.1140 N   0  0  0  0  0  0  0  0  0  0  0  0
    0.7080   -7.9180  -26.0680 C   0  0  0  0  0  3  0  0  0  0  0  0
    0.3110   -7.0260  -25.1610 N   0  0  0  0  0  0  0  0  0  0  0  0
   -0.5550   -7.4320  -24.2170 C   0  0  0  0  0  0  0  0  0  0  0  0
   -1.8340  -11.1700  -25.0080 H   0  0  0  0  0  0  0  0  0  0  0  0
   -0.4550   -4.5870  -24.4980 N   0  0  0  0  0  0  0  0  0  0  0  0
   -0.6130   -5.1350  -23.2540 C   0  0  0  0  0  0  0  0  0  0  0  0
   -0.3830   -4.5010  -22.2360 O   0  0  0  0  0  0  0  0  0  0  0  0
   -0.1750   -3.6150  -24.5430 H   0  0  0  0  0  0  0  0  0  0  0  0
   -0.6610   -5.0750  -25.3570 H   0  0  0  0  0  0  0  0  0  0  0  0
  1  2  1  0  0  0  0
  2  3  2  0  0  0  0
  4  3  1  0  0  0  0
  5  4  2  0  0  0  0
  6  5  1  0  0  0  0
  6  1  2  0  0  0  0
  7  5  1  0  0  0  0
  8 11  1  0  0  0  0
  8  7  1  0  0  0  0
  9  8  2  0  0  0  0
 10  7  1  0  0  0  0
 11 12  2  0  0  0  0
 12 13  1  0  0  0  0
 14 15  1  6  0  0  0
 14 17  1  0  0  0  0
 14 13  1  0  0  0  0
 16 15  2  0  0  0  0
 16 11  1  0  0  0  0
 17 18  1  0  0  0  0
 17 22  1  0  0  0  0
 19 18  1  0  0  0  0
 19 20  1  0  0  0  0
 21 22  1  0  0  0  0
 21 20  1  0  0  0  0
 23 17  1  0  0  0  0
 24  1  1  0  0  0  0
 24 31  1  0  0  0  0
 25 26  1  0  0  0  0
 26 27  2  0  0  0  0
 28 27  1  0  0  0  0
 29 28  2  0  0  0  0
 30 29  1  0  0  0  0
 31 30  1  0  0  0  0
 31 36  1  0  0  0  0
 32 33  1  0  0  0  0
 32 30  2  0  0  0  0
 33 34  2  0  0  0  0
 34 35  1  0  0  0  0
 35 29  1  0  0  0  0
 35 25  2  0  0  0  0
 37 38  1  0  0  0  0
 38 25  1  0  0  0  0
 38 39  2  0  0  0  0
 40 37  1  0  0  0  0
 41 37  1  0  0  0  0
M  END
>  <minimizedAffinity>
-3.26438093

$$$$
