
 OpenBabel10152418223D

 41 45  0  0  1  0  0  0  0  0999 V2000
    2.1730  -11.6770  -26.5040 C   0  0  0  0  0  0  0  0  0  0  0  0
    2.9450  -12.0380  -25.3920 C   0  0  0  0  0  3  0  0  0  0  0  0
    4.3340  -11.9370  -25.4320 C   0  0  0  0  0  3  0  0  0  0  0  0
    4.9720  -11.4930  -26.5920 C   0  0  0  0  0  3  0  0  0  0  0  0
    4.2300  -11.1670  -27.7280 C   0  0  0  0  0  0  0  0  0  0  0  0
    2.8330  -11.2410  -27.6670 C   0  0  0  0  0  3  0  0  0  0  0  0
    4.7930  -10.7190  -28.9370 N   0  0  0  0  0  0  0  0  0  0  0  0
    4.4870   -9.6680  -29.7540 C   0  0  0  0  0  0  0  0  0  0  0  0
    4.9460   -9.6040  -30.8940 O   0  0  0  0  0  0  0  0  0  0  0  0
    5.5580  -11.2730  -29.3090 H   0  0  0  0  0  0  0  0  0  0  0  0
    3.6770   -8.5310  -29.2200 C   0  0  0  0  0  0  0  0  0  0  0  0
    3.3690   -8.5330  -27.9110 C   0  0  0  0  0  3  0  0  0  0  0  0
    2.5380   -7.4470  -27.2850 C   0  0  0  0  0  2  0  0  0  0  0  0
    2.4140   -6.1600  -28.1520 C   0  0  1  0  0  3  0  0  0  0  0  0
    2.5640   -6.4010  -29.6300 C   0  0  0  0  0  3  0  0  0  0  0  0
    3.1460   -7.5120  -30.1070 C   0  0  0  0  0  3  0  0  0  0  0  0
    1.1640   -5.3610  -27.8290 N   0  0  0  0  0  4  0  0  0  0  0  0
    0.4610   -5.7250  -26.5210 C   0  0  0  0  0  2  0  0  0  0  0  0
   -0.8430   -4.9240  -26.4180 C   0  0  0  0  0  2  0  0  0  0  0  0
   -0.5890   -3.5160  -26.4940 O   0  0  0  0  0  0  0  0  0  0  0  0
    0.0230   -3.1450  -27.7340 C   0  0  0  0  0  2  0  0  0  0  0  0
    1.3730   -3.8510  -27.9070 C   0  0  0  0  0  2  0  0  0  0  0  0
    0.5010   -5.5910  -28.5780 H   0  0  0  0  0  0  0  0  0  0  0  0
    0.6730  -11.8950  -26.4580 C   0  0  0  0  0  2  0  0  0  0  0  0
   -2.0640   -8.7590  -22.0100 C   0  0  0  0  0  0  0  0  0  0  0  0
   -2.6360   -7.7120  -22.7510 C   0  0  0  0  0  3  0  0  0  0  0  0
   -2.4240   -7.6480  -24.1190 C   0  0  0  0  0  3  0  0  0  0  0  0
   -1.6410   -8.6240  -24.7290 C   0  0  0  0  0  3  0  0  0  0  0  0
   -1.0530   -9.6800  -23.9810 C   0  0  0  0  0  0  0  0  0  0  0  0
   -0.2540  -10.6990  -24.5390 C   0  0  0  0  0  0  0  0  0  0  0  0
   -0.0220  -10.7400  -25.9160 N   0  0  0  0  0  0  0  0  0  0  0  0
    0.2480  -11.6990  -23.7950 N   0  0  0  0  0  0  0  0  0  0  0  0
   -0.0290  -11.6800  -22.4920 C   0  0  0  0  0  3  0  0  0  0  0  0
   -0.7720  -10.7690  -21.8660 N   0  0  0  0  0  0  0  0  0  0  0  0
   -1.2730   -9.7570  -22.5940 C   0  0  0  0  0  0  0  0  0  0  0  0
    0.2230   -9.8520  -26.3340 H   0  0  0  0  0  0  0  0  0  0  0  0
   -2.5430   -9.9970  -19.9990 N   0  0  0  0  0  0  0  0  0  0  0  0
   -2.3020   -8.7690  -20.5510 C   0  0  0  0  0  0  0  0  0  0  0  0
   -2.3310   -7.7460  -19.8850 O   0  0  0  0  0  0  0  0  0  0  0  0
   -2.7090  -10.0310  -19.0000 H   0  0  0  0  0  0  0  0  0  0  0  0
   -2.5000  -10.8640  -20.5150 H   0  0  0  0  0  0  0  0  0  0  0  0
  1 24  1  0  0  0  0
  1  2  1  0  0  0  0
  3  2  2  0  0  0  0
  4  3  1  0  0  0  0
  5  6  1  0  0  0  0
  5  4  2  0  0  0  0
  6  1  2  0  0  0  0
  7  5  1  0  0  0  0
  8 11  1  0  0  0  0
  8  7  1  0  0  0  0
  9  8  2  0  0  0  0
 10  7  1  0  0  0  0
 11 12  2  0  0  0  0
 12 13  1  0  0  0  0
 14 15  1  6  0  0  0
 14 17  1  0  0  0  0
 14 13  1  0  0  0  0
 16 15  2  0  0  0  0
 16 11  1  0  0  0  0
 17 18  1  0  0  0  0
 18 19  1  0  0  0  0
 20 19  1  0  0  0  0
 21 20  1  0  0  0  0
 22 17  1  0  0  0  0
 22 21  1  0  0  0  0
 23 17  1  0  0  0  0
 24 31  1  0  0  0  0
 25 38  1  0  0  0  0
 26 25  2  0  0  0  0
 27 26  1  0  0  0  0
 28 27  2  0  0  0  0
 28 29  1  0  0  0  0
 29 35  1  0  0  0  0
 30 29  2  0  0  0  0
 30 32  1  0  0  0  0
 31 30  1  0  0  0  0
 32 33  2  0  0  0  0
 33 34  1  0  0  0  0
 35 25  1  0  0  0  0
 35 34  2  0  0  0  0
 36 31  1  0  0  0  0
 37 40  1  0  0  0  0
 38 37  1  0  0  0  0
 38 39  2  0  0  0  0
 41 37  1  0  0  0  0
M  END
>  <minimizedAffinity>
-6.01347351

$$$$
