
 OpenBabel10152418223D

 41 45  0  0  1  0  0  0  0  0999 V2000
    1.7280  -11.1830  -26.6670 C   0  0  0  0  0  0  0  0  0  0  0  0
    2.5610  -11.9820  -25.8730 C   0  0  0  0  0  3  0  0  0  0  0  0
    3.9470  -11.8490  -25.9430 C   0  0  0  0  0  3  0  0  0  0  0  0
    4.5190  -10.9300  -26.8240 C   0  0  0  0  0  3  0  0  0  0  0  0
    3.7140  -10.1520  -27.6570 C   0  0  0  0  0  0  0  0  0  0  0  0
    2.3220  -10.2700  -27.5550 C   0  0  0  0  0  3  0  0  0  0  0  0
    4.2090   -9.2080  -28.5760 N   0  0  0  0  0  0  0  0  0  0  0  0
    3.6960   -8.0320  -29.0450 C   0  0  0  0  0  0  0  0  0  0  0  0
    4.1810   -7.4860  -30.0350 O   0  0  0  0  0  0  0  0  0  0  0  0
    5.1030   -9.4250  -29.0060 H   0  0  0  0  0  0  0  0  0  0  0  0
    2.6080   -7.3470  -28.2820 C   0  0  0  0  0  0  0  0  0  0  0  0
    1.3590   -7.3990  -28.7760 C   0  0  0  0  0  3  0  0  0  0  0  0
    0.2020   -6.7190  -28.0950 C   0  0  0  0  0  2  0  0  0  0  0  0
    0.4810   -6.3160  -26.6170 C   0  0  1  0  0  3  0  0  0  0  0  0
    1.9360   -6.0790  -26.3110 C   0  0  0  0  0  3  0  0  0  0  0  0
    2.9090   -6.5580  -27.1020 C   0  0  0  0  0  3  0  0  0  0  0  0
   -0.3940   -5.1660  -26.1550 N   0  0  0  0  0  4  0  0  0  0  0  0
   -0.3660   -4.8690  -24.6560 C   0  0  0  0  0  2  0  0  0  0  0  0
   -1.3980   -3.7770  -24.3460 C   0  0  0  0  0  2  0  0  0  0  0  0
   -1.1410   -2.5940  -25.1120 O   0  0  0  0  0  0  0  0  0  0  0  0
   -1.2120   -2.8380  -26.5210 C   0  0  0  0  0  2  0  0  0  0  0  0
   -0.1710   -3.8790  -26.9470 C   0  0  0  0  0  2  0  0  0  0  0  0
   -1.3540   -5.4610  -26.3660 H   0  0  0  0  0  0  0  0  0  0  0  0
    0.2320  -11.4260  -26.6360 C   0  0  0  0  0  2  0  0  0  0  0  0
   -1.7500   -9.5490  -21.1900 C   0  0  0  0  0  0  0  0  0  0  0  0
   -1.7140  -10.7580  -20.4750 C   0  0  0  0  0  3  0  0  0  0  0  0
   -1.3270  -11.9210  -21.1200 C   0  0  0  0  0  3  0  0  0  0  0  0
   -0.9850  -11.8670  -22.4690 C   0  0  0  0  0  3  0  0  0  0  0  0
   -1.0300  -10.6470  -23.1970 C   0  0  0  0  0  0  0  0  0  0  0  0
   -0.6940  -10.5250  -24.5620 C   0  0  0  0  0  0  0  0  0  0  0  0
   -0.2510  -11.6370  -25.2820 N   0  0  0  0  0  0  0  0  0  0  0  0
   -0.7140   -9.3410  -25.1970 N   0  0  0  0  0  0  0  0  0  0  0  0
   -1.0830   -8.2790  -24.4830 C   0  0  0  0  0  3  0  0  0  0  0  0
   -1.4170   -8.2830  -23.1930 N   0  0  0  0  0  0  0  0  0  0  0  0
   -1.4120   -9.4610  -22.5470 C   0  0  0  0  0  0  0  0  0  0  0  0
   -0.7920  -12.4800  -25.1420 H   0  0  0  0  0  0  0  0  0  0  0  0
   -2.9920   -7.4850  -21.1670 N   0  0  0  0  0  0  0  0  0  0  0  0
   -2.1920   -8.3410  -20.4620 C   0  0  0  0  0  0  0  0  0  0  0  0
   -1.8290   -8.0940  -19.3220 O   0  0  0  0  0  0  0  0  0  0  0  0
   -3.3080   -6.6480  -20.6900 H   0  0  0  0  0  0  0  0  0  0  0  0
   -3.3310   -7.6720  -22.0990 H   0  0  0  0  0  0  0  0  0  0  0  0
  1 24  1  0  0  0  0
  1  2  1  0  0  0  0
  3  2  2  0  0  0  0
  4  3  1  0  0  0  0
  5  6  1  0  0  0  0
  5  4  2  0  0  0  0
  6  1  2  0  0  0  0
  7  5  1  0  0  0  0
  8  7  1  0  0  0  0
  8 11  1  0  0  0  0
  9  8  2  0  0  0  0
 10  7  1  0  0  0  0
 11 16  1  0  0  0  0
 12 11  2  0  0  0  0
 12 13  1  0  0  0  0
 14 13  1  6  0  0  0
 14 15  1  0  0  0  0
 14 17  1  0  0  0  0
 16 15  2  0  0  0  0
 17 18  1  0  0  0  0
 18 19  1  0  0  0  0
 20 19  1  0  0  0  0
 21 20  1  0  0  0  0
 22 21  1  0  0  0  0
 22 17  1  0  0  0  0
 23 17  1  0  0  0  0
 24 31  1  0  0  0  0
 25 26  1  0  0  0  0
 25 38  1  0  0  0  0
 27 26  2  0  0  0  0
 28 27  1  0  0  0  0
 29 35  1  0  0  0  0
 29 28  2  0  0  0  0
 30 29  1  0  0  0  0
 31 36  1  0  0  0  0
 31 30  1  0  0  0  0
 32 30  2  0  0  0  0
 32 33  1  0  0  0  0
 33 34  2  0  0  0  0
 34 35  1  0  0  0  0
 35 25  2  0  0  0  0
 37 40  1  0  0  0  0
 37 38  1  0  0  0  0
 38 39  2  0  0  0  0
 41 37  1  0  0  0  0
M  END
>  <minimizedAffinity>
-3.91786957

$$$$
