
 OpenBabel11232420393D

 37 41  0  0  1  0  0  0  0  0999 V2000
  -18.7310   21.4670   10.8880 C   0  0  0  0  0  0  0  0  0  0  0  0
  -18.1160   20.7360    9.8990 C   0  0  0  0  0  3  0  0  0  0  0  0
  -18.6860   19.4880    9.9590 N   0  0  0  0  0  0  0  0  0  0  0  0
  -19.6710   19.5200   10.9210 C   0  0  0  0  0  0  0  0  0  0  0  0
  -19.6320   20.6740   11.5520 N   0  0  0  0  0  0  0  0  0  0  0  0
  -17.5940   25.0500   10.7800 C   0  0  0  0  0  0  0  0  0  0  0  0
  -17.7150   23.7020   10.4370 C   0  0  0  0  0  3  0  0  0  0  0  0
  -18.5130   22.8640   11.2230 C   0  0  0  0  0  0  0  0  0  0  0  0
  -19.1530   23.4040   12.3370 C   0  0  0  0  0  3  0  0  0  0  0  0
  -18.9620   24.7420   12.6250 C   0  0  0  0  0  3  0  0  0  0  0  0
  -18.1970   25.5630   11.8780 N   0  0  0  0  0  0  0  0  0  0  0  0
  -16.2960   27.1880   10.8320 C   0  0  0  0  0  1  0  0  0  0  0  0
  -16.7740   26.0280    9.9610 C   0  0  0  0  0  3  0  0  0  0  0  0
  -15.6000   25.3740    9.2270 C   0  0  0  0  0  1  0  0  0  0  0  0
  -20.6720   18.4270   11.2010 C   0  0  2  0  0  3  0  0  0  0  0  0
  -21.5290   18.7720   12.4280 C   0  0  0  0  0  2  0  0  0  0  0  0
  -20.8120   18.4950   13.7500 C   0  0  0  0  0  2  0  0  0  0  0  0
  -20.2520   17.1470   13.7680 N   0  0  0  0  0  0  0  0  0  0  0  0
  -19.3190   16.8330   12.6920 C   0  0  0  0  0  2  0  0  0  0  0  0
  -19.9960   17.0520   11.3360 C   0  0  0  0  0  2  0  0  0  0  0  0
  -21.0360   16.1120   14.2680 C   0  0  0  0  0  0  0  0  0  0  0  0
  -21.7210   15.3750   13.3680 N   0  0  0  0  0  0  0  0  0  0  0  0
  -22.4580   14.3620   13.8430 C   0  0  0  0  0  3  0  0  0  0  0  0
  -22.5760   14.0010   15.1240 N   0  0  0  0  0  0  0  0  0  0  0  0
  -21.9210   14.7590   16.0120 C   0  0  0  0  0  0  0  0  0  0  0  0
  -22.0480   14.3490   17.3300 N   0  0  0  0  0  0  0  0  0  0  0  0
  -21.1220   15.8340   15.6340 C   0  0  0  0  0  0  0  0  0  0  0  0
  -20.2910   16.9210   16.9600 Br  0  0  0  0  0  0  0  0  0  0  0  0
  -22.6740   13.5630   17.4500 H   0  0  0  0  0  0  0  0  0  0  0  0
  -22.0580   15.0660   18.0430 H   0  0  0  0  0  0  0  0  0  0  0  0
  -18.2430   18.3570    9.1670 C   0  0  0  0  0  2  0  0  0  0  0  0
  -17.7330   18.7860    7.7830 C   0  0  0  0  0  2  0  0  0  0  0  0
  -16.2390   18.7610    7.6890 N   0  0  0  0  0  4  0  0  0  0  0  0
  -15.7440   18.2990    6.3750 C   0  0  0  0  0  2  0  0  0  0  0  0
  -14.7320   19.4510    6.4140 C   0  0  0  0  0  2  0  0  0  0  0  0
  -15.7030   20.1140    7.3990 C   0  0  0  0  0  2  0  0  0  0  0  0
  -15.7680   18.3290    8.5010 H   0  0  0  0  0  0  0  0  0  0  0  0
  1  8  1  0  0  0  0
  1  5  1  0  0  0  0
  2  3  1  0  0  0  0
  2  1  2  0  0  0  0
  3  4  1  0  0  0  0
  4  5  2  0  0  0  0
  6 11  1  0  0  0  0
  7  6  2  0  0  0  0
  7  8  1  0  0  0  0
  8  9  2  0  0  0  0
  9 10  1  0  0  0  0
 11 10  2  0  0  0  0
 13  6  1  0  0  0  0
 13 12  1  0  0  0  0
 14 13  1  0  0  0  0
 15  4  1  1  0  0  0
 15 20  1  0  0  0  0
 15 16  1  0  0  0  0
 16 17  1  0  0  0  0
 17 18  1  0  0  0  0
 18 21  1  0  0  0  0
 19 18  1  0  0  0  0
 20 19  1  0  0  0  0
 21 27  1  0  0  0  0
 22 23  1  0  0  0  0
 22 21  2  0  0  0  0
 23 24  2  0  0  0  0
 24 25  1  0  0  0  0
 25 26  1  0  0  0  0
 26 29  1  0  0  0  0
 26 30  1  0  0  0  0
 27 25  2  0  0  0  0
 27 28  1  0  0  0  0
 31  3  1  0  0  0  0
 32 31  1  0  0  0  0
 33 32  1  0  0  0  0
 33 37  1  0  0  0  0
 34 35  1  0  0  0  0
 34 33  1  0  0  0  0
 35 36  1  0  0  0  0
 36 33  1  0  0  0  0
M  END
>  <minimizedAffinity>
-9.13134193

$$$$
