
 OpenBabel11232420393D

 37 41  0  0  1  0  0  0  0  0999 V2000
  -20.2050   19.4130   11.4730 C   0  0  0  0  0  0  0  0  0  0  0  0
  -19.9200   18.7340   10.3110 C   0  0  0  0  0  3  0  0  0  0  0  0
  -19.0780   19.5570    9.6040 N   0  0  0  0  0  0  0  0  0  0  0  0
  -18.8210   20.6650   10.3800 C   0  0  0  0  0  0  0  0  0  0  0  0
  -19.5760   20.6320   11.4570 N   0  0  0  0  0  0  0  0  0  0  0  0
  -21.8160   17.2740   14.1110 C   0  0  0  0  0  0  0  0  0  0  0  0
  -21.0500   17.6300   13.0000 C   0  0  0  0  0  3  0  0  0  0  0  0
  -21.0280   18.9640   12.5820 C   0  0  0  0  0  0  0  0  0  0  0  0
  -21.7900   19.8970   13.2860 C   0  0  0  0  0  3  0  0  0  0  0  0
  -22.5420   19.4610   14.3590 C   0  0  0  0  0  3  0  0  0  0  0  0
  -22.5740   18.1790   14.7750 N   0  0  0  0  0  0  0  0  0  0  0  0
  -23.2710   15.5190   15.1430 C   0  0  0  0  0  1  0  0  0  0  0  0
  -21.8670   15.8550   14.6450 C   0  0  0  0  0  3  0  0  0  0  0  0
  -21.3760   14.8080   13.6410 C   0  0  0  0  0  1  0  0  0  0  0  0
  -17.8100   21.7440   10.0780 C   0  0  2  0  0  3  0  0  0  0  0  0
  -17.2220   22.3200   11.3750 C   0  0  0  0  0  2  0  0  0  0  0  0
  -18.1480   23.3350   12.0470 C   0  0  0  0  0  2  0  0  0  0  0  0
  -18.6010   24.3420   11.0930 N   0  0  0  0  0  0  0  0  0  0  0  0
  -19.2930   23.8340    9.9140 C   0  0  0  0  0  2  0  0  0  0  0  0
  -18.3960   22.8400    9.1720 C   0  0  0  0  0  2  0  0  0  0  0  0
  -17.8480   25.5040   10.9500 C   0  0  0  0  0  0  0  0  0  0  0  0
  -16.5290   25.3510   10.7040 N   0  0  0  0  0  0  0  0  0  0  0  0
  -15.8050   26.4660   10.5420 C   0  0  0  0  0  3  0  0  0  0  0  0
  -16.2610   27.7210   10.5920 N   0  0  0  0  0  0  0  0  0  0  0  0
  -17.5630   27.8640   10.8720 C   0  0  0  0  0  0  0  0  0  0  0  0
  -18.0110   29.1750   10.8990 N   0  0  0  0  0  0  0  0  0  0  0  0
  -18.4130   26.7770   11.0550 C   0  0  0  0  0  0  0  0  0  0  0  0
  -20.2350   27.0570   11.5380 Br  0  0  0  0  0  0  0  0  0  0  0  0
  -17.2740   29.8560   10.7640 H   0  0  0  0  0  0  0  0  0  0  0  0
  -18.7430   29.4050   11.5570 H   0  0  0  0  0  0  0  0  0  0  0  0
  -18.6240   19.2840    8.2540 C   0  0  0  0  0  2  0  0  0  0  0  0
  -17.3630   18.4080    8.2360 C   0  0  0  0  0  2  0  0  0  0  0  0
  -16.4450   18.7480    7.1020 N   0  0  0  0  0  4  0  0  0  0  0  0
  -17.1020   19.5280    6.0330 C   0  0  0  0  0  2  0  0  0  0  0  0
  -15.8590   20.4270    6.0020 C   0  0  0  0  0  2  0  0  0  0  0  0
  -15.6100   19.9300    7.4320 C   0  0  0  0  0  2  0  0  0  0  0  0
  -15.8710   17.9560    6.7670 H   0  0  0  0  0  0  0  0  0  0  0  0
  1  8  1  0  0  0  0
  2  1  2  0  0  0  0
  3  2  1  0  0  0  0
  3  4  1  0  0  0  0
  4  5  2  0  0  0  0
  5  1  1  0  0  0  0
  6 13  1  0  0  0  0
  6 11  1  0  0  0  0
  7  6  2  0  0  0  0
  8  7  1  0  0  0  0
  8  9  2  0  0  0  0
  9 10  1  0  0  0  0
 10 11  2  0  0  0  0
 13 12  1  0  0  0  0
 14 13  1  0  0  0  0
 15  4  1  1  0  0  0
 15 16  1  0  0  0  0
 16 17  1  0  0  0  0
 18 17  1  0  0  0  0
 19 18  1  0  0  0  0
 20 19  1  0  0  0  0
 20 15  1  0  0  0  0
 21 27  1  0  0  0  0
 21 18  1  0  0  0  0
 22 21  2  0  0  0  0
 23 24  2  0  0  0  0
 23 22  1  0  0  0  0
 24 25  1  0  0  0  0
 25 26  1  0  0  0  0
 25 27  2  0  0  0  0
 26 30  1  0  0  0  0
 27 28  1  0  0  0  0
 29 26  1  0  0  0  0
 31  3  1  0  0  0  0
 32 31  1  0  0  0  0
 33 36  1  0  0  0  0
 33 32  1  0  0  0  0
 34 33  1  0  0  0  0
 35 34  1  0  0  0  0
 35 36  1  0  0  0  0
 37 33  1  0  0  0  0
M  END
>  <minimizedAffinity>
-10.274888

$$$$
