
 OpenBabel11232420393D

 37 41  0  0  1  0  0  0  0  0999 V2000
  -19.8830   19.8450   11.1570 C   0  0  0  0  0  0  0  0  0  0  0  0
  -19.0280   19.8500   10.0790 C   0  0  0  0  0  3  0  0  0  0  0  0
  -19.1470   21.1000    9.5240 N   0  0  0  0  0  0  0  0  0  0  0  0
  -20.0050   21.8330   10.3140 C   0  0  0  0  0  0  0  0  0  0  0  0
  -20.5280   21.0530   11.2350 N   0  0  0  0  0  0  0  0  0  0  0  0
  -21.0270   17.8770   14.1490 C   0  0  0  0  0  0  0  0  0  0  0  0
  -20.7910   18.9660   13.3090 C   0  0  0  0  0  3  0  0  0  0  0  0
  -20.1080   18.7670   12.1050 C   0  0  0  0  0  0  0  0  0  0  0  0
  -19.6710   17.4820   11.7900 C   0  0  0  0  0  3  0  0  0  0  0  0
  -19.9210   16.4610   12.6860 C   0  0  0  0  0  3  0  0  0  0  0  0
  -20.5780   16.6350   13.8500 N   0  0  0  0  0  0  0  0  0  0  0  0
  -20.8350   17.8800   16.6440 C   0  0  0  0  0  1  0  0  0  0  0  0
  -21.7870   18.0060   15.4550 C   0  0  0  0  0  3  0  0  0  0  0  0
  -22.6190   19.2870   15.5530 C   0  0  0  0  0  1  0  0  0  0  0  0
  -20.2870   23.3090   10.1820 C   0  0  2  0  0  3  0  0  0  0  0  0
  -19.1390   24.0220    9.4520 C   0  0  0  0  0  2  0  0  0  0  0  0
  -17.9410   24.3020   10.3600 C   0  0  0  0  0  2  0  0  0  0  0  0
  -18.3630   24.9530   11.5970 N   0  0  0  0  0  0  0  0  0  0  0  0
  -19.3510   24.2300   12.3900 C   0  0  0  0  0  2  0  0  0  0  0  0
  -20.5970   23.9560   11.5430 C   0  0  0  0  0  2  0  0  0  0  0  0
  -18.3940   26.3430   11.6340 C   0  0  0  0  0  0  0  0  0  0  0  0
  -19.5270   26.9170   12.0930 N   0  0  0  0  0  0  0  0  0  0  0  0
  -19.5530   28.2550   12.1540 C   0  0  0  0  0  3  0  0  0  0  0  0
  -18.5610   29.0820   11.8120 N   0  0  0  0  0  0  0  0  0  0  0  0
  -17.4540   28.5060   11.3250 C   0  0  0  0  0  0  0  0  0  0  0  0
  -16.4370   29.3890   10.9980 N   0  0  0  0  0  0  0  0  0  0  0  0
  -17.3130   27.1260   11.2200 C   0  0  0  0  0  0  0  0  0  0  0  0
  -15.7450   26.3810   10.4360 Br  0  0  0  0  0  0  0  0  0  0  0  0
  -16.6930   30.3620   11.1120 H   0  0  0  0  0  0  0  0  0  0  0  0
  -15.8500   29.1520   10.2090 H   0  0  0  0  0  0  0  0  0  0  0  0
  -18.5080   21.4990    8.2850 C   0  0  0  0  0  2  0  0  0  0  0  0
  -17.0130   21.1480    8.2680 C   0  0  0  0  0  2  0  0  0  0  0  0
  -16.5880   20.5100    6.9810 N   0  0  0  0  0  4  0  0  0  0  0  0
  -15.2630   19.8590    7.0620 C   0  0  0  0  0  2  0  0  0  0  0  0
  -15.8630   18.6690    6.3030 C   0  0  0  0  0  2  0  0  0  0  0  0
  -17.2170   19.1750    6.8190 C   0  0  0  0  0  2  0  0  0  0  0  0
  -16.7260   21.1020    6.1460 H   0  0  0  0  0  0  0  0  0  0  0  0
  1  5  1  0  0  0  0
  1  8  1  0  0  0  0
  2  1  2  0  0  0  0
  3  2  1  0  0  0  0
  3  4  1  0  0  0  0
  4  5  2  0  0  0  0
  6 13  1  0  0  0  0
  7  6  2  0  0  0  0
  8  7  1  0  0  0  0
  9  8  2  0  0  0  0
  9 10  1  0  0  0  0
 10 11  2  0  0  0  0
 11  6  1  0  0  0  0
 13 14  1  0  0  0  0
 13 12  1  0  0  0  0
 15  4  1  1  0  0  0
 15 20  1  0  0  0  0
 16 15  1  0  0  0  0
 16 17  1  0  0  0  0
 17 18  1  0  0  0  0
 18 21  1  0  0  0  0
 18 19  1  0  0  0  0
 20 19  1  0  0  0  0
 21 22  1  0  0  0  0
 22 23  2  0  0  0  0
 24 23  1  0  0  0  0
 25 24  2  0  0  0  0
 26 29  1  0  0  0  0
 26 25  1  0  0  0  0
 27 25  1  0  0  0  0
 27 21  2  0  0  0  0
 28 27  1  0  0  0  0
 30 26  1  0  0  0  0
 31  3  1  0  0  0  0
 32 31  1  0  0  0  0
 33 34  1  0  0  0  0
 33 32  1  0  0  0  0
 35 36  1  0  0  0  0
 35 34  1  0  0  0  0
 36 33  1  0  0  0  0
 37 33  1  0  0  0  0
M  END
>  <minimizedAffinity>
-9.68615055

$$$$
