
 OpenBabel11232420393D

 37 41  0  0  1  0  0  0  0  0999 V2000
  -19.6480   22.6570   11.3970 C   0  0  0  0  0  0  0  0  0  0  0  0
  -18.8830   21.9140   10.5270 C   0  0  0  0  0  3  0  0  0  0  0  0
  -19.3780   20.6360   10.6040 N   0  0  0  0  0  0  0  0  0  0  0  0
  -20.4630   20.6540   11.4520 C   0  0  0  0  0  0  0  0  0  0  0  0
  -20.5650   21.8410   12.0100 N   0  0  0  0  0  0  0  0  0  0  0  0
  -18.3700   26.1820   11.6710 C   0  0  0  0  0  0  0  0  0  0  0  0
  -18.3760   24.8030   11.4520 C   0  0  0  0  0  3  0  0  0  0  0  0
  -19.5550   24.0820   11.6640 C   0  0  0  0  0  0  0  0  0  0  0  0
  -20.6870   24.7660   12.1050 C   0  0  0  0  0  3  0  0  0  0  0  0
  -20.5930   26.1260   12.3240 C   0  0  0  0  0  3  0  0  0  0  0  0
  -19.4650   26.8380   12.1230 N   0  0  0  0  0  0  0  0  0  0  0  0
  -16.3270   26.4930   10.2600 C   0  0  0  0  0  1  0  0  0  0  0  0
  -17.1410   27.0380   11.4330 C   0  0  0  0  0  3  0  0  0  0  0  0
  -17.4610   28.5220   11.2350 C   0  0  0  0  0  1  0  0  0  0  0  0
  -21.4190   19.5120   11.6920 C   0  0  2  0  0  3  0  0  0  0  0  0
  -22.6050   19.9660   12.5570 C   0  0  0  0  0  2  0  0  0  0  0  0
  -22.2630   20.0310   14.0460 C   0  0  0  0  0  2  0  0  0  0  0  0
  -21.6320   18.7930   14.4930 N   0  0  0  0  0  0  0  0  0  0  0  0
  -20.4170   18.4080   13.7840 C   0  0  0  0  0  2  0  0  0  0  0  0
  -20.7070   18.2840   12.2850 C   0  0  0  0  0  2  0  0  0  0  0  0
  -22.4450   17.7760   14.9840 C   0  0  0  0  0  0  0  0  0  0  0  0
  -22.6340   16.7060   14.1840 N   0  0  0  0  0  0  0  0  0  0  0  0
  -23.3960   15.7130   14.6620 C   0  0  0  0  0  3  0  0  0  0  0  0
  -23.9840   15.6730   15.8610 N   0  0  0  0  0  0  0  0  0  0  0  0
  -23.8200   16.7550   16.6340 C   0  0  0  0  0  0  0  0  0  0  0  0
  -24.4250   16.6770   17.8780 N   0  0  0  0  0  0  0  0  0  0  0  0
  -23.0460   17.8440   16.2430 C   0  0  0  0  0  0  0  0  0  0  0  0
  -22.9300   19.3850   17.3570 Br  0  0  0  0  0  0  0  0  0  0  0  0
  -24.9670   15.8320   18.0120 H   0  0  0  0  0  0  0  0  0  0  0  0
  -24.7920   17.5320   18.2730 H   0  0  0  0  0  0  0  0  0  0  0  0
  -18.7810   19.4960    9.9370 C   0  0  0  0  0  2  0  0  0  0  0  0
  -17.5420   19.8890    9.1190 C   0  0  0  0  0  2  0  0  0  0  0  0
  -17.4940   19.2080    7.7860 N   0  0  0  0  0  4  0  0  0  0  0  0
  -17.5590   20.1480    6.6480 C   0  0  0  0  0  2  0  0  0  0  0  0
  -16.4330   19.3410    5.9890 C   0  0  0  0  0  2  0  0  0  0  0  0
  -16.0980   18.8730    7.4120 C   0  0  0  0  0  2  0  0  0  0  0  0
  -18.1190   18.3890    7.7040 H   0  0  0  0  0  0  0  0  0  0  0  0
  1  8  1  0  0  0  0
  1  5  1  0  0  0  0
  2  3  1  0  0  0  0
  2  1  2  0  0  0  0
  3  4  1  0  0  0  0
  4  5  2  0  0  0  0
  6 11  1  0  0  0  0
  7  8  1  0  0  0  0
  7  6  2  0  0  0  0
  8  9  2  0  0  0  0
  9 10  1  0  0  0  0
 11 10  2  0  0  0  0
 12 13  1  0  0  0  0
 13  6  1  0  0  0  0
 14 13  1  0  0  0  0
 15  4  1  1  0  0  0
 15 20  1  0  0  0  0
 15 16  1  0  0  0  0
 16 17  1  0  0  0  0
 17 18  1  0  0  0  0
 18 21  1  0  0  0  0
 19 18  1  0  0  0  0
 20 19  1  0  0  0  0
 21 27  1  0  0  0  0
 22 23  1  0  0  0  0
 22 21  2  0  0  0  0
 23 24  2  0  0  0  0
 24 25  1  0  0  0  0
 25 26  1  0  0  0  0
 26 29  1  0  0  0  0
 26 30  1  0  0  0  0
 27 25  2  0  0  0  0
 27 28  1  0  0  0  0
 31  3  1  0  0  0  0
 32 31  1  0  0  0  0
 33 32  1  0  0  0  0
 34 33  1  0  0  0  0
 35 34  1  0  0  0  0
 35 36  1  0  0  0  0
 36 33  1  0  0  0  0
 37 33  1  0  0  0  0
M  END
>  <minimizedAffinity>
-8.75211811

$$$$
