
 OpenBabel11232420393D

 37 41  0  0  1  0  0  0  0  0999 V2000
  -19.4210   18.7880   10.4270 C   0  0  0  0  0  0  0  0  0  0  0  0
  -18.7700   18.2440    9.3440 C   0  0  0  0  0  3  0  0  0  0  0  0
  -18.3320   19.3140    8.6050 N   0  0  0  0  0  0  0  0  0  0  0  0
  -18.6620   20.4630    9.2890 C   0  0  0  0  0  0  0  0  0  0  0  0
  -19.4050   20.1570   10.3300 N   0  0  0  0  0  0  0  0  0  0  0  0
  -21.4690   17.9870   13.4760 C   0  0  0  0  0  0  0  0  0  0  0  0
  -20.8540   18.7330   12.4690 C   0  0  0  0  0  3  0  0  0  0  0  0
  -20.0420   18.0830   11.5350 C   0  0  0  0  0  0  0  0  0  0  0  0
  -19.8630   16.7050   11.6490 C   0  0  0  0  0  3  0  0  0  0  0  0
  -20.4850   16.0420   12.6890 C   0  0  0  0  0  3  0  0  0  0  0  0
  -21.2710   16.6530   13.5980 N   0  0  0  0  0  0  0  0  0  0  0  0
  -21.7770   18.5100   15.9040 C   0  0  0  0  0  1  0  0  0  0  0  0
  -22.3880   18.6140   14.5070 C   0  0  0  0  0  3  0  0  0  0  0  0
  -22.7720   20.0600   14.1830 C   0  0  0  0  0  1  0  0  0  0  0  0
  -18.2210   21.8620    8.9360 C   0  0  2  0  0  3  0  0  0  0  0  0
  -16.9560   22.2500    9.7180 C   0  0  0  0  0  2  0  0  0  0  0  0
  -17.2550   22.6750   11.1560 C   0  0  0  0  0  2  0  0  0  0  0  0
  -18.3170   23.6760   11.1960 N   0  0  0  0  0  0  0  0  0  0  0  0
  -19.5820   23.2830   10.5860 C   0  0  0  0  0  2  0  0  0  0  0  0
  -19.3540   22.8850    9.1250 C   0  0  0  0  0  2  0  0  0  0  0  0
  -17.9610   25.0200   11.1410 C   0  0  0  0  0  0  0  0  0  0  0  0
  -16.7110   25.3040   10.7190 N   0  0  0  0  0  0  0  0  0  0  0  0
  -16.3720   26.5980   10.6410 C   0  0  0  0  0  3  0  0  0  0  0  0
  -17.1550   27.6400   10.9320 N   0  0  0  0  0  0  0  0  0  0  0  0
  -18.3820   27.3480   11.3840 C   0  0  0  0  0  0  0  0  0  0  0  0
  -19.1760   28.4490   11.6600 N   0  0  0  0  0  0  0  0  0  0  0  0
  -18.8440   26.0410   11.5020 C   0  0  0  0  0  0  0  0  0  0  0  0
  -20.5690   25.6980   12.2340 Br  0  0  0  0  0  0  0  0  0  0  0  0
  -18.6970   29.3330   11.5420 H   0  0  0  0  0  0  0  0  0  0  0  0
  -19.8300   28.3730   12.4280 H   0  0  0  0  0  0  0  0  0  0  0  0
  -17.6980   19.1950    7.3060 C   0  0  0  0  0  2  0  0  0  0  0  0
  -16.1690   19.3160    7.3970 C   0  0  0  0  0  2  0  0  0  0  0  0
  -15.6510   20.5600    6.7460 N   0  0  0  0  0  4  0  0  0  0  0  0
  -14.7360   20.2920    5.6170 C   0  0  0  0  0  2  0  0  0  0  0  0
  -15.4790   21.3770    4.8290 C   0  0  0  0  0  2  0  0  0  0  0  0
  -16.6440   21.1110    5.7900 C   0  0  0  0  0  2  0  0  0  0  0  0
  -15.3180   21.2800    7.4080 H   0  0  0  0  0  0  0  0  0  0  0  0
  1  8  1  0  0  0  0
  2  1  2  0  0  0  0
  3  4  1  0  0  0  0
  3  2  1  0  0  0  0
  4  5  2  0  0  0  0
  5  1  1  0  0  0  0
  6 11  1  0  0  0  0
  6 13  1  0  0  0  0
  7  6  2  0  0  0  0
  8  9  2  0  0  0  0
  8  7  1  0  0  0  0
  9 10  1  0  0  0  0
 10 11  2  0  0  0  0
 13 12  1  0  0  0  0
 14 13  1  0  0  0  0
 15 20  1  0  0  0  0
 15  4  1  1  0  0  0
 15 16  1  0  0  0  0
 16 17  1  0  0  0  0
 17 18  1  0  0  0  0
 19 18  1  0  0  0  0
 20 19  1  0  0  0  0
 21 18  1  0  0  0  0
 21 27  1  0  0  0  0
 22 21  2  0  0  0  0
 23 22  1  0  0  0  0
 23 24  2  0  0  0  0
 24 25  1  0  0  0  0
 25 27  2  0  0  0  0
 25 26  1  0  0  0  0
 26 30  1  0  0  0  0
 27 28  1  0  0  0  0
 29 26  1  0  0  0  0
 31 32  1  0  0  0  0
 31  3  1  0  0  0  0
 33 32  1  0  0  0  0
 33 37  1  0  0  0  0
 34 33  1  0  0  0  0
 35 34  1  0  0  0  0
 35 36  1  0  0  0  0
 36 33  1  0  0  0  0
M  END
>  <minimizedAffinity>
-10.7352161

$$$$

 OpenBabel11232420393D

 37 41  0  0  1  0  0  0  0  0999 V2000
  -20.2050   19.4130   11.4730 C   0  0  0  0  0  0  0  0  0  0  0  0
  -19.9200   18.7340   10.3110 C   0  0  0  0  0  3  0  0  0  0  0  0
  -19.0780   19.5570    9.6040 N   0  0  0  0  0  0  0  0  0  0  0  0
  -18.8210   20.6650   10.3800 C   0  0  0  0  0  0  0  0  0  0  0  0
  -19.5760   20.6320   11.4570 N   0  0  0  0  0  0  0  0  0  0  0  0
  -21.8160   17.2740   14.1110 C   0  0  0  0  0  0  0  0  0  0  0  0
  -21.0500   17.6300   13.0000 C   0  0  0  0  0  3  0  0  0  0  0  0
  -21.0280   18.9640   12.5820 C   0  0  0  0  0  0  0  0  0  0  0  0
  -21.7900   19.8970   13.2860 C   0  0  0  0  0  3  0  0  0  0  0  0
  -22.5420   19.4610   14.3590 C   0  0  0  0  0  3  0  0  0  0  0  0
  -22.5740   18.1790   14.7750 N   0  0  0  0  0  0  0  0  0  0  0  0
  -23.2710   15.5190   15.1430 C   0  0  0  0  0  1  0  0  0  0  0  0
  -21.8670   15.8550   14.6450 C   0  0  0  0  0  3  0  0  0  0  0  0
  -21.3760   14.8080   13.6410 C   0  0  0  0  0  1  0  0  0  0  0  0
  -17.8100   21.7440   10.0780 C   0  0  2  0  0  3  0  0  0  0  0  0
  -17.2220   22.3200   11.3750 C   0  0  0  0  0  2  0  0  0  0  0  0
  -18.1480   23.3350   12.0470 C   0  0  0  0  0  2  0  0  0  0  0  0
  -18.6010   24.3420   11.0930 N   0  0  0  0  0  0  0  0  0  0  0  0
  -19.2930   23.8340    9.9140 C   0  0  0  0  0  2  0  0  0  0  0  0
  -18.3960   22.8400    9.1720 C   0  0  0  0  0  2  0  0  0  0  0  0
  -17.8480   25.5040   10.9500 C   0  0  0  0  0  0  0  0  0  0  0  0
  -16.5290   25.3510   10.7040 N   0  0  0  0  0  0  0  0  0  0  0  0
  -15.8050   26.4660   10.5420 C   0  0  0  0  0  3  0  0  0  0  0  0
  -16.2610   27.7210   10.5920 N   0  0  0  0  0  0  0  0  0  0  0  0
  -17.5630   27.8640   10.8720 C   0  0  0  0  0  0  0  0  0  0  0  0
  -18.0110   29.1750   10.8990 N   0  0  0  0  0  0  0  0  0  0  0  0
  -18.4130   26.7770   11.0550 C   0  0  0  0  0  0  0  0  0  0  0  0
  -20.2350   27.0570   11.5380 Br  0  0  0  0  0  0  0  0  0  0  0  0
  -17.2740   29.8560   10.7640 H   0  0  0  0  0  0  0  0  0  0  0  0
  -18.7430   29.4050   11.5570 H   0  0  0  0  0  0  0  0  0  0  0  0
  -18.6240   19.2840    8.2540 C   0  0  0  0  0  2  0  0  0  0  0  0
  -17.3630   18.4080    8.2360 C   0  0  0  0  0  2  0  0  0  0  0  0
  -16.4450   18.7480    7.1020 N   0  0  0  0  0  4  0  0  0  0  0  0
  -17.1020   19.5280    6.0330 C   0  0  0  0  0  2  0  0  0  0  0  0
  -15.8590   20.4270    6.0020 C   0  0  0  0  0  2  0  0  0  0  0  0
  -15.6100   19.9300    7.4320 C   0  0  0  0  0  2  0  0  0  0  0  0
  -15.8710   17.9560    6.7670 H   0  0  0  0  0  0  0  0  0  0  0  0
  1  8  1  0  0  0  0
  2  1  2  0  0  0  0
  3  2  1  0  0  0  0
  3  4  1  0  0  0  0
  4  5  2  0  0  0  0
  5  1  1  0  0  0  0
  6 13  1  0  0  0  0
  6 11  1  0  0  0  0
  7  6  2  0  0  0  0
  8  7  1  0  0  0  0
  8  9  2  0  0  0  0
  9 10  1  0  0  0  0
 10 11  2  0  0  0  0
 13 12  1  0  0  0  0
 14 13  1  0  0  0  0
 15  4  1  1  0  0  0
 15 16  1  0  0  0  0
 16 17  1  0  0  0  0
 18 17  1  0  0  0  0
 19 18  1  0  0  0  0
 20 19  1  0  0  0  0
 20 15  1  0  0  0  0
 21 27  1  0  0  0  0
 21 18  1  0  0  0  0
 22 21  2  0  0  0  0
 23 24  2  0  0  0  0
 23 22  1  0  0  0  0
 24 25  1  0  0  0  0
 25 26  1  0  0  0  0
 25 27  2  0  0  0  0
 26 30  1  0  0  0  0
 27 28  1  0  0  0  0
 29 26  1  0  0  0  0
 31  3  1  0  0  0  0
 32 31  1  0  0  0  0
 33 36  1  0  0  0  0
 33 32  1  0  0  0  0
 34 33  1  0  0  0  0
 35 34  1  0  0  0  0
 35 36  1  0  0  0  0
 37 33  1  0  0  0  0
M  END
>  <minimizedAffinity>
-10.274888

$$$$

 OpenBabel11232420393D

 37 41  0  0  1  0  0  0  0  0999 V2000
  -18.8450   20.4150    9.8880 C   0  0  0  0  0  0  0  0  0  0  0  0
  -19.7200   19.6720   10.6460 C   0  0  0  0  0  3  0  0  0  0  0  0
  -20.2270   20.5440   11.5770 N   0  0  0  0  0  0  0  0  0  0  0  0
  -19.7080   21.7920   11.3150 C   0  0  0  0  0  0  0  0  0  0  0  0
  -18.8000   21.7000   10.3680 N   0  0  0  0  0  0  0  0  0  0  0  0
  -16.7560   20.3860    6.7610 C   0  0  0  0  0  0  0  0  0  0  0  0
  -17.5460   20.8700    7.8060 C   0  0  0  0  0  3  0  0  0  0  0  0
  -18.0670   19.9730    8.7430 C   0  0  0  0  0  0  0  0  0  0  0  0
  -17.7900   18.6140    8.5930 C   0  0  0  0  0  3  0  0  0  0  0  0
  -17.0220   18.2120    7.5180 C   0  0  0  0  0  3  0  0  0  0  0  0
  -16.5110   19.0630    6.6060 N   0  0  0  0  0  0  0  0  0  0  0  0
  -14.7740   20.7520    5.2790 C   0  0  0  0  0  1  0  0  0  0  0  0
  -16.1300   21.2990    5.7250 C   0  0  0  0  0  3  0  0  0  0  0  0
  -17.0360   21.5670    4.5210 C   0  0  0  0  0  1  0  0  0  0  0  0
  -20.1260   23.0820   11.9750 C   0  0  2  0  0  3  0  0  0  0  0  0
  -20.6920   24.0670   10.9400 C   0  0  0  0  0  2  0  0  0  0  0  0
  -19.6010   24.7900   10.1500 C   0  0  0  0  0  2  0  0  0  0  0  0
  -18.6020   25.3670   11.0450 N   0  0  0  0  0  0  0  0  0  0  0  0
  -17.9400   24.4300   11.9460 C   0  0  0  0  0  2  0  0  0  0  0  0
  -18.9830   23.7020   12.7980 C   0  0  0  0  0  2  0  0  0  0  0  0
  -18.7900   26.6710   11.4920 C   0  0  0  0  0  0  0  0  0  0  0  0
  -20.0180   26.9880   11.9540 N   0  0  0  0  0  0  0  0  0  0  0  0
  -20.1960   28.2360   12.4080 C   0  0  0  0  0  3  0  0  0  0  0  0
  -19.2730   29.2000   12.4570 N   0  0  0  0  0  0  0  0  0  0  0  0
  -18.0670   28.8870   11.9640 C   0  0  0  0  0  0  0  0  0  0  0  0
  -17.1260   29.9010   12.0450 N   0  0  0  0  0  0  0  0  0  0  0  0
  -17.7660   27.6210   11.4700 C   0  0  0  0  0  0  0  0  0  0  0  0
  -16.0570   27.2750   10.7040 Br  0  0  0  0  0  0  0  0  0  0  0  0
  -17.4970   30.7690   12.4120 H   0  0  0  0  0  0  0  0  0  0  0  0
  -16.4420   29.9640   11.3030 H   0  0  0  0  0  0  0  0  0  0  0  0
  -21.1020   20.1470   12.6640 C   0  0  0  0  0  2  0  0  0  0  0  0
  -20.7720   18.7410   13.1870 C   0  0  0  0  0  2  0  0  0  0  0  0
  -21.7650   18.2580   14.1990 N   0  0  0  0  0  4  0  0  0  0  0  0
  -21.1760   18.0450   15.5380 C   0  0  0  0  0  2  0  0  0  0  0  0
  -22.4060   18.7450   16.1290 C   0  0  0  0  0  2  0  0  0  0  0  0
  -22.5590   19.3880   14.7440 C   0  0  0  0  0  2  0  0  0  0  0  0
  -22.3700   17.4890   13.8680 H   0  0  0  0  0  0  0  0  0  0  0  0
  1  5  1  0  0  0  0
  1  2  2  0  0  0  0
  2  3  1  0  0  0  0
  3 31  1  0  0  0  0
  4  3  1  0  0  0  0
  5  4  2  0  0  0  0
  6  7  1  0  0  0  0
  7  8  2  0  0  0  0
  8  1  1  0  0  0  0
  9  8  1  0  0  0  0
 10  9  2  0  0  0  0
 11  6  2  0  0  0  0
 11 10  1  0  0  0  0
 12 13  1  0  0  0  0
 13  6  1  0  0  0  0
 14 13  1  0  0  0  0
 15  4  1  6  0  0  0
 15 20  1  0  0  0  0
 16 15  1  0  0  0  0
 17 16  1  0  0  0  0
 17 18  1  0  0  0  0
 18 21  1  0  0  0  0
 18 19  1  0  0  0  0
 19 20  1  0  0  0  0
 21 22  1  0  0  0  0
 22 23  2  0  0  0  0
 23 24  1  0  0  0  0
 25 26  1  0  0  0  0
 25 24  2  0  0  0  0
 26 29  1  0  0  0  0
 27 21  2  0  0  0  0
 27 25  1  0  0  0  0
 28 27  1  0  0  0  0
 30 26  1  0  0  0  0
 31 32  1  0  0  0  0
 32 33  1  0  0  0  0
 33 36  1  0  0  0  0
 33 34  1  0  0  0  0
 34 35  1  0  0  0  0
 36 35  1  0  0  0  0
 37 33  1  0  0  0  0
M  END
>  <minimizedAffinity>
-9.93664837

$$$$

 OpenBabel11232420393D

 37 41  0  0  1  0  0  0  0  0999 V2000
  -19.8830   19.8450   11.1570 C   0  0  0  0  0  0  0  0  0  0  0  0
  -19.0280   19.8500   10.0790 C   0  0  0  0  0  3  0  0  0  0  0  0
  -19.1470   21.1000    9.5240 N   0  0  0  0  0  0  0  0  0  0  0  0
  -20.0050   21.8330   10.3140 C   0  0  0  0  0  0  0  0  0  0  0  0
  -20.5280   21.0530   11.2350 N   0  0  0  0  0  0  0  0  0  0  0  0
  -21.0270   17.8770   14.1490 C   0  0  0  0  0  0  0  0  0  0  0  0
  -20.7910   18.9660   13.3090 C   0  0  0  0  0  3  0  0  0  0  0  0
  -20.1080   18.7670   12.1050 C   0  0  0  0  0  0  0  0  0  0  0  0
  -19.6710   17.4820   11.7900 C   0  0  0  0  0  3  0  0  0  0  0  0
  -19.9210   16.4610   12.6860 C   0  0  0  0  0  3  0  0  0  0  0  0
  -20.5780   16.6350   13.8500 N   0  0  0  0  0  0  0  0  0  0  0  0
  -20.8350   17.8800   16.6440 C   0  0  0  0  0  1  0  0  0  0  0  0
  -21.7870   18.0060   15.4550 C   0  0  0  0  0  3  0  0  0  0  0  0
  -22.6190   19.2870   15.5530 C   0  0  0  0  0  1  0  0  0  0  0  0
  -20.2870   23.3090   10.1820 C   0  0  2  0  0  3  0  0  0  0  0  0
  -19.1390   24.0220    9.4520 C   0  0  0  0  0  2  0  0  0  0  0  0
  -17.9410   24.3020   10.3600 C   0  0  0  0  0  2  0  0  0  0  0  0
  -18.3630   24.9530   11.5970 N   0  0  0  0  0  0  0  0  0  0  0  0
  -19.3510   24.2300   12.3900 C   0  0  0  0  0  2  0  0  0  0  0  0
  -20.5970   23.9560   11.5430 C   0  0  0  0  0  2  0  0  0  0  0  0
  -18.3940   26.3430   11.6340 C   0  0  0  0  0  0  0  0  0  0  0  0
  -19.5270   26.9170   12.0930 N   0  0  0  0  0  0  0  0  0  0  0  0
  -19.5530   28.2550   12.1540 C   0  0  0  0  0  3  0  0  0  0  0  0
  -18.5610   29.0820   11.8120 N   0  0  0  0  0  0  0  0  0  0  0  0
  -17.4540   28.5060   11.3250 C   0  0  0  0  0  0  0  0  0  0  0  0
  -16.4370   29.3890   10.9980 N   0  0  0  0  0  0  0  0  0  0  0  0
  -17.3130   27.1260   11.2200 C   0  0  0  0  0  0  0  0  0  0  0  0
  -15.7450   26.3810   10.4360 Br  0  0  0  0  0  0  0  0  0  0  0  0
  -16.6930   30.3620   11.1120 H   0  0  0  0  0  0  0  0  0  0  0  0
  -15.8500   29.1520   10.2090 H   0  0  0  0  0  0  0  0  0  0  0  0
  -18.5080   21.4990    8.2850 C   0  0  0  0  0  2  0  0  0  0  0  0
  -17.0130   21.1480    8.2680 C   0  0  0  0  0  2  0  0  0  0  0  0
  -16.5880   20.5100    6.9810 N   0  0  0  0  0  4  0  0  0  0  0  0
  -15.2630   19.8590    7.0620 C   0  0  0  0  0  2  0  0  0  0  0  0
  -15.8630   18.6690    6.3030 C   0  0  0  0  0  2  0  0  0  0  0  0
  -17.2170   19.1750    6.8190 C   0  0  0  0  0  2  0  0  0  0  0  0
  -16.7260   21.1020    6.1460 H   0  0  0  0  0  0  0  0  0  0  0  0
  1  5  1  0  0  0  0
  1  8  1  0  0  0  0
  2  1  2  0  0  0  0
  3  2  1  0  0  0  0
  3  4  1  0  0  0  0
  4  5  2  0  0  0  0
  6 13  1  0  0  0  0
  7  6  2  0  0  0  0
  8  7  1  0  0  0  0
  9  8  2  0  0  0  0
  9 10  1  0  0  0  0
 10 11  2  0  0  0  0
 11  6  1  0  0  0  0
 13 14  1  0  0  0  0
 13 12  1  0  0  0  0
 15  4  1  1  0  0  0
 15 20  1  0  0  0  0
 16 15  1  0  0  0  0
 16 17  1  0  0  0  0
 17 18  1  0  0  0  0
 18 21  1  0  0  0  0
 18 19  1  0  0  0  0
 20 19  1  0  0  0  0
 21 22  1  0  0  0  0
 22 23  2  0  0  0  0
 24 23  1  0  0  0  0
 25 24  2  0  0  0  0
 26 29  1  0  0  0  0
 26 25  1  0  0  0  0
 27 25  1  0  0  0  0
 27 21  2  0  0  0  0
 28 27  1  0  0  0  0
 30 26  1  0  0  0  0
 31  3  1  0  0  0  0
 32 31  1  0  0  0  0
 33 34  1  0  0  0  0
 33 32  1  0  0  0  0
 35 36  1  0  0  0  0
 35 34  1  0  0  0  0
 36 33  1  0  0  0  0
 37 33  1  0  0  0  0
M  END
>  <minimizedAffinity>
-9.68615055

$$$$

 OpenBabel11232420393D

 37 41  0  0  1  0  0  0  0  0999 V2000
  -18.7310   21.4670   10.8880 C   0  0  0  0  0  0  0  0  0  0  0  0
  -18.1160   20.7360    9.8990 C   0  0  0  0  0  3  0  0  0  0  0  0
  -18.6860   19.4880    9.9590 N   0  0  0  0  0  0  0  0  0  0  0  0
  -19.6710   19.5200   10.9210 C   0  0  0  0  0  0  0  0  0  0  0  0
  -19.6320   20.6740   11.5520 N   0  0  0  0  0  0  0  0  0  0  0  0
  -17.5940   25.0500   10.7800 C   0  0  0  0  0  0  0  0  0  0  0  0
  -17.7150   23.7020   10.4370 C   0  0  0  0  0  3  0  0  0  0  0  0
  -18.5130   22.8640   11.2230 C   0  0  0  0  0  0  0  0  0  0  0  0
  -19.1530   23.4040   12.3370 C   0  0  0  0  0  3  0  0  0  0  0  0
  -18.9620   24.7420   12.6250 C   0  0  0  0  0  3  0  0  0  0  0  0
  -18.1970   25.5630   11.8780 N   0  0  0  0  0  0  0  0  0  0  0  0
  -16.2960   27.1880   10.8320 C   0  0  0  0  0  1  0  0  0  0  0  0
  -16.7740   26.0280    9.9610 C   0  0  0  0  0  3  0  0  0  0  0  0
  -15.6000   25.3740    9.2270 C   0  0  0  0  0  1  0  0  0  0  0  0
  -20.6720   18.4270   11.2010 C   0  0  2  0  0  3  0  0  0  0  0  0
  -21.5290   18.7720   12.4280 C   0  0  0  0  0  2  0  0  0  0  0  0
  -20.8120   18.4950   13.7500 C   0  0  0  0  0  2  0  0  0  0  0  0
  -20.2520   17.1470   13.7680 N   0  0  0  0  0  0  0  0  0  0  0  0
  -19.3190   16.8330   12.6920 C   0  0  0  0  0  2  0  0  0  0  0  0
  -19.9960   17.0520   11.3360 C   0  0  0  0  0  2  0  0  0  0  0  0
  -21.0360   16.1120   14.2680 C   0  0  0  0  0  0  0  0  0  0  0  0
  -21.7210   15.3750   13.3680 N   0  0  0  0  0  0  0  0  0  0  0  0
  -22.4580   14.3620   13.8430 C   0  0  0  0  0  3  0  0  0  0  0  0
  -22.5760   14.0010   15.1240 N   0  0  0  0  0  0  0  0  0  0  0  0
  -21.9210   14.7590   16.0120 C   0  0  0  0  0  0  0  0  0  0  0  0
  -22.0480   14.3490   17.3300 N   0  0  0  0  0  0  0  0  0  0  0  0
  -21.1220   15.8340   15.6340 C   0  0  0  0  0  0  0  0  0  0  0  0
  -20.2910   16.9210   16.9600 Br  0  0  0  0  0  0  0  0  0  0  0  0
  -22.6740   13.5630   17.4500 H   0  0  0  0  0  0  0  0  0  0  0  0
  -22.0580   15.0660   18.0430 H   0  0  0  0  0  0  0  0  0  0  0  0
  -18.2430   18.3570    9.1670 C   0  0  0  0  0  2  0  0  0  0  0  0
  -17.7330   18.7860    7.7830 C   0  0  0  0  0  2  0  0  0  0  0  0
  -16.2390   18.7610    7.6890 N   0  0  0  0  0  4  0  0  0  0  0  0
  -15.7440   18.2990    6.3750 C   0  0  0  0  0  2  0  0  0  0  0  0
  -14.7320   19.4510    6.4140 C   0  0  0  0  0  2  0  0  0  0  0  0
  -15.7030   20.1140    7.3990 C   0  0  0  0  0  2  0  0  0  0  0  0
  -15.7680   18.3290    8.5010 H   0  0  0  0  0  0  0  0  0  0  0  0
  1  8  1  0  0  0  0
  1  5  1  0  0  0  0
  2  3  1  0  0  0  0
  2  1  2  0  0  0  0
  3  4  1  0  0  0  0
  4  5  2  0  0  0  0
  6 11  1  0  0  0  0
  7  6  2  0  0  0  0
  7  8  1  0  0  0  0
  8  9  2  0  0  0  0
  9 10  1  0  0  0  0
 11 10  2  0  0  0  0
 13  6  1  0  0  0  0
 13 12  1  0  0  0  0
 14 13  1  0  0  0  0
 15  4  1  1  0  0  0
 15 20  1  0  0  0  0
 15 16  1  0  0  0  0
 16 17  1  0  0  0  0
 17 18  1  0  0  0  0
 18 21  1  0  0  0  0
 19 18  1  0  0  0  0
 20 19  1  0  0  0  0
 21 27  1  0  0  0  0
 22 23  1  0  0  0  0
 22 21  2  0  0  0  0
 23 24  2  0  0  0  0
 24 25  1  0  0  0  0
 25 26  1  0  0  0  0
 26 29  1  0  0  0  0
 26 30  1  0  0  0  0
 27 25  2  0  0  0  0
 27 28  1  0  0  0  0
 31  3  1  0  0  0  0
 32 31  1  0  0  0  0
 33 32  1  0  0  0  0
 33 37  1  0  0  0  0
 34 35  1  0  0  0  0
 34 33  1  0  0  0  0
 35 36  1  0  0  0  0
 36 33  1  0  0  0  0
M  END
>  <minimizedAffinity>
-9.13134193

$$$$

 OpenBabel11232420393D

 37 41  0  0  1  0  0  0  0  0999 V2000
  -19.2340   32.4120    9.9660 C   0  0  0  0  0  0  0  0  0  0  0  0
  -18.5370   32.6870   11.1190 C   0  0  0  0  0  3  0  0  0  0  0  0
  -18.7670   31.6180   11.9490 N   0  0  0  0  0  0  0  0  0  0  0  0
  -19.5260   30.7020   11.2570 C   0  0  0  0  0  0  0  0  0  0  0  0
  -19.8960   31.2170   10.1050 N   0  0  0  0  0  0  0  0  0  0  0  0
  -20.3270   33.8620    6.6740 C   0  0  0  0  0  0  0  0  0  0  0  0
  -20.2870   33.0210    7.7870 C   0  0  0  0  0  3  0  0  0  0  0  0
  -19.2960   33.2110    8.7540 C   0  0  0  0  0  0  0  0  0  0  0  0
  -18.3660   34.2320    8.5660 C   0  0  0  0  0  3  0  0  0  0  0  0
  -18.4560   35.0060    7.4250 C   0  0  0  0  0  3  0  0  0  0  0  0
  -19.4060   34.8360    6.4830 N   0  0  0  0  0  0  0  0  0  0  0  0
  -20.9660   32.7230    4.5400 C   0  0  0  0  0  1  0  0  0  0  0  0
  -21.3890   33.7400    5.5980 C   0  0  0  0  0  3  0  0  0  0  0  0
  -22.7790   33.4120    6.1480 C   0  0  0  0  0  1  0  0  0  0  0  0
  -19.8650   29.3050   11.7160 C   0  0  2  0  0  3  0  0  0  0  0  0
  -18.7660   28.7490   12.6340 C   0  0  0  0  0  2  0  0  0  0  0  0
  -17.5520   28.2320   11.8600 C   0  0  0  0  0  2  0  0  0  0  0  0
  -17.9600   27.3240   10.7930 N   0  0  0  0  0  0  0  0  0  0  0  0
  -18.8980   27.8700    9.8180 C   0  0  0  0  0  2  0  0  0  0  0  0
  -20.1580   28.3680   10.5320 C   0  0  0  0  0  2  0  0  0  0  0  0
  -18.0410   25.9640   11.0760 C   0  0  0  0  0  0  0  0  0  0  0  0
  -18.9510   25.5850   11.9990 N   0  0  0  0  0  0  0  0  0  0  0  0
  -19.0490   24.2750   12.2570 C   0  0  0  0  0  3  0  0  0  0  0  0
  -18.3370   23.2990   11.6840 N   0  0  0  0  0  0  0  0  0  0  0  0
  -17.4120   23.6880   10.7970 C   0  0  0  0  0  0  0  0  0  0  0  0
  -16.7040   22.6530   10.2060 N   0  0  0  0  0  0  0  0  0  0  0  0
  -17.2250   25.0210   10.4460 C   0  0  0  0  0  0  0  0  0  0  0  0
  -15.8310   25.5070    9.2420 Br  0  0  0  0  0  0  0  0  0  0  0  0
  -16.9400   21.7400   10.5750 H   0  0  0  0  0  0  0  0  0  0  0  0
  -15.7360   22.8250    9.9720 H   0  0  0  0  0  0  0  0  0  0  0  0
  -18.3170   31.5520   13.3260 C   0  0  0  0  0  2  0  0  0  0  0  0
  -18.9830   32.6230   14.2030 C   0  0  0  0  0  2  0  0  0  0  0  0
  -19.9980   32.0460   15.1410 N   0  0  0  0  0  4  0  0  0  0  0  0
  -21.2390   31.6140   14.4650 C   0  0  0  0  0  2  0  0  0  0  0  0
  -21.1900   30.3360   15.3110 C   0  0  0  0  0  2  0  0  0  0  0  0
  -19.6900   30.6270   15.4490 C   0  0  0  0  0  2  0  0  0  0  0  0
  -20.1460   32.6000   16.0010 H   0  0  0  0  0  0  0  0  0  0  0  0
  1  5  1  0  0  0  0
  1  2  2  0  0  0  0
  2  3  1  0  0  0  0
  3 31  1  0  0  0  0
  4  3  1  0  0  0  0
  5  4  2  0  0  0  0
  6  7  1  0  0  0  0
  7  8  2  0  0  0  0
  8  1  1  0  0  0  0
  9  8  1  0  0  0  0
 10  9  2  0  0  0  0
 11  6  2  0  0  0  0
 11 10  1  0  0  0  0
 12 13  1  0  0  0  0
 13 14  1  0  0  0  0
 13  6  1  0  0  0  0
 15  4  1  6  0  0  0
 15 16  1  0  0  0  0
 17 16  1  0  0  0  0
 18 21  1  0  0  0  0
 18 17  1  0  0  0  0
 19 20  1  0  0  0  0
 19 18  1  0  0  0  0
 20 15  1  0  0  0  0
 21 22  1  0  0  0  0
 22 23  2  0  0  0  0
 24 23  1  0  0  0  0
 25 24  2  0  0  0  0
 26 29  1  0  0  0  0
 26 25  1  0  0  0  0
 27 25  1  0  0  0  0
 27 21  2  0  0  0  0
 28 27  1  0  0  0  0
 30 26  1  0  0  0  0
 31 32  1  0  0  0  0
 32 33  1  0  0  0  0
 33 36  1  0  0  0  0
 33 37  1  0  0  0  0
 34 33  1  0  0  0  0
 34 35  1  0  0  0  0
 35 36  1  0  0  0  0
M  END
>  <minimizedAffinity>
-8.78402996

$$$$

 OpenBabel11232420393D

 37 41  0  0  1  0  0  0  0  0999 V2000
  -19.6480   22.6570   11.3970 C   0  0  0  0  0  0  0  0  0  0  0  0
  -18.8830   21.9140   10.5270 C   0  0  0  0  0  3  0  0  0  0  0  0
  -19.3780   20.6360   10.6040 N   0  0  0  0  0  0  0  0  0  0  0  0
  -20.4630   20.6540   11.4520 C   0  0  0  0  0  0  0  0  0  0  0  0
  -20.5650   21.8410   12.0100 N   0  0  0  0  0  0  0  0  0  0  0  0
  -18.3700   26.1820   11.6710 C   0  0  0  0  0  0  0  0  0  0  0  0
  -18.3760   24.8030   11.4520 C   0  0  0  0  0  3  0  0  0  0  0  0
  -19.5550   24.0820   11.6640 C   0  0  0  0  0  0  0  0  0  0  0  0
  -20.6870   24.7660   12.1050 C   0  0  0  0  0  3  0  0  0  0  0  0
  -20.5930   26.1260   12.3240 C   0  0  0  0  0  3  0  0  0  0  0  0
  -19.4650   26.8380   12.1230 N   0  0  0  0  0  0  0  0  0  0  0  0
  -16.3270   26.4930   10.2600 C   0  0  0  0  0  1  0  0  0  0  0  0
  -17.1410   27.0380   11.4330 C   0  0  0  0  0  3  0  0  0  0  0  0
  -17.4610   28.5220   11.2350 C   0  0  0  0  0  1  0  0  0  0  0  0
  -21.4190   19.5120   11.6920 C   0  0  2  0  0  3  0  0  0  0  0  0
  -22.6050   19.9660   12.5570 C   0  0  0  0  0  2  0  0  0  0  0  0
  -22.2630   20.0310   14.0460 C   0  0  0  0  0  2  0  0  0  0  0  0
  -21.6320   18.7930   14.4930 N   0  0  0  0  0  0  0  0  0  0  0  0
  -20.4170   18.4080   13.7840 C   0  0  0  0  0  2  0  0  0  0  0  0
  -20.7070   18.2840   12.2850 C   0  0  0  0  0  2  0  0  0  0  0  0
  -22.4450   17.7760   14.9840 C   0  0  0  0  0  0  0  0  0  0  0  0
  -22.6340   16.7060   14.1840 N   0  0  0  0  0  0  0  0  0  0  0  0
  -23.3960   15.7130   14.6620 C   0  0  0  0  0  3  0  0  0  0  0  0
  -23.9840   15.6730   15.8610 N   0  0  0  0  0  0  0  0  0  0  0  0
  -23.8200   16.7550   16.6340 C   0  0  0  0  0  0  0  0  0  0  0  0
  -24.4250   16.6770   17.8780 N   0  0  0  0  0  0  0  0  0  0  0  0
  -23.0460   17.8440   16.2430 C   0  0  0  0  0  0  0  0  0  0  0  0
  -22.9300   19.3850   17.3570 Br  0  0  0  0  0  0  0  0  0  0  0  0
  -24.9670   15.8320   18.0120 H   0  0  0  0  0  0  0  0  0  0  0  0
  -24.7920   17.5320   18.2730 H   0  0  0  0  0  0  0  0  0  0  0  0
  -18.7810   19.4960    9.9370 C   0  0  0  0  0  2  0  0  0  0  0  0
  -17.5420   19.8890    9.1190 C   0  0  0  0  0  2  0  0  0  0  0  0
  -17.4940   19.2080    7.7860 N   0  0  0  0  0  4  0  0  0  0  0  0
  -17.5590   20.1480    6.6480 C   0  0  0  0  0  2  0  0  0  0  0  0
  -16.4330   19.3410    5.9890 C   0  0  0  0  0  2  0  0  0  0  0  0
  -16.0980   18.8730    7.4120 C   0  0  0  0  0  2  0  0  0  0  0  0
  -18.1190   18.3890    7.7040 H   0  0  0  0  0  0  0  0  0  0  0  0
  1  8  1  0  0  0  0
  1  5  1  0  0  0  0
  2  3  1  0  0  0  0
  2  1  2  0  0  0  0
  3  4  1  0  0  0  0
  4  5  2  0  0  0  0
  6 11  1  0  0  0  0
  7  8  1  0  0  0  0
  7  6  2  0  0  0  0
  8  9  2  0  0  0  0
  9 10  1  0  0  0  0
 11 10  2  0  0  0  0
 12 13  1  0  0  0  0
 13  6  1  0  0  0  0
 14 13  1  0  0  0  0
 15  4  1  1  0  0  0
 15 20  1  0  0  0  0
 15 16  1  0  0  0  0
 16 17  1  0  0  0  0
 17 18  1  0  0  0  0
 18 21  1  0  0  0  0
 19 18  1  0  0  0  0
 20 19  1  0  0  0  0
 21 27  1  0  0  0  0
 22 23  1  0  0  0  0
 22 21  2  0  0  0  0
 23 24  2  0  0  0  0
 24 25  1  0  0  0  0
 25 26  1  0  0  0  0
 26 29  1  0  0  0  0
 26 30  1  0  0  0  0
 27 25  2  0  0  0  0
 27 28  1  0  0  0  0
 31  3  1  0  0  0  0
 32 31  1  0  0  0  0
 33 32  1  0  0  0  0
 34 33  1  0  0  0  0
 35 34  1  0  0  0  0
 35 36  1  0  0  0  0
 36 33  1  0  0  0  0
 37 33  1  0  0  0  0
M  END
>  <minimizedAffinity>
-8.75211811

$$$$

 OpenBabel11232420393D

 37 41  0  0  1  0  0  0  0  0999 V2000
  -18.0950   33.3160   12.3980 C   0  0  0  0  0  0  0  0  0  0  0  0
  -18.9150   33.6650   13.4460 C   0  0  0  0  0  3  0  0  0  0  0  0
  -19.9670   32.7840   13.3970 N   0  0  0  0  0  0  0  0  0  0  0  0
  -19.7210   31.8900   12.3790 C   0  0  0  0  0  0  0  0  0  0  0  0
  -18.6520   32.2670   11.7110 N   0  0  0  0  0  0  0  0  0  0  0  0
  -14.9620   34.2210   10.5270 C   0  0  0  0  0  0  0  0  0  0  0  0
  -16.1490   33.5640   10.8560 C   0  0  0  0  0  3  0  0  0  0  0  0
  -16.8250   33.9160   12.0280 C   0  0  0  0  0  0  0  0  0  0  0  0
  -16.2790   34.9090   12.8410 C   0  0  0  0  0  3  0  0  0  0  0  0
  -15.0880   35.4940   12.4600 C   0  0  0  0  0  3  0  0  0  0  0  0
  -14.4230   35.1670   11.3330 N   0  0  0  0  0  0  0  0  0  0  0  0
  -14.6300   32.5800    8.6680 C   0  0  0  0  0  1  0  0  0  0  0  0
  -14.1880   33.9180    9.2590 C   0  0  0  0  0  3  0  0  0  0  0  0
  -14.2700   35.0330    8.2130 C   0  0  0  0  0  1  0  0  0  0  0  0
  -20.5200   30.6460   12.0790 C   0  0  2  0  0  3  0  0  0  0  0  0
  -20.2300   29.5480   13.1140 C   0  0  0  0  0  2  0  0  0  0  0  0
  -18.9200   28.8070   12.8410 C   0  0  0  0  0  2  0  0  0  0  0  0
  -18.8520   28.3590   11.4540 N   0  0  0  0  0  0  0  0  0  0  0  0
  -18.9800   29.4020   10.4420 C   0  0  0  0  0  2  0  0  0  0  0  0
  -20.2990   30.1550   10.6380 C   0  0  0  0  0  2  0  0  0  0  0  0
  -19.3380   27.0930   11.1430 C   0  0  0  0  0  0  0  0  0  0  0  0
  -20.6400   26.8560   11.4090 N   0  0  0  0  0  0  0  0  0  0  0  0
  -21.1180   25.6470   11.0890 C   0  0  0  0  0  3  0  0  0  0  0  0
  -20.4340   24.6490   10.5220 N   0  0  0  0  0  0  0  0  0  0  0  0
  -19.1340   24.8810   10.2940 C   0  0  0  0  0  0  0  0  0  0  0  0
  -18.4560   23.8350    9.6880 N   0  0  0  0  0  0  0  0  0  0  0  0
  -18.5300   26.1010   10.5810 C   0  0  0  0  0  0  0  0  0  0  0  0
  -16.6580   26.3280   10.3120 Br  0  0  0  0  0  0  0  0  0  0  0  0
  -19.0240   23.0070    9.5560 H   0  0  0  0  0  0  0  0  0  0  0  0
  -17.4860   23.6990    9.9410 H   0  0  0  0  0  0  0  0  0  0  0  0
  -21.1350   32.8700   14.2510 C   0  0  0  0  0  2  0  0  0  0  0  0
  -20.7600   32.9010   15.7400 C   0  0  0  0  0  2  0  0  0  0  0  0
  -21.5110   31.8840   16.5420 N   0  0  0  0  0  4  0  0  0  0  0  0
  -22.6620   31.3030   15.8190 C   0  0  0  0  0  2  0  0  0  0  0  0
  -22.2210   29.9270   16.3340 C   0  0  0  0  0  2  0  0  0  0  0  0
  -20.8340   30.5640   16.4940 C   0  0  0  0  0  2  0  0  0  0  0  0
  -21.7160   32.1740   17.5130 H   0  0  0  0  0  0  0  0  0  0  0  0
  1  2  2  0  0  0  0
  3  2  1  0  0  0  0
  3 31  1  0  0  0  0
  4  3  1  0  0  0  0
  5  4  2  0  0  0  0
  5  1  1  0  0  0  0
  6  7  2  0  0  0  0
  6 11  1  0  0  0  0
  7  8  1  0  0  0  0
  8  1  1  0  0  0  0
  8  9  2  0  0  0  0
 10  9  1  0  0  0  0
 11 10  2  0  0  0  0
 12 13  1  0  0  0  0
 13  6  1  0  0  0  0
 14 13  1  0  0  0  0
 15  4  1  1  0  0  0
 15 16  1  0  0  0  0
 17 16  1  0  0  0  0
 18 17  1  0  0  0  0
 19 20  1  0  0  0  0
 19 18  1  0  0  0  0
 20 15  1  0  0  0  0
 21 22  1  0  0  0  0
 21 18  1  0  0  0  0
 23 22  2  0  0  0  0
 24 23  1  0  0  0  0
 25 24  2  0  0  0  0
 25 27  1  0  0  0  0
 26 30  1  0  0  0  0
 26 25  1  0  0  0  0
 27 21  2  0  0  0  0
 28 27  1  0  0  0  0
 29 26  1  0  0  0  0
 31 32  1  0  0  0  0
 32 33  1  0  0  0  0
 33 37  1  0  0  0  0
 34 35  1  0  0  0  0
 34 33  1  0  0  0  0
 35 36  1  0  0  0  0
 36 33  1  0  0  0  0
M  END
>  <minimizedAffinity>
-8.64126396

$$$$

 OpenBabel11232420393D

 37 41  0  0  1  0  0  0  0  0999 V2000
  -16.8320   28.8830   11.4160 C   0  0  0  0  0  0  0  0  0  0  0  0
  -15.7190   29.6140   11.0730 C   0  0  0  0  0  3  0  0  0  0  0  0
  -16.0040   30.9060   11.4360 N   0  0  0  0  0  0  0  0  0  0  0  0
  -17.2370   30.9110   12.0490 C   0  0  0  0  0  0  0  0  0  0  0  0
  -17.7820   29.7180   11.9470 N   0  0  0  0  0  0  0  0  0  0  0  0
  -18.2440   25.4090   11.6950 C   0  0  0  0  0  0  0  0  0  0  0  0
  -18.0710   26.7760   11.9220 C   0  0  0  0  0  3  0  0  0  0  0  0
  -17.0320   27.4510   11.2730 C   0  0  0  0  0  0  0  0  0  0  0  0
  -16.1910   26.7280   10.4270 C   0  0  0  0  0  3  0  0  0  0  0  0
  -16.4130   25.3730   10.2760 C   0  0  0  0  0  3  0  0  0  0  0  0
  -17.4100   24.7070   10.8930 N   0  0  0  0  0  0  0  0  0  0  0  0
  -20.7250   25.1870   11.9370 C   0  0  0  0  0  1  0  0  0  0  0  0
  -19.3660   24.6140   12.3360 C   0  0  0  0  0  3  0  0  0  0  0  0
  -19.2950   23.1140   12.0410 C   0  0  0  0  0  1  0  0  0  0  0  0
  -17.8680   32.0810   12.7620 C   0  0  2  0  0  3  0  0  0  0  0  0
  -17.2800   32.2420   14.1730 C   0  0  0  0  0  2  0  0  0  0  0  0
  -17.8820   31.2640   15.1820 C   0  0  0  0  0  2  0  0  0  0  0  0
  -19.3400   31.2920   15.1320 N   0  0  0  0  0  0  0  0  0  0  0  0
  -19.9370   31.0000   13.8340 C   0  0  0  0  0  2  0  0  0  0  0  0
  -19.4030   31.9790   12.7840 C   0  0  0  0  0  2  0  0  0  0  0  0
  -20.0130   32.1760   15.9700 C   0  0  0  0  0  0  0  0  0  0  0  0
  -19.3730   33.3200   16.2920 N   0  0  0  0  0  0  0  0  0  0  0  0
  -20.0280   34.1850   17.0780 C   0  0  0  0  0  3  0  0  0  0  0  0
  -21.2600   34.0320   17.5710 N   0  0  0  0  0  0  0  0  0  0  0  0
  -21.8730   32.8780   17.2750 C   0  0  0  0  0  0  0  0  0  0  0  0
  -23.1560   32.7560   17.7840 N   0  0  0  0  0  0  0  0  0  0  0  0
  -21.2920   31.9080   16.4640 C   0  0  0  0  0  0  0  0  0  0  0  0
  -22.1880   30.2550   16.1590 Br  0  0  0  0  0  0  0  0  0  0  0  0
  -23.4350   33.5350   18.3690 H   0  0  0  0  0  0  0  0  0  0  0  0
  -23.4630   31.8330   18.0610 H   0  0  0  0  0  0  0  0  0  0  0  0
  -15.1460   32.0380   11.1410 C   0  0  0  0  0  2  0  0  0  0  0  0
  -13.9160   31.6300   10.3160 C   0  0  0  0  0  2  0  0  0  0  0  0
  -14.1350   31.7890    8.8430 N   0  0  0  0  0  4  0  0  0  0  0  0
  -13.3200   32.8680    8.2450 C   0  0  0  0  0  2  0  0  0  0  0  0
  -13.0020   31.9120    7.0890 C   0  0  0  0  0  2  0  0  0  0  0  0
  -13.3460   30.7910    8.0790 C   0  0  0  0  0  2  0  0  0  0  0  0
  -15.1280   31.7920    8.5580 H   0  0  0  0  0  0  0  0  0  0  0  0
  1  5  1  0  0  0  0
  2  1  2  0  0  0  0
  2  3  1  0  0  0  0
  3  4  1  0  0  0  0
  5  4  2  0  0  0  0
  6  7  1  0  0  0  0
  6 13  1  0  0  0  0
  8  1  1  0  0  0  0
  8  7  2  0  0  0  0
  9  8  1  0  0  0  0
 10  9  2  0  0  0  0
 10 11  1  0  0  0  0
 11  6  2  0  0  0  0
 12 13  1  0  0  0  0
 14 13  1  0  0  0  0
 15  4  1  1  0  0  0
 15 20  1  0  0  0  0
 15 16  1  0  0  0  0
 16 17  1  0  0  0  0
 18 17  1  0  0  0  0
 18 21  1  0  0  0  0
 19 18  1  0  0  0  0
 20 19  1  0  0  0  0
 21 22  2  0  0  0  0
 21 27  1  0  0  0  0
 22 23  1  0  0  0  0
 23 24  2  0  0  0  0
 25 24  1  0  0  0  0
 25 26  1  0  0  0  0
 26 30  1  0  0  0  0
 26 29  1  0  0  0  0
 27 25  2  0  0  0  0
 28 27  1  0  0  0  0
 31  3  1  0  0  0  0
 32 31  1  0  0  0  0
 33 32  1  0  0  0  0
 34 33  1  0  0  0  0
 35 36  1  0  0  0  0
 35 34  1  0  0  0  0
 36 33  1  0  0  0  0
 37 33  1  0  0  0  0
M  END
>  <minimizedAffinity>
-8.50737286

$$$$
