
 OpenBabel10152419443D

 37 40  0  0  1  0  0  0  0  0999 V2000
    1.2660  -11.6390  -24.2150 C   0  0  2  0  0  3  0  0  0  0  0  0
    0.6710  -12.9590  -23.7080 C   0  0  0  0  0  1  0  0  0  0  0  0
   -1.0160   -8.5510  -24.2700 C   0  0  0  0  0  0  0  0  0  0  0  0
   -2.0000   -8.9660  -25.1740 C   0  0  0  0  0  3  0  0  0  0  0  0
   -1.8820  -10.1820  -25.8420 C   0  0  0  0  0  3  0  0  0  0  0  0
   -0.8110  -11.0250  -25.5600 C   0  0  0  0  0  3  0  0  0  0  0  0
    0.1590  -10.6620  -24.6110 C   0  0  0  0  0  0  0  0  0  0  0  0
    0.0690   -9.3920  -23.9990 C   0  0  0  0  0  3  0  0  0  0  0  0
   -0.7960   -6.0710  -23.7990 C   0  0  0  0  0  0  0  0  0  0  0  0
   -0.7930   -5.2860  -22.8460 O   0  0  0  0  0  0  0  0  0  0  0  0
   -1.2540   -7.3410  -23.5990 N   0  0  0  0  0  0  0  0  0  0  0  0
   -1.8060   -7.4040  -22.7520 H   0  0  0  0  0  0  0  0  0  0  0  0
    1.2410   -4.0590  -28.8250 C   0  0  0  0  0  1  0  0  0  0  0  0
    0.2370   -4.6780  -27.8540 C   0  0  2  0  0  3  0  0  0  0  0  0
   -0.1520   -3.6590  -26.7630 C   0  0  0  0  0  2  0  0  0  0  0  0
   -0.6750   -4.2720  -25.4910 C   0  0  0  0  0  3  0  0  0  0  0  0
   -0.4650   -5.5650  -25.1740 C   0  0  0  0  0  0  0  0  0  0  0  0
    0.3630   -6.3830  -26.0460 C   0  0  0  0  0  3  0  0  0  0  0  0
    0.7080   -5.9850  -27.2780 C   0  0  0  0  0  0  0  0  0  0  0  0
    1.4870   -6.7980  -28.0250 F   0  0  0  0  0  0  0  0  0  0  0  0
    2.1310  -11.9160  -25.3540 N   0  0  0  0  0  0  0  0  0  0  0  0
    2.0750  -12.8000  -25.8270 H   0  0  0  0  0  0  0  0  0  0  0  0
    2.8410  -10.8620  -25.9050 C   0  0  0  0  0  0  0  0  0  0  0  0
    2.8100   -9.7040  -25.2290 N   0  0  0  0  0  0  0  0  0  0  0  0
    3.2950   -8.6360  -25.8540 C   0  0  0  0  0  3  0  0  0  0  0  0
    3.6840   -8.5880  -27.1280 N   0  0  0  0  0  0  0  0  0  0  0  0
    3.7340   -9.7530  -27.8010 C   0  0  0  0  0  0  0  0  0  0  0  0
    4.0960   -9.8020  -29.1510 C   0  0  0  0  0  0  0  0  0  0  0  0
    4.3040  -11.0020  -29.8440 C   0  0  0  0  0  3  0  0  0  0  0  0
    4.0750  -12.2060  -29.1990 C   0  0  0  0  0  3  0  0  0  0  0  0
    3.5880  -12.1900  -27.8950 C   0  0  0  0  0  3  0  0  0  0  0  0
    3.4020  -10.9690  -27.1900 C   0  0  0  0  0  0  0  0  0  0  0  0
    4.1330   -8.5680  -29.9570 C   0  0  0  0  0  0  0  0  0  0  0  0
    3.9570   -8.7540  -31.3010 N   0  0  0  0  0  0  0  0  0  0  0  0
    4.4240   -7.4850  -29.4710 O   0  0  0  0  0  0  0  0  0  0  0  0
    4.0190   -7.9510  -31.9110 H   0  0  0  0  0  0  0  0  0  0  0  0
    3.7590   -9.6600  -31.7040 H   0  0  0  0  0  0  0  0  0  0  0  0
  1  2  1  6  0  0  0
  3  8  1  0  0  0  0
  3 11  1  0  0  0  0
  4  3  2  0  0  0  0
  5  6  2  0  0  0  0
  5  4  1  0  0  0  0
  6  7  1  0  0  0  0
  7  1  1  0  0  0  0
  7  8  2  0  0  0  0
  9 11  1  0  0  0  0
  9 10  2  0  0  0  0
 11 12  1  0  0  0  0
 14 13  1  1  0  0  0
 14 19  1  0  0  0  0
 14 15  1  0  0  0  0
 15 16  1  0  0  0  0
 16 17  2  0  0  0  0
 17  9  1  0  0  0  0
 18 17  1  0  0  0  0
 19 18  2  0  0  0  0
 20 19  1  0  0  0  0
 21  1  1  0  0  0  0
 22 21  1  0  0  0  0
 23 21  1  0  0  0  0
 23 24  1  0  0  0  0
 25 24  2  0  0  0  0
 26 25  1  0  0  0  0
 27 32  1  0  0  0  0
 27 26  2  0  0  0  0
 28 27  1  0  0  0  0
 29 30  1  0  0  0  0
 29 28  2  0  0  0  0
 30 31  2  0  0  0  0
 31 32  1  0  0  0  0
 32 23  2  0  0  0  0
 33 35  2  0  0  0  0
 33 28  1  0  0  0  0
 34 33  1  0  0  0  0
 36 34  1  0  0  0  0
 37 34  1  0  0  0  0
M  END
>  <minimizedAffinity>
-8.25382805

$$$$
