
 OpenBabel10152419443D

 37 40  0  0  1  0  0  0  0  0999 V2000
    0.2350  -11.5680  -24.9610 C   0  0  2  0  0  3  0  0  0  0  0  0
   -0.5330  -12.8600  -25.2670 C   0  0  0  0  0  1  0  0  0  0  0  0
    3.2860  -10.0830  -26.7600 C   0  0  0  0  0  0  0  0  0  0  0  0
    3.5230  -11.0630  -27.7300 C   0  0  0  0  0  3  0  0  0  0  0  0
    2.7810  -12.2400  -27.7450 C   0  0  0  0  0  3  0  0  0  0  0  0
    1.7470  -12.4180  -26.8310 C   0  0  0  0  0  3  0  0  0  0  0  0
    1.4450  -11.4240  -25.8840 C   0  0  0  0  0  0  0  0  0  0  0  0
    2.2570  -10.2690  -25.8300 C   0  0  0  0  0  3  0  0  0  0  0  0
    3.7750   -7.6850  -27.4200 C   0  0  0  0  0  0  0  0  0  0  0  0
    4.7220   -6.9770  -27.7730 O   0  0  0  0  0  0  0  0  0  0  0  0
    4.0410   -8.9040  -26.8650 N   0  0  0  0  0  0  0  0  0  0  0  0
    5.0020   -8.9630  -26.5490 H   0  0  0  0  0  0  0  0  0  0  0  0
   -1.2930   -4.9190  -27.0720 C   0  0  0  0  0  1  0  0  0  0  0  0
   -0.2790   -5.9530  -27.5580 C   0  0  2  0  0  3  0  0  0  0  0  0
    0.1190   -6.8980  -26.4050 C   0  0  0  0  0  2  0  0  0  0  0  0
    1.4520   -7.5770  -26.5820 C   0  0  0  0  0  3  0  0  0  0  0  0
    2.3820   -7.1250  -27.4460 C   0  0  0  0  0  0  0  0  0  0  0  0
    2.1310   -5.8930  -28.1780 C   0  0  0  0  0  3  0  0  0  0  0  0
    0.9160   -5.3310  -28.2280 C   0  0  0  0  0  0  0  0  0  0  0  0
    0.7640   -4.1820  -28.9230 F   0  0  0  0  0  0  0  0  0  0  0  0
    0.6600  -11.5880  -23.5680 N   0  0  0  0  0  0  0  0  0  0  0  0
    1.6170  -11.7850  -23.3350 H   0  0  0  0  0  0  0  0  0  0  0  0
   -0.2160  -11.1010  -22.6120 C   0  0  0  0  0  0  0  0  0  0  0  0
   -0.7430  -12.0020  -21.7690 N   0  0  0  0  0  0  0  0  0  0  0  0
   -1.7440  -11.5860  -21.0020 C   0  0  0  0  0  3  0  0  0  0  0  0
   -2.3540  -10.4040  -21.0880 N   0  0  0  0  0  0  0  0  0  0  0  0
   -1.8150   -9.4920  -21.9180 C   0  0  0  0  0  0  0  0  0  0  0  0
   -2.3990   -8.2350  -22.1040 C   0  0  0  0  0  0  0  0  0  0  0  0
   -1.7920   -7.2090  -22.8400 C   0  0  0  0  0  3  0  0  0  0  0  0
   -0.5900   -7.4560  -23.4810 C   0  0  0  0  0  3  0  0  0  0  0  0
   -0.0460   -8.7360  -23.4250 C   0  0  0  0  0  3  0  0  0  0  0  0
   -0.6560   -9.7650  -22.6570 C   0  0  0  0  0  0  0  0  0  0  0  0
   -3.7760   -7.9800  -21.6430 C   0  0  0  0  0  0  0  0  0  0  0  0
   -3.9000   -7.7570  -20.2980 N   0  0  0  0  0  0  0  0  0  0  0  0
   -4.7400   -8.0850  -22.3870 O   0  0  0  0  0  0  0  0  0  0  0  0
   -4.8250   -7.6230  -19.9140 H   0  0  0  0  0  0  0  0  0  0  0  0
   -3.1030   -7.7140  -19.6770 H   0  0  0  0  0  0  0  0  0  0  0  0
  1  2  1  6  0  0  0
  1 21  1  0  0  0  0
  3  8  1  0  0  0  0
  4  3  2  0  0  0  0
  5  4  1  0  0  0  0
  5  6  2  0  0  0  0
  6  7  1  0  0  0  0
  7  8  2  0  0  0  0
  7  1  1  0  0  0  0
  9 11  1  0  0  0  0
 10  9  2  0  0  0  0
 11  3  1  0  0  0  0
 11 12  1  0  0  0  0
 14 13  1  1  0  0  0
 14 15  1  0  0  0  0
 16 15  1  0  0  0  0
 17  9  1  0  0  0  0
 17 16  2  0  0  0  0
 18 17  1  0  0  0  0
 19 18  2  0  0  0  0
 19 14  1  0  0  0  0
 20 19  1  0  0  0  0
 21 22  1  0  0  0  0
 21 23  1  0  0  0  0
 23 24  1  0  0  0  0
 24 25  2  0  0  0  0
 26 25  1  0  0  0  0
 27 26  2  0  0  0  0
 28 27  1  0  0  0  0
 28 33  1  0  0  0  0
 29 28  2  0  0  0  0
 30 31  2  0  0  0  0
 30 29  1  0  0  0  0
 31 32  1  0  0  0  0
 32 23  2  0  0  0  0
 32 27  1  0  0  0  0
 33 34  1  0  0  0  0
 34 36  1  0  0  0  0
 34 37  1  0  0  0  0
 35 33  2  0  0  0  0
M  END
>  <minimizedAffinity>
-8.94381905

$$$$
