
 OpenBabel10152419443D

 37 40  0  0  1  0  0  0  0  0999 V2000
   -0.6630   -6.7820  -24.8420 C   0  0  2  0  0  3  0  0  0  0  0  0
   -0.1620   -5.4210  -24.3420 C   0  0  0  0  0  1  0  0  0  0  0  0
   -1.5270   -9.3020  -22.0760 C   0  0  0  0  0  0  0  0  0  0  0  0
   -2.8830   -9.0200  -21.8760 C   0  0  0  0  0  3  0  0  0  0  0  0
   -3.4940   -7.9630  -22.5450 C   0  0  0  0  0  3  0  0  0  0  0  0
   -2.7690   -7.2200  -23.4720 C   0  0  0  0  0  3  0  0  0  0  0  0
   -1.4220   -7.5190  -23.7380 C   0  0  0  0  0  0  0  0  0  0  0  0
   -0.7940   -8.5440  -22.9950 C   0  0  0  0  0  3  0  0  0  0  0  0
   -0.6730  -11.6760  -21.8320 C   0  0  0  0  0  0  0  0  0  0  0  0
   -0.6710  -12.6000  -21.0150 O   0  0  0  0  0  0  0  0  0  0  0  0
   -1.0170  -10.4260  -21.4060 N   0  0  0  0  0  0  0  0  0  0  0  0
   -0.9570  -10.3520  -20.3970 H   0  0  0  0  0  0  0  0  0  0  0  0
    1.6620  -11.8110  -27.1230 C   0  0  0  0  0  1  0  0  0  0  0  0
    1.0110  -12.3540  -25.8520 C   0  0  2  0  0  3  0  0  0  0  0  0
   -0.4160  -11.7890  -25.6980 C   0  0  0  0  0  2  0  0  0  0  0  0
   -0.9440  -11.7960  -24.2870 C   0  0  0  0  0  3  0  0  0  0  0  0
   -0.1350  -11.9100  -23.2150 C   0  0  0  0  0  0  0  0  0  0  0  0
    1.3050  -11.9470  -23.4140 C   0  0  0  0  0  3  0  0  0  0  0  0
    1.8510  -12.1360  -24.6240 C   0  0  0  0  0  0  0  0  0  0  0  0
    3.1980  -12.1490  -24.7290 F   0  0  0  0  0  0  0  0  0  0  0  0
    0.4770   -7.5720  -25.2880 N   0  0  0  0  0  0  0  0  0  0  0  0
    0.6100   -8.5060  -24.9420 H   0  0  0  0  0  0  0  0  0  0  0  0
    1.2180   -7.1010  -26.3590 C   0  0  0  0  0  0  0  0  0  0  0  0
    0.6670   -6.1100  -27.0760 N   0  0  0  0  0  0  0  0  0  0  0  0
    1.2590   -5.8070  -28.2260 C   0  0  0  0  0  3  0  0  0  0  0  0
    2.2630   -6.4810  -28.7880 N   0  0  0  0  0  0  0  0  0  0  0  0
    2.8290   -7.4610  -28.0610 C   0  0  0  0  0  0  0  0  0  0  0  0
    3.8650   -8.2470  -28.5750 C   0  0  0  0  0  0  0  0  0  0  0  0
    4.5790   -9.1730  -27.8020 C   0  0  0  0  0  3  0  0  0  0  0  0
    4.2080   -9.3870  -26.4860 C   0  0  0  0  0  3  0  0  0  0  0  0
    3.0970   -8.7160  -25.9820 C   0  0  0  0  0  3  0  0  0  0  0  0
    2.3930   -7.7600  -26.7640 C   0  0  0  0  0  0  0  0  0  0  0  0
    4.1610   -8.2370  -30.0190 C   0  0  0  0  0  0  0  0  0  0  0  0
    4.6360   -7.0470  -30.5000 N   0  0  0  0  0  0  0  0  0  0  0  0
    3.8840   -9.1800  -30.7450 O   0  0  0  0  0  0  0  0  0  0  0  0
    4.8120   -6.9630  -31.4920 H   0  0  0  0  0  0  0  0  0  0  0  0
    4.8230   -6.2530  -29.9020 H   0  0  0  0  0  0  0  0  0  0  0  0
  1  2  1  1  0  0  0
  1  7  1  0  0  0  0
  3  4  1  0  0  0  0
  3 11  1  0  0  0  0
  5  4  2  0  0  0  0
  6  5  1  0  0  0  0
  7  6  2  0  0  0  0
  7  8  1  0  0  0  0
  8  3  2  0  0  0  0
  9 11  1  0  0  0  0
  9 10  2  0  0  0  0
 11 12  1  0  0  0  0
 14 13  1  6  0  0  0
 14 15  1  0  0  0  0
 14 19  1  0  0  0  0
 15 16  1  0  0  0  0
 16 17  2  0  0  0  0
 17  9  1  0  0  0  0
 18 17  1  0  0  0  0
 19 18  2  0  0  0  0
 20 19  1  0  0  0  0
 21 22  1  0  0  0  0
 21  1  1  0  0  0  0
 23 21  1  0  0  0  0
 24 23  2  0  0  0  0
 25 24  1  0  0  0  0
 26 25  2  0  0  0  0
 26 27  1  0  0  0  0
 27 32  1  0  0  0  0
 28 27  2  0  0  0  0
 28 29  1  0  0  0  0
 29 30  2  0  0  0  0
 30 31  1  0  0  0  0
 32 23  1  0  0  0  0
 32 31  2  0  0  0  0
 33 28  1  0  0  0  0
 34 33  1  0  0  0  0
 34 37  1  0  0  0  0
 35 33  2  0  0  0  0
 36 34  1  0  0  0  0
M  END
>  <minimizedAffinity>
-8.96651649

$$$$
