
 OpenBabel10152419443D

 37 40  0  0  1  0  0  0  0  0999 V2000
    3.2050   -8.8110  -26.1760 C   0  0  2  0  0  3  0  0  0  0  0  0
    2.5050   -8.5720  -24.8320 C   0  0  0  0  0  1  0  0  0  0  0  0
    1.4940   -5.7690  -27.7770 C   0  0  0  0  0  0  0  0  0  0  0  0
    1.8710   -5.9280  -29.1160 C   0  0  0  0  0  3  0  0  0  0  0  0
    2.7510   -6.9400  -29.4890 C   0  0  0  0  0  3  0  0  0  0  0  0
    3.2090   -7.8450  -28.5360 C   0  0  0  0  0  3  0  0  0  0  0  0
    2.7980   -7.7470  -27.1960 C   0  0  0  0  0  0  0  0  0  0  0  0
    1.9680   -6.6690  -26.8170 C   0  0  0  0  0  3  0  0  0  0  0  0
   -0.5820   -4.7380  -26.7520 C   0  0  0  0  0  0  0  0  0  0  0  0
   -1.4520   -3.9040  -27.0170 O   0  0  0  0  0  0  0  0  0  0  0  0
    0.5540   -4.7610  -27.5090 N   0  0  0  0  0  0  0  0  0  0  0  0
    0.6690   -3.8970  -28.0250 H   0  0  0  0  0  0  0  0  0  0  0  0
   -1.8710   -7.7500  -21.9850 C   0  0  0  0  0  1  0  0  0  0  0  0
   -1.0350   -7.2720  -23.1700 C   0  0  2  0  0  3  0  0  0  0  0  0
   -0.6960   -5.7750  -23.0200 C   0  0  0  0  0  2  0  0  0  0  0  0
   -0.3700   -5.0730  -24.3110 C   0  0  0  0  0  3  0  0  0  0  0  0
   -0.7140   -5.5770  -25.5130 C   0  0  0  0  0  0  0  0  0  0  0  0
   -1.4970   -6.8010  -25.5700 C   0  0  0  0  0  3  0  0  0  0  0  0
   -1.6680   -7.5860  -24.4980 C   0  0  0  0  0  0  0  0  0  0  0  0
   -2.4160   -8.7040  -24.6290 F   0  0  0  0  0  0  0  0  0  0  0  0
    2.8570  -10.1400  -26.6620 N   0  0  0  0  0  0  0  0  0  0  0  0
    3.5230  -10.6730  -27.1920 H   0  0  0  0  0  0  0  0  0  0  0  0
    1.7020  -10.7300  -26.1770 C   0  0  0  0  0  0  0  0  0  0  0  0
    0.5500  -10.3410  -26.7430 N   0  0  0  0  0  0  0  0  0  0  0  0
   -0.5700  -10.7270  -26.1410 C   0  0  0  0  0  3  0  0  0  0  0  0
   -0.6480  -11.3480  -24.9640 N   0  0  0  0  0  0  0  0  0  0  0  0
    0.5060  -11.7560  -24.4050 C   0  0  0  0  0  0  0  0  0  0  0  0
    0.5310  -12.3860  -23.1570 C   0  0  0  0  0  0  0  0  0  0  0  0
    1.6890  -12.9560  -22.6110 C   0  0  0  0  0  3  0  0  0  0  0  0
    2.8890  -12.8390  -23.2910 C   0  0  0  0  0  3  0  0  0  0  0  0
    2.9230  -12.1040  -24.4740 C   0  0  0  0  0  3  0  0  0  0  0  0
    1.7410  -11.5490  -25.0340 C   0  0  0  0  0  0  0  0  0  0  0  0
   -0.6530  -12.3470  -22.2800 C   0  0  0  0  0  0  0  0  0  0  0  0
   -1.6850  -11.5760  -22.7420 N   0  0  0  0  0  0  0  0  0  0  0  0
   -0.6580  -12.8630  -21.1720 O   0  0  0  0  0  0  0  0  0  0  0  0
   -2.5070  -11.4720  -22.1620 H   0  0  0  0  0  0  0  0  0  0  0  0
   -1.6600  -11.1140  -23.6410 H   0  0  0  0  0  0  0  0  0  0  0  0
  1  2  1  1  0  0  0
  3 11  1  0  0  0  0
  3  8  1  0  0  0  0
  4  3  2  0  0  0  0
  5  4  1  0  0  0  0
  5  6  2  0  0  0  0
  6  7  1  0  0  0  0
  7  8  2  0  0  0  0
  7  1  1  0  0  0  0
  9 17  1  0  0  0  0
 10  9  2  0  0  0  0
 11  9  1  0  0  0  0
 12 11  1  0  0  0  0
 14 15  1  0  0  0  0
 14 13  1  1  0  0  0
 16 15  1  0  0  0  0
 17 16  2  0  0  0  0
 18 17  1  0  0  0  0
 18 19  2  0  0  0  0
 19 14  1  0  0  0  0
 20 19  1  0  0  0  0
 21 23  1  0  0  0  0
 21  1  1  0  0  0  0
 22 21  1  0  0  0  0
 23 32  1  0  0  0  0
 24 23  2  0  0  0  0
 24 25  1  0  0  0  0
 25 26  2  0  0  0  0
 26 27  1  0  0  0  0
 27 28  1  0  0  0  0
 28 29  2  0  0  0  0
 28 33  1  0  0  0  0
 30 29  1  0  0  0  0
 31 30  2  0  0  0  0
 32 31  1  0  0  0  0
 32 27  2  0  0  0  0
 33 35  2  0  0  0  0
 34 33  1  0  0  0  0
 34 36  1  0  0  0  0
 37 34  1  0  0  0  0
M  END
>  <minimizedAffinity>
-8.25645542

$$$$
