
 OpenBabel10152419443D

 37 40  0  0  1  0  0  0  0  0999 V2000
    4.6720  -10.6010  -26.8160 C   0  0  2  0  0  3  0  0  0  0  0  0
    4.7220  -10.9750  -28.3020 C   0  0  0  0  0  1  0  0  0  0  0  0
    1.0150  -11.4380  -25.9930 C   0  0  0  0  0  0  0  0  0  0  0  0
    1.1670  -12.1330  -24.7890 C   0  0  0  0  0  3  0  0  0  0  0  0
    2.4350  -12.4250  -24.2940 C   0  0  0  0  0  3  0  0  0  0  0  0
    3.5630  -11.9630  -24.9660 C   0  0  0  0  0  3  0  0  0  0  0  0
    3.4390  -11.2090  -26.1450 C   0  0  0  0  0  0  0  0  0  0  0  0
    2.1490  -10.9880  -26.6770 C   0  0  0  0  0  3  0  0  0  0  0  0
   -1.4270  -10.8480  -25.6610 C   0  0  0  0  0  0  0  0  0  0  0  0
   -2.5270  -11.0490  -26.1830 O   0  0  0  0  0  0  0  0  0  0  0  0
   -0.3010  -11.1360  -26.3770 N   0  0  0  0  0  0  0  0  0  0  0  0
   -0.5050  -11.2170  -27.3660 H   0  0  0  0  0  0  0  0  0  0  0  0
   -1.8750   -8.4330  -20.4240 C   0  0  0  0  0  1  0  0  0  0  0  0
   -1.2080   -8.8600  -21.7300 C   0  0  2  0  0  3  0  0  0  0  0  0
   -1.8580   -8.1360  -22.9270 C   0  0  0  0  0  2  0  0  0  0  0  0
   -1.6880   -8.8350  -24.2500 C   0  0  0  0  0  3  0  0  0  0  0  0
   -1.3540  -10.1370  -24.3400 C   0  0  0  0  0  0  0  0  0  0  0  0
   -1.2310  -10.9230  -23.1230 C   0  0  0  0  0  3  0  0  0  0  0  0
   -1.1760  -10.3530  -21.9110 C   0  0  0  0  0  0  0  0  0  0  0  0
   -1.0690  -11.1520  -20.8260 F   0  0  0  0  0  0  0  0  0  0  0  0
    4.6520   -9.1500  -26.6920 N   0  0  0  0  0  0  0  0  0  0  0  0
    5.3900   -8.6750  -26.2010 H   0  0  0  0  0  0  0  0  0  0  0  0
    3.7420   -8.4420  -27.4590 C   0  0  0  0  0  0  0  0  0  0  0  0
    4.0600   -8.2660  -28.7500 N   0  0  0  0  0  0  0  0  0  0  0  0
    3.3130   -7.4070  -29.4360 C   0  0  0  0  0  3  0  0  0  0  0  0
    2.3710   -6.6130  -28.9260 N   0  0  0  0  0  0  0  0  0  0  0  0
    2.0380   -6.8030  -27.6360 C   0  0  0  0  0  0  0  0  0  0  0  0
    1.0860   -6.0000  -27.0010 C   0  0  0  0  0  0  0  0  0  0  0  0
    0.6050   -6.2580  -25.7100 C   0  0  0  0  0  3  0  0  0  0  0  0
    1.1370   -7.3110  -24.9860 C   0  0  0  0  0  3  0  0  0  0  0  0
    2.1800   -8.0500  -25.5400 C   0  0  0  0  0  3  0  0  0  0  0  0
    2.6460   -7.7970  -26.8590 C   0  0  0  0  0  0  0  0  0  0  0  0
    0.6450   -4.7370  -27.6210 C   0  0  0  0  0  0  0  0  0  0  0  0
    1.6040   -4.0910  -28.3540 N   0  0  0  0  0  0  0  0  0  0  0  0
   -0.4520   -4.2490  -27.3920 O   0  0  0  0  0  0  0  0  0  0  0  0
    1.3760   -3.1970  -28.7650 H   0  0  0  0  0  0  0  0  0  0  0  0
    2.5260   -4.4780  -28.5060 H   0  0  0  0  0  0  0  0  0  0  0  0
  1  2  1  6  0  0  0
  1 21  1  0  0  0  0
  1  7  1  0  0  0  0
  3  4  1  0  0  0  0
  4  5  2  0  0  0  0
  6  5  1  0  0  0  0
  7  6  2  0  0  0  0
  8  7  1  0  0  0  0
  8  3  2  0  0  0  0
  9 17  1  0  0  0  0
 10  9  2  0  0  0  0
 11  3  1  0  0  0  0
 11  9  1  0  0  0  0
 12 11  1  0  0  0  0
 14 13  1  1  0  0  0
 15 14  1  0  0  0  0
 16 15  1  0  0  0  0
 17 16  2  0  0  0  0
 17 18  1  0  0  0  0
 18 19  2  0  0  0  0
 19 14  1  0  0  0  0
 19 20  1  0  0  0  0
 21 22  1  0  0  0  0
 23 32  1  0  0  0  0
 23 21  1  0  0  0  0
 24 23  2  0  0  0  0
 25 26  2  0  0  0  0
 25 24  1  0  0  0  0
 26 27  1  0  0  0  0
 27 28  2  0  0  0  0
 27 32  1  0  0  0  0
 28 29  1  0  0  0  0
 29 30  2  0  0  0  0
 31 30  1  0  0  0  0
 32 31  2  0  0  0  0
 33 35  2  0  0  0  0
 33 28  1  0  0  0  0
 34 33  1  0  0  0  0
 36 34  1  0  0  0  0
 37 34  1  0  0  0  0
M  END
>  <minimizedAffinity>
-8.94308662

$$$$
