
 OpenBabel10152419443D

 37 40  0  0  1  0  0  0  0  0999 V2000
    0.3270   -7.7390  -23.8680 C   0  0  2  0  0  3  0  0  0  0  0  0
    0.2270   -6.2180  -24.0400 C   0  0  0  0  0  1  0  0  0  0  0  0
    2.7120   -8.1690  -26.8470 C   0  0  0  0  0  0  0  0  0  0  0  0
    3.1480   -9.4840  -26.6480 C   0  0  0  0  0  3  0  0  0  0  0  0
    2.7650  -10.1940  -25.5140 C   0  0  0  0  0  3  0  0  0  0  0  0
    1.8860   -9.6180  -24.6010 C   0  0  0  0  0  3  0  0  0  0  0  0
    1.3830   -8.3230  -24.8060 C   0  0  0  0  0  0  0  0  0  0  0  0
    1.8410   -7.5850  -25.9200 C   0  0  0  0  0  3  0  0  0  0  0  0
    2.4450   -6.7270  -28.9140 C   0  0  0  0  0  0  0  0  0  0  0  0
    2.8200   -6.6800  -30.0880 O   0  0  0  0  0  0  0  0  0  0  0  0
    3.0980   -7.5580  -28.0500 N   0  0  0  0  0  0  0  0  0  0  0  0
    4.0030   -7.8300  -28.4160 H   0  0  0  0  0  0  0  0  0  0  0  0
   -1.1180   -2.9550  -26.3560 C   0  0  0  0  0  1  0  0  0  0  0  0
   -0.5190   -3.7870  -27.4880 C   0  0  2  0  0  3  0  0  0  0  0  0
   -0.7320   -5.2910  -27.2200 C   0  0  0  0  0  2  0  0  0  0  0  0
    0.2390   -6.1980  -27.9290 C   0  0  0  0  0  3  0  0  0  0  0  0
    1.4090   -5.7530  -28.4290 C   0  0  0  0  0  0  0  0  0  0  0  0
    1.7920   -4.3670  -28.2090 C   0  0  0  0  0  3  0  0  0  0  0  0
    0.9220   -3.4510  -27.7630 C   0  0  0  0  0  0  0  0  0  0  0  0
    1.3550   -2.1850  -27.5760 F   0  0  0  0  0  0  0  0  0  0  0  0
   -0.9760   -8.3330  -24.1380 N   0  0  0  0  0  0  0  0  0  0  0  0
   -1.3050   -8.4180  -25.0840 H   0  0  0  0  0  0  0  0  0  0  0  0
   -1.6240   -8.9830  -23.1010 C   0  0  0  0  0  0  0  0  0  0  0  0
   -2.3500   -8.2140  -22.2760 N   0  0  0  0  0  0  0  0  0  0  0  0
   -2.7880   -8.7860  -21.1600 C   0  0  0  0  0  3  0  0  0  0  0  0
   -2.4620  -10.0050  -20.7280 N   0  0  0  0  0  0  0  0  0  0  0  0
   -1.7500  -10.7840  -21.5640 C   0  0  0  0  0  0  0  0  0  0  0  0
   -1.3310  -12.0640  -21.1900 C   0  0  0  0  0  0  0  0  0  0  0  0
   -0.7210  -12.9590  -22.0790 C   0  0  0  0  0  3  0  0  0  0  0  0
   -0.4470  -12.5500  -23.3730 C   0  0  0  0  0  3  0  0  0  0  0  0
   -0.7330  -11.2370  -23.7380 C   0  0  0  0  0  3  0  0  0  0  0  0
   -1.3740  -10.3420  -22.8390 C   0  0  0  0  0  0  0  0  0  0  0  0
   -1.3840  -12.4820  -19.7770 C   0  0  0  0  0  0  0  0  0  0  0  0
   -2.6360  -12.7790  -19.3120 N   0  0  0  0  0  0  0  0  0  0  0  0
   -0.4010  -12.4430  -19.0520 O   0  0  0  0  0  0  0  0  0  0  0  0
   -2.7430  -13.0260  -18.3380 H   0  0  0  0  0  0  0  0  0  0  0  0
   -3.4550  -12.7680  -19.9070 H   0  0  0  0  0  0  0  0  0  0  0  0
  1  2  1  6  0  0  0
  3  4  2  0  0  0  0
  3  8  1  0  0  0  0
  4  5  1  0  0  0  0
  5  6  2  0  0  0  0
  7  6  1  0  0  0  0
  7  1  1  0  0  0  0
  8  7  2  0  0  0  0
  9 17  1  0  0  0  0
  9 11  1  0  0  0  0
 10  9  2  0  0  0  0
 11  3  1  0  0  0  0
 12 11  1  0  0  0  0
 14 15  1  0  0  0  0
 14 13  1  1  0  0  0
 16 15  1  0  0  0  0
 17 18  1  0  0  0  0
 17 16  2  0  0  0  0
 18 19  2  0  0  0  0
 19 20  1  0  0  0  0
 19 14  1  0  0  0  0
 21  1  1  0  0  0  0
 21 23  1  0  0  0  0
 22 21  1  0  0  0  0
 23 32  2  0  0  0  0
 23 24  1  0  0  0  0
 24 25  2  0  0  0  0
 25 26  1  0  0  0  0
 27 28  1  0  0  0  0
 27 26  2  0  0  0  0
 28 33  1  0  0  0  0
 29 28  2  0  0  0  0
 30 29  1  0  0  0  0
 31 30  2  0  0  0  0
 31 32  1  0  0  0  0
 32 27  1  0  0  0  0
 33 34  1  0  0  0  0
 33 35  2  0  0  0  0
 34 36  1  0  0  0  0
 37 34  1  0  0  0  0
M  END
>  <minimizedAffinity>
-9.05630589

$$$$
