
 OpenBabel11232419593D

 35 39  0  0  1  0  0  0  0  0999 V2000
   -4.3440   -1.2320  -23.1110 O   0  0  0  0  0  0  0  0  0  0  0  0
   -2.1920    1.2620  -21.3780 C   0  0  0  0  0  0  0  0  0  0  0  0
   -1.8880    1.9990  -22.5190 C   0  0  0  0  0  3  0  0  0  0  0  0
   -2.3740    1.7180  -23.7490 N   0  0  0  0  0  0  0  0  0  0  0  0
   -3.2140    0.6660  -23.8500 C   0  0  0  0  0  3  0  0  0  0  0  0
   -3.5720   -0.1550  -22.7870 C   0  0  0  0  0  0  0  0  0  0  0  0
   -3.0630    0.1690  -21.5320 C   0  0  0  0  0  3  0  0  0  0  0  0
   -3.1350    0.4300  -15.7380 C   0  0  0  0  0  1  0  0  0  0  0  0
   -2.0020    1.2190  -16.2780 C   0  0  0  0  0  0  0  0  0  0  0  0
   -1.1330    1.8040  -15.4460 N   0  0  0  0  0  0  0  0  0  0  0  0
   -0.2510    2.4030  -16.2640 N   0  0  0  0  0  0  0  0  0  0  0  0
   -0.5310    2.2480  -17.5970 C   0  0  0  0  0  0  0  0  0  0  0  0
    0.1180    2.7100  -18.7430 C   0  0  0  0  0  3  0  0  0  0  0  0
   -0.4450    2.3640  -19.9790 C   0  0  0  0  0  3  0  0  0  0  0  0
   -1.6120    1.5890  -20.0720 C   0  0  0  0  0  0  0  0  0  0  0  0
   -2.2290    1.1310  -18.8910 C   0  0  0  0  0  3  0  0  0  0  0  0
   -1.6810    1.4720  -17.6390 C   0  0  0  0  0  0  0  0  0  0  0  0
    0.5240    2.9070  -15.8480 H   0  0  0  0  0  0  0  0  0  0  0  0
   -5.1320   -1.8900  -22.1130 C   0  0  0  0  0  2  0  0  0  0  0  0
   -6.2830   -0.9700  -21.6540 C   0  0  1  0  0  3  0  0  0  0  0  0
   -7.6090   -1.6050  -21.9800 N   0  0  0  0  0  4  0  0  0  0  0  0
   -7.7640   -2.4910  -21.4830 H   0  0  0  0  0  0  0  0  0  0  0  0
   -8.3930   -0.9750  -21.7700 H   0  0  0  0  0  0  0  0  0  0  0  0
   -7.6540   -1.8080  -22.9910 H   0  0  0  0  0  0  0  0  0  0  0  0
   -6.2360   -0.6610  -20.1500 C   0  0  0  0  0  2  0  0  0  0  0  0
   -6.2100   -1.9020  -19.3240 C   0  0  0  0  0  0  0  0  0  0  0  0
   -7.2940   -2.7160  -19.0580 C   0  0  0  0  0  3  0  0  0  0  0  0
   -6.8720   -3.7540  -18.2700 N   0  0  0  0  0  0  0  0  0  0  0  0
   -5.5290   -3.6290  -18.0070 C   0  0  0  0  0  0  0  0  0  0  0  0
   -4.6880   -4.4510  -17.2480 C   0  0  0  0  0  3  0  0  0  0  0  0
   -3.3410   -4.0940  -17.1600 C   0  0  0  0  0  3  0  0  0  0  0  0
   -2.8570   -2.9620  -17.8100 C   0  0  0  0  0  3  0  0  0  0  0  0
   -3.7120   -2.1500  -18.5660 C   0  0  0  0  0  3  0  0  0  0  0  0
   -5.0790   -2.4850  -18.6650 C   0  0  0  0  0  0  0  0  0  0  0  0
   -7.4520   -4.5120  -17.9320 H   0  0  0  0  0  0  0  0  0  0  0  0
  1  6  1  0  0  0  0
  1 19  1  0  0  0  0
  2 15  1  0  0  0  0
  3  2  2  0  0  0  0
  4  3  1  0  0  0  0
  5  4  2  0  0  0  0
  5  6  1  0  0  0  0
  6  7  2  0  0  0  0
  7  2  1  0  0  0  0
  9  8  1  0  0  0  0
  9 10  2  0  0  0  0
 11 18  1  0  0  0  0
 11 10  1  0  0  0  0
 12 11  1  0  0  0  0
 13 12  2  0  0  0  0
 14 13  1  0  0  0  0
 15 14  2  0  0  0  0
 15 16  1  0  0  0  0
 16 17  2  0  0  0  0
 17 12  1  0  0  0  0
 17  9  1  0  0  0  0
 20 19  1  1  0  0  0
 20 25  1  0  0  0  0
 21 23  1  0  0  0  0
 21 20  1  0  0  0  0
 21 22  1  0  0  0  0
 24 21  1  0  0  0  0
 25 26  1  0  0  0  0
 26 27  2  0  0  0  0
 26 34  1  0  0  0  0
 27 28  1  0  0  0  0
 28 29  1  0  0  0  0
 28 35  1  0  0  0  0
 29 30  1  0  0  0  0
 30 31  2  0  0  0  0
 32 31  1  0  0  0  0
 33 32  2  0  0  0  0
 34 33  1  0  0  0  0
 34 29  2  0  0  0  0
M  END
>  <minimizedAffinity>
-4.86769533

$$$$
