
 OpenBabel11232419593D

 35 39  0  0  1  0  0  0  0  0999 V2000
   -2.4350    1.0110  -18.0430 O   0  0  0  0  0  0  0  0  0  0  0  0
   -3.8480   -2.3650  -17.3650 C   0  0  0  0  0  0  0  0  0  0  0  0
   -2.7020   -2.8760  -16.7620 C   0  0  0  0  0  3  0  0  0  0  0  0
   -1.5710   -2.1620  -16.5680 N   0  0  0  0  0  0  0  0  0  0  0  0
   -1.5810   -0.8750  -16.9750 C   0  0  0  0  0  3  0  0  0  0  0  0
   -2.6570   -0.2620  -17.6080 C   0  0  0  0  0  0  0  0  0  0  0  0
   -3.8100   -1.0220  -17.7830 C   0  0  0  0  0  3  0  0  0  0  0  0
   -8.9090   -2.2610  -20.1530 C   0  0  0  0  0  1  0  0  0  0  0  0
   -8.4590   -3.3870  -19.2980 C   0  0  0  0  0  0  0  0  0  0  0  0
   -9.2480   -4.4530  -19.1210 N   0  0  0  0  0  0  0  0  0  0  0  0
   -8.5290   -5.2610  -18.3230 N   0  0  0  0  0  0  0  0  0  0  0  0
   -7.3140   -4.7450  -17.9560 C   0  0  0  0  0  0  0  0  0  0  0  0
   -6.2940   -5.2540  -17.1490 C   0  0  0  0  0  3  0  0  0  0  0  0
   -5.1570   -4.4520  -16.9760 C   0  0  0  0  0  3  0  0  0  0  0  0
   -5.0380   -3.1920  -17.5820 C   0  0  0  0  0  0  0  0  0  0  0  0
   -6.0850   -2.7220  -18.4000 C   0  0  0  0  0  3  0  0  0  0  0  0
   -7.2380   -3.5100  -18.5830 C   0  0  0  0  0  0  0  0  0  0  0  0
   -8.9290   -6.1560  -18.0610 H   0  0  0  0  0  0  0  0  0  0  0  0
   -1.2410    1.3370  -18.7630 C   0  0  0  0  0  2  0  0  0  0  0  0
   -1.4550    1.1090  -20.2750 C   0  0  1  0  0  3  0  0  0  0  0  0
   -0.5200    1.9870  -21.0640 N   0  0  0  0  0  4  0  0  0  0  0  0
    0.4700    1.7690  -20.9010 H   0  0  0  0  0  0  0  0  0  0  0  0
   -0.7040    1.9250  -22.0730 H   0  0  0  0  0  0  0  0  0  0  0  0
   -0.6660    2.9730  -20.7960 H   0  0  0  0  0  0  0  0  0  0  0  0
   -1.2370   -0.3530  -20.6930 C   0  0  0  0  0  2  0  0  0  0  0  0
   -2.0850   -0.7350  -21.8580 C   0  0  0  0  0  0  0  0  0  0  0  0
   -1.6210   -1.1470  -23.0920 C   0  0  0  0  0  3  0  0  0  0  0  0
   -2.7010   -1.4090  -23.8940 N   0  0  0  0  0  0  0  0  0  0  0  0
   -3.8660   -1.1650  -23.2090 C   0  0  0  0  0  0  0  0  0  0  0  0
   -5.1940   -1.2930  -23.6320 C   0  0  0  0  0  3  0  0  0  0  0  0
   -6.1990   -0.9910  -22.7110 C   0  0  0  0  0  3  0  0  0  0  0  0
   -5.8850   -0.5830  -21.4180 C   0  0  0  0  0  3  0  0  0  0  0  0
   -4.5520   -0.4620  -21.0090 C   0  0  0  0  0  3  0  0  0  0  0  0
   -3.5170   -0.7530  -21.9230 C   0  0  0  0  0  0  0  0  0  0  0  0
   -2.6580   -1.7420  -24.8490 H   0  0  0  0  0  0  0  0  0  0  0  0
  1  6  1  0  0  0  0
  2  3  1  0  0  0  0
  3  4  2  0  0  0  0
  5  4  1  0  0  0  0
  6  5  2  0  0  0  0
  7  6  1  0  0  0  0
  7  2  2  0  0  0  0
  8  9  1  0  0  0  0
  9 10  2  0  0  0  0
  9 17  1  0  0  0  0
 10 11  1  0  0  0  0
 11 18  1  0  0  0  0
 11 12  1  0  0  0  0
 12 13  1  0  0  0  0
 13 14  2  0  0  0  0
 15  2  1  0  0  0  0
 15 14  1  0  0  0  0
 16 15  2  0  0  0  0
 17 16  1  0  0  0  0
 17 12  2  0  0  0  0
 19  1  1  0  0  0  0
 20 25  1  1  0  0  0
 20 19  1  0  0  0  0
 21 22  1  0  0  0  0
 21 24  1  0  0  0  0
 21 20  1  0  0  0  0
 23 21  1  0  0  0  0
 26 25  1  0  0  0  0
 27 26  2  0  0  0  0
 28 29  1  0  0  0  0
 28 27  1  0  0  0  0
 29 34  1  0  0  0  0
 30 29  2  0  0  0  0
 30 31  1  0  0  0  0
 31 32  2  0  0  0  0
 32 33  1  0  0  0  0
 34 26  1  0  0  0  0
 34 33  2  0  0  0  0
 35 28  1  0  0  0  0
M  END
>  <minimizedAffinity>
-6.73732185

$$$$
