
 OpenBabel11232419593D

 35 39  0  0  1  0  0  0  0  0999 V2000
   -2.4350    1.0110  -18.0430 O   0  0  0  0  0  0  0  0  0  0  0  0
   -3.8480   -2.3650  -17.3650 C   0  0  0  0  0  0  0  0  0  0  0  0
   -2.7020   -2.8760  -16.7620 C   0  0  0  0  0  3  0  0  0  0  0  0
   -1.5710   -2.1620  -16.5680 N   0  0  0  0  0  0  0  0  0  0  0  0
   -1.5810   -0.8750  -16.9750 C   0  0  0  0  0  3  0  0  0  0  0  0
   -2.6570   -0.2620  -17.6080 C   0  0  0  0  0  0  0  0  0  0  0  0
   -3.8100   -1.0220  -17.7830 C   0  0  0  0  0  3  0  0  0  0  0  0
   -8.9090   -2.2610  -20.1530 C   0  0  0  0  0  1  0  0  0  0  0  0
   -8.4590   -3.3870  -19.2980 C   0  0  0  0  0  0  0  0  0  0  0  0
   -9.2480   -4.4530  -19.1210 N   0  0  0  0  0  0  0  0  0  0  0  0
   -8.5290   -5.2610  -18.3230 N   0  0  0  0  0  0  0  0  0  0  0  0
   -7.3140   -4.7450  -17.9560 C   0  0  0  0  0  0  0  0  0  0  0  0
   -6.2940   -5.2540  -17.1490 C   0  0  0  0  0  3  0  0  0  0  0  0
   -5.1570   -4.4520  -16.9760 C   0  0  0  0  0  3  0  0  0  0  0  0
   -5.0380   -3.1920  -17.5820 C   0  0  0  0  0  0  0  0  0  0  0  0
   -6.0850   -2.7220  -18.4000 C   0  0  0  0  0  3  0  0  0  0  0  0
   -7.2380   -3.5100  -18.5830 C   0  0  0  0  0  0  0  0  0  0  0  0
   -8.9290   -6.1560  -18.0610 H   0  0  0  0  0  0  0  0  0  0  0  0
   -1.2410    1.3370  -18.7630 C   0  0  0  0  0  2  0  0  0  0  0  0
   -1.4550    1.1090  -20.2750 C   0  0  1  0  0  3  0  0  0  0  0  0
   -0.5200    1.9870  -21.0640 N   0  0  0  0  0  4  0  0  0  0  0  0
    0.4700    1.7690  -20.9010 H   0  0  0  0  0  0  0  0  0  0  0  0
   -0.7040    1.9250  -22.0730 H   0  0  0  0  0  0  0  0  0  0  0  0
   -0.6660    2.9730  -20.7960 H   0  0  0  0  0  0  0  0  0  0  0  0
   -1.2370   -0.3530  -20.6930 C   0  0  0  0  0  2  0  0  0  0  0  0
   -2.0850   -0.7350  -21.8580 C   0  0  0  0  0  0  0  0  0  0  0  0
   -1.6210   -1.1470  -23.0920 C   0  0  0  0  0  3  0  0  0  0  0  0
   -2.7010   -1.4090  -23.8940 N   0  0  0  0  0  0  0  0  0  0  0  0
   -3.8660   -1.1650  -23.2090 C   0  0  0  0  0  0  0  0  0  0  0  0
   -5.1940   -1.2930  -23.6320 C   0  0  0  0  0  3  0  0  0  0  0  0
   -6.1990   -0.9910  -22.7110 C   0  0  0  0  0  3  0  0  0  0  0  0
   -5.8850   -0.5830  -21.4180 C   0  0  0  0  0  3  0  0  0  0  0  0
   -4.5520   -0.4620  -21.0090 C   0  0  0  0  0  3  0  0  0  0  0  0
   -3.5170   -0.7530  -21.9230 C   0  0  0  0  0  0  0  0  0  0  0  0
   -2.6580   -1.7420  -24.8490 H   0  0  0  0  0  0  0  0  0  0  0  0
  1  6  1  0  0  0  0
  2  3  1  0  0  0  0
  3  4  2  0  0  0  0
  5  4  1  0  0  0  0
  6  5  2  0  0  0  0
  7  6  1  0  0  0  0
  7  2  2  0  0  0  0
  8  9  1  0  0  0  0
  9 10  2  0  0  0  0
  9 17  1  0  0  0  0
 10 11  1  0  0  0  0
 11 18  1  0  0  0  0
 11 12  1  0  0  0  0
 12 13  1  0  0  0  0
 13 14  2  0  0  0  0
 15  2  1  0  0  0  0
 15 14  1  0  0  0  0
 16 15  2  0  0  0  0
 17 16  1  0  0  0  0
 17 12  2  0  0  0  0
 19  1  1  0  0  0  0
 20 25  1  1  0  0  0
 20 19  1  0  0  0  0
 21 22  1  0  0  0  0
 21 24  1  0  0  0  0
 21 20  1  0  0  0  0
 23 21  1  0  0  0  0
 26 25  1  0  0  0  0
 27 26  2  0  0  0  0
 28 29  1  0  0  0  0
 28 27  1  0  0  0  0
 29 34  1  0  0  0  0
 30 29  2  0  0  0  0
 30 31  1  0  0  0  0
 31 32  2  0  0  0  0
 32 33  1  0  0  0  0
 34 26  1  0  0  0  0
 34 33  2  0  0  0  0
 35 28  1  0  0  0  0
M  END
>  <minimizedAffinity>
-6.73732185

$$$$

 OpenBabel11232419593D

 35 39  0  0  1  0  0  0  0  0999 V2000
   -1.2100    0.2420  -21.0450 O   0  0  0  0  0  0  0  0  0  0  0  0
   -4.7620   -0.8700  -21.0140 C   0  0  0  0  0  0  0  0  0  0  0  0
   -5.1950    0.0240  -21.9890 C   0  0  0  0  0  3  0  0  0  0  0  0
   -4.3830    0.8980  -22.6240 N   0  0  0  0  0  0  0  0  0  0  0  0
   -3.0750    0.8740  -22.2890 C   0  0  0  0  0  3  0  0  0  0  0  0
   -2.5310    0.0420  -21.3170 C   0  0  0  0  0  0  0  0  0  0  0  0
   -3.3930   -0.8540  -20.6900 C   0  0  0  0  0  3  0  0  0  0  0  0
   -4.8050   -5.0330  -17.0050 C   0  0  0  0  0  1  0  0  0  0  0  0
   -6.0130   -4.5740  -17.7330 C   0  0  0  0  0  0  0  0  0  0  0  0
   -7.2000   -5.1410  -17.4900 N   0  0  0  0  0  0  0  0  0  0  0  0
   -8.0480   -4.4800  -18.2950 N   0  0  0  0  0  0  0  0  0  0  0  0
   -7.4490   -3.5210  -19.0700 C   0  0  0  0  0  0  0  0  0  0  0  0
   -7.9650   -2.6390  -20.0210 C   0  0  0  0  0  3  0  0  0  0  0  0
   -7.0590   -1.7690  -20.6430 C   0  0  0  0  0  3  0  0  0  0  0  0
   -5.6910   -1.7750  -20.3310 C   0  0  0  0  0  0  0  0  0  0  0  0
   -5.2130   -2.6730  -19.3550 C   0  0  0  0  0  3  0  0  0  0  0  0
   -6.1060   -3.5590  -18.7220 C   0  0  0  0  0  0  0  0  0  0  0  0
   -9.0300   -4.7340  -18.2700 H   0  0  0  0  0  0  0  0  0  0  0  0
   -0.7430    0.2880  -19.6920 C   0  0  0  0  0  2  0  0  0  0  0  0
   -0.7710    1.7410  -19.1710 C   0  0  1  0  0  3  0  0  0  0  0  0
   -0.3750    2.6890  -20.2730 N   0  0  0  0  0  4  0  0  0  0  0  0
   -1.0280    2.6790  -21.0660 H   0  0  0  0  0  0  0  0  0  0  0  0
   -0.2940    3.6550  -19.9310 H   0  0  0  0  0  0  0  0  0  0  0  0
    0.5540    2.4240  -20.6360 H   0  0  0  0  0  0  0  0  0  0  0  0
   -2.1480    2.1540  -18.6310 C   0  0  0  0  0  2  0  0  0  0  0  0
   -2.2870    1.8660  -17.1740 C   0  0  0  0  0  0  0  0  0  0  0  0
   -1.9240    2.7150  -16.1470 C   0  0  0  0  0  3  0  0  0  0  0  0
   -2.2070    2.0990  -14.9560 N   0  0  0  0  0  0  0  0  0  0  0  0
   -2.7410    0.8540  -15.1860 C   0  0  0  0  0  0  0  0  0  0  0  0
   -3.1690   -0.1170  -14.2730 C   0  0  0  0  0  3  0  0  0  0  0  0
   -3.6950   -1.3030  -14.7890 C   0  0  0  0  0  3  0  0  0  0  0  0
   -3.7910   -1.5060  -16.1620 C   0  0  0  0  0  3  0  0  0  0  0  0
   -3.3600   -0.5240  -17.0630 C   0  0  0  0  0  3  0  0  0  0  0  0
   -2.8180    0.6810  -16.5680 C   0  0  0  0  0  0  0  0  0  0  0  0
   -2.0580    2.4950  -14.0370 H   0  0  0  0  0  0  0  0  0  0  0  0
  1 19  1  0  0  0  0
  2  7  1  0  0  0  0
  2 15  1  0  0  0  0
  3  2  2  0  0  0  0
  4  5  2  0  0  0  0
  4  3  1  0  0  0  0
  5  6  1  0  0  0  0
  6  1  1  0  0  0  0
  6  7  2  0  0  0  0
  9 10  2  0  0  0  0
  9  8  1  0  0  0  0
 11 18  1  0  0  0  0
 11 10  1  0  0  0  0
 12 17  1  0  0  0  0
 12 11  1  0  0  0  0
 13 12  2  0  0  0  0
 14 15  2  0  0  0  0
 14 13  1  0  0  0  0
 15 16  1  0  0  0  0
 16 17  2  0  0  0  0
 17  9  1  0  0  0  0
 20 19  1  6  0  0  0
 20 25  1  0  0  0  0
 21 23  1  0  0  0  0
 21 20  1  0  0  0  0
 22 21  1  0  0  0  0
 24 21  1  0  0  0  0
 25 26  1  0  0  0  0
 26 34  1  0  0  0  0
 26 27  2  0  0  0  0
 27 28  1  0  0  0  0
 28 35  1  0  0  0  0
 29 28  1  0  0  0  0
 29 30  1  0  0  0  0
 31 30  2  0  0  0  0
 32 31  1  0  0  0  0
 33 34  1  0  0  0  0
 33 32  2  0  0  0  0
 34 29  2  0  0  0  0
M  END
>  <minimizedAffinity>
-6.72767448

$$$$

 OpenBabel11232419593D

 35 39  0  0  1  0  0  0  0  0999 V2000
   -2.5130    2.0090  -19.6250 O   0  0  0  0  0  0  0  0  0  0  0  0
   -4.5350   -0.9580  -20.6080 C   0  0  0  0  0  0  0  0  0  0  0  0
   -3.6510   -1.4090  -21.5850 C   0  0  0  0  0  3  0  0  0  0  0  0
   -2.4770   -0.8060  -21.8750 N   0  0  0  0  0  0  0  0  0  0  0  0
   -2.1540    0.2860  -21.1510 C   0  0  0  0  0  3  0  0  0  0  0  0
   -2.9640    0.8420  -20.1670 C   0  0  0  0  0  0  0  0  0  0  0  0
   -4.1620    0.1900  -19.8860 C   0  0  0  0  0  3  0  0  0  0  0  0
   -6.8170   -5.1180  -17.3100 C   0  0  0  0  0  1  0  0  0  0  0  0
   -7.5850   -4.3500  -18.3200 C   0  0  0  0  0  0  0  0  0  0  0  0
   -8.8800   -4.6160  -18.5240 N   0  0  0  0  0  0  0  0  0  0  0  0
   -9.2470   -3.7370  -19.4730 N   0  0  0  0  0  0  0  0  0  0  0  0
   -8.2290   -2.9300  -19.9100 C   0  0  0  0  0  0  0  0  0  0  0  0
   -8.1940   -1.9150  -20.8680 C   0  0  0  0  0  3  0  0  0  0  0  0
   -6.9650   -1.2740  -21.0740 C   0  0  0  0  0  3  0  0  0  0  0  0
   -5.8130   -1.6290  -20.3550 C   0  0  0  0  0  0  0  0  0  0  0  0
   -5.8950   -2.6500  -19.3870 C   0  0  0  0  0  3  0  0  0  0  0  0
   -7.1190   -3.3100  -19.1680 C   0  0  0  0  0  0  0  0  0  0  0  0
  -10.2120   -3.7420  -19.7840 H   0  0  0  0  0  0  0  0  0  0  0  0
   -2.6140    2.2450  -18.2170 C   0  0  0  0  0  2  0  0  0  0  0  0
   -1.4300    1.5800  -17.4820 C   0  0  1  0  0  3  0  0  0  0  0  0
   -0.1790    2.3930  -17.6840 N   0  0  0  0  0  4  0  0  0  0  0  0
   -0.2430    3.3370  -17.2830 H   0  0  0  0  0  0  0  0  0  0  0  0
    0.6450    1.9260  -17.2840 H   0  0  0  0  0  0  0  0  0  0  0  0
    0.0020    2.5000  -18.6940 H   0  0  0  0  0  0  0  0  0  0  0  0
   -1.6800    1.4170  -15.9760 C   0  0  0  0  0  2  0  0  0  0  0  0
   -2.5830    0.2670  -15.6790 C   0  0  0  0  0  0  0  0  0  0  0  0
   -3.4890    0.2020  -14.6380 C   0  0  0  0  0  3  0  0  0  0  0  0
   -4.1300   -1.0080  -14.6990 N   0  0  0  0  0  0  0  0  0  0  0  0
   -3.6520   -1.7410  -15.7580 C   0  0  0  0  0  0  0  0  0  0  0  0
   -4.0130   -3.0220  -16.1920 C   0  0  0  0  0  3  0  0  0  0  0  0
   -3.3700   -3.5260  -17.3240 C   0  0  0  0  0  3  0  0  0  0  0  0
   -2.4090   -2.7760  -17.9950 C   0  0  0  0  0  3  0  0  0  0  0  0
   -2.0590   -1.4960  -17.5490 C   0  0  0  0  0  3  0  0  0  0  0  0
   -2.6890   -0.9650  -16.4030 C   0  0  0  0  0  0  0  0  0  0  0  0
   -4.8560   -1.3220  -14.0680 H   0  0  0  0  0  0  0  0  0  0  0  0
  1 19  1  0  0  0  0
  2 15  1  0  0  0  0
  2  7  1  0  0  0  0
  3  2  2  0  0  0  0
  4  3  1  0  0  0  0
  4  5  2  0  0  0  0
  5  6  1  0  0  0  0
  6  7  2  0  0  0  0
  6  1  1  0  0  0  0
  9  8  1  0  0  0  0
 10  9  2  0  0  0  0
 11 10  1  0  0  0  0
 12 11  1  0  0  0  0
 12 17  1  0  0  0  0
 13 12  2  0  0  0  0
 14 13  1  0  0  0  0
 14 15  2  0  0  0  0
 15 16  1  0  0  0  0
 16 17  2  0  0  0  0
 17  9  1  0  0  0  0
 18 11  1  0  0  0  0
 20 19  1  1  0  0  0
 20 25  1  0  0  0  0
 21 20  1  0  0  0  0
 21 23  1  0  0  0  0
 21 22  1  0  0  0  0
 24 21  1  0  0  0  0
 25 26  1  0  0  0  0
 26 27  2  0  0  0  0
 28 27  1  0  0  0  0
 28 35  1  0  0  0  0
 29 28  1  0  0  0  0
 30 29  1  0  0  0  0
 31 30  2  0  0  0  0
 32 33  2  0  0  0  0
 32 31  1  0  0  0  0
 33 34  1  0  0  0  0
 34 29  2  0  0  0  0
 34 26  1  0  0  0  0
M  END
>  <minimizedAffinity>
-6.71983957

$$$$

 OpenBabel11232419593D

 35 39  0  0  1  0  0  0  0  0999 V2000
   -1.5360    0.2480  -22.4820 O   0  0  0  0  0  0  0  0  0  0  0  0
   -4.1810   -1.5630  -20.5920 C   0  0  0  0  0  0  0  0  0  0  0  0
   -5.2450   -0.8190  -21.0950 C   0  0  0  0  0  3  0  0  0  0  0  0
   -5.1070    0.1740  -22.0020 N   0  0  0  0  0  0  0  0  0  0  0  0
   -3.8570    0.4310  -22.4440 C   0  0  0  0  0  3  0  0  0  0  0  0
   -2.7180   -0.2290  -21.9980 C   0  0  0  0  0  0  0  0  0  0  0  0
   -2.8960   -1.2540  -21.0720 C   0  0  0  0  0  3  0  0  0  0  0  0
   -8.4020   -4.6660  -18.1520 C   0  0  0  0  0  1  0  0  0  0  0  0
   -6.9710   -4.7830  -17.7820 C   0  0  0  0  0  0  0  0  0  0  0  0
   -6.5930   -5.6330  -16.8200 N   0  0  0  0  0  0  0  0  0  0  0  0
   -5.2580   -5.4910  -16.7660 N   0  0  0  0  0  0  0  0  0  0  0  0
   -4.7600   -4.5610  -17.6410 C   0  0  0  0  0  0  0  0  0  0  0  0
   -3.4580   -4.1200  -17.8870 C   0  0  0  0  0  3  0  0  0  0  0  0
   -3.2930   -3.1350  -18.8710 C   0  0  0  0  0  3  0  0  0  0  0  0
   -4.3810   -2.6080  -19.5840 C   0  0  0  0  0  0  0  0  0  0  0  0
   -5.6770   -3.0910  -19.3140 C   0  0  0  0  0  3  0  0  0  0  0  0
   -5.8650   -4.0760  -18.3260 C   0  0  0  0  0  0  0  0  0  0  0  0
   -4.7410   -6.0590  -16.1040 H   0  0  0  0  0  0  0  0  0  0  0  0
   -0.3650    0.2670  -21.6570 C   0  0  0  0  0  2  0  0  0  0  0  0
    0.1270    1.7190  -21.4690 C   0  0  1  0  0  3  0  0  0  0  0  0
   -0.6900    2.6520  -22.3240 N   0  0  0  0  0  4  0  0  0  0  0  0
   -1.6830    2.6720  -22.0620 H   0  0  0  0  0  0  0  0  0  0  0  0
   -0.3260    3.6120  -22.2900 H   0  0  0  0  0  0  0  0  0  0  0  0
   -0.6380    2.3490  -23.3090 H   0  0  0  0  0  0  0  0  0  0  0  0
    0.0520    2.1880  -20.0090 C   0  0  0  0  0  2  0  0  0  0  0  0
   -1.2830    1.9190  -19.4020 C   0  0  0  0  0  0  0  0  0  0  0  0
   -2.4630    2.5550  -19.7360 C   0  0  0  0  0  3  0  0  0  0  0  0
   -3.4680    2.0340  -18.9640 N   0  0  0  0  0  0  0  0  0  0  0  0
   -2.9650    1.0720  -18.1220 C   0  0  0  0  0  0  0  0  0  0  0  0
   -3.6230    0.2880  -17.1670 C   0  0  0  0  0  3  0  0  0  0  0  0
   -2.8600   -0.6370  -16.4530 C   0  0  0  0  0  3  0  0  0  0  0  0
   -1.4960   -0.7750  -16.6890 C   0  0  0  0  0  3  0  0  0  0  0  0
   -0.8520    0.0170  -17.6490 C   0  0  0  0  0  3  0  0  0  0  0  0
   -1.5980    0.9650  -18.3800 C   0  0  0  0  0  0  0  0  0  0  0  0
   -4.4430    2.3030  -19.0060 H   0  0  0  0  0  0  0  0  0  0  0  0
  1  6  1  0  0  0  0
  1 19  1  0  0  0  0
  2 15  1  0  0  0  0
  3  2  2  0  0  0  0
  4  3  1  0  0  0  0
  5  4  2  0  0  0  0
  5  6  1  0  0  0  0
  6  7  2  0  0  0  0
  7  2  1  0  0  0  0
  8  9  1  0  0  0  0
  9 10  2  0  0  0  0
 10 11  1  0  0  0  0
 11 18  1  0  0  0  0
 12 11  1  0  0  0  0
 13 12  1  0  0  0  0
 14 13  2  0  0  0  0
 15 16  2  0  0  0  0
 15 14  1  0  0  0  0
 16 17  1  0  0  0  0
 17  9  1  0  0  0  0
 17 12  2  0  0  0  0
 20 19  1  1  0  0  0
 20 25  1  0  0  0  0
 21 23  1  0  0  0  0
 21 22  1  0  0  0  0
 21 20  1  0  0  0  0
 24 21  1  0  0  0  0
 25 26  1  0  0  0  0
 26 34  1  0  0  0  0
 27 26  2  0  0  0  0
 27 28  1  0  0  0  0
 28 29  1  0  0  0  0
 29 30  1  0  0  0  0
 30 31  2  0  0  0  0
 32 31  1  0  0  0  0
 33 32  2  0  0  0  0
 34 29  2  0  0  0  0
 34 33  1  0  0  0  0
 35 28  1  0  0  0  0
M  END
>  <minimizedAffinity>
-6.52941227

$$$$

 OpenBabel11232419593D

 35 39  0  0  1  0  0  0  0  0999 V2000
   -5.7030   -3.9190  -18.4930 O   0  0  0  0  0  0  0  0  0  0  0  0
   -5.5440   -1.2640  -21.0960 C   0  0  0  0  0  0  0  0  0  0  0  0
   -6.9230   -1.1270  -21.2380 C   0  0  0  0  0  3  0  0  0  0  0  0
   -7.8270   -1.8270  -20.5170 N   0  0  0  0  0  0  0  0  0  0  0  0
   -7.3440   -2.6920  -19.6010 C   0  0  0  0  0  3  0  0  0  0  0  0
   -5.9900   -2.9290  -19.3850 C   0  0  0  0  0  0  0  0  0  0  0  0
   -5.0850   -2.1840  -20.1360 C   0  0  0  0  0  3  0  0  0  0  0  0
   -1.2780    2.6030  -20.6130 C   0  0  0  0  0  1  0  0  0  0  0  0
   -1.7680    2.0710  -21.9080 C   0  0  0  0  0  0  0  0  0  0  0  0
   -1.2310    2.4980  -23.0570 N   0  0  0  0  0  0  0  0  0  0  0  0
   -1.8910    1.8070  -24.0020 N   0  0  0  0  0  0  0  0  0  0  0  0
   -2.8550    0.9670  -23.5080 C   0  0  0  0  0  0  0  0  0  0  0  0
   -3.7460    0.1000  -24.1430 C   0  0  0  0  0  3  0  0  0  0  0  0
   -4.6190   -0.6300  -23.3240 C   0  0  0  0  0  3  0  0  0  0  0  0
   -4.6050   -0.5040  -21.9260 C   0  0  0  0  0  0  0  0  0  0  0  0
   -3.6800    0.3710  -21.3240 C   0  0  0  0  0  3  0  0  0  0  0  0
   -2.7980    1.1190  -22.1290 C   0  0  0  0  0  0  0  0  0  0  0  0
   -1.6370    1.9580  -24.9720 H   0  0  0  0  0  0  0  0  0  0  0  0
   -5.1770   -3.6040  -17.1990 C   0  0  0  0  0  2  0  0  0  0  0  0
   -3.6470   -3.8080  -17.1840 C   0  0  1  0  0  3  0  0  0  0  0  0
   -3.2590   -4.8510  -18.1990 N   0  0  0  0  0  4  0  0  0  0  0  0
   -3.4810   -4.5760  -19.1640 H   0  0  0  0  0  0  0  0  0  0  0  0
   -2.2570   -5.0750  -18.1480 H   0  0  0  0  0  0  0  0  0  0  0  0
   -3.7690   -5.7270  -18.0040 H   0  0  0  0  0  0  0  0  0  0  0  0
   -2.8720   -2.5160  -17.4780 C   0  0  0  0  0  2  0  0  0  0  0  0
   -3.1120   -1.4710  -16.4410 C   0  0  0  0  0  0  0  0  0  0  0  0
   -3.2750   -1.7010  -15.0880 C   0  0  0  0  0  3  0  0  0  0  0  0
   -3.4720   -0.4960  -14.4660 N   0  0  0  0  0  0  0  0  0  0  0  0
   -3.4500    0.5200  -15.3900 C   0  0  0  0  0  0  0  0  0  0  0  0
   -3.6100    1.8980  -15.2060 C   0  0  0  0  0  3  0  0  0  0  0  0
   -3.5230    2.7160  -16.3340 C   0  0  0  0  0  3  0  0  0  0  0  0
   -3.2810    2.1760  -17.5930 C   0  0  0  0  0  3  0  0  0  0  0  0
   -3.1220    0.7940  -17.7610 C   0  0  0  0  0  3  0  0  0  0  0  0
   -3.2130   -0.0560  -16.6380 C   0  0  0  0  0  0  0  0  0  0  0  0
   -3.6060   -0.3620  -13.4720 H   0  0  0  0  0  0  0  0  0  0  0  0
  1 19  1  0  0  0  0
  2  7  1  0  0  0  0
  3  2  2  0  0  0  0
  3  4  1  0  0  0  0
  4  5  2  0  0  0  0
  5  6  1  0  0  0  0
  6  1  1  0  0  0  0
  7  6  2  0  0  0  0
  9  8  1  0  0  0  0
 10  9  2  0  0  0  0
 11 12  1  0  0  0  0
 11 10  1  0  0  0  0
 12 17  1  0  0  0  0
 13 12  2  0  0  0  0
 13 14  1  0  0  0  0
 14 15  2  0  0  0  0
 15 16  1  0  0  0  0
 15  2  1  0  0  0  0
 17  9  1  0  0  0  0
 17 16  2  0  0  0  0
 18 11  1  0  0  0  0
 19 20  1  0  0  0  0
 20 25  1  6  0  0  0
 21 23  1  0  0  0  0
 21 24  1  0  0  0  0
 21 20  1  0  0  0  0
 22 21  1  0  0  0  0
 25 26  1  0  0  0  0
 26 27  2  0  0  0  0
 27 28  1  0  0  0  0
 28 35  1  0  0  0  0
 29 30  1  0  0  0  0
 29 28  1  0  0  0  0
 31 30  2  0  0  0  0
 32 31  1  0  0  0  0
 33 32  2  0  0  0  0
 33 34  1  0  0  0  0
 34 26  1  0  0  0  0
 34 29  2  0  0  0  0
M  END
>  <minimizedAffinity>
-6.05682993

$$$$

 OpenBabel11232419593D

 35 39  0  0  1  0  0  0  0  0999 V2000
   -3.0490   -0.4450  -22.4840 O   0  0  0  0  0  0  0  0  0  0  0  0
   -1.8070    1.6640  -19.6800 C   0  0  0  0  0  0  0  0  0  0  0  0
   -1.3380    2.7000  -20.4840 C   0  0  0  0  0  3  0  0  0  0  0  0
   -1.4480    2.7170  -21.8310 N   0  0  0  0  0  0  0  0  0  0  0  0
   -2.0670    1.6660  -22.4090 C   0  0  0  0  0  3  0  0  0  0  0  0
   -2.5550    0.5650  -21.7130 C   0  0  0  0  0  0  0  0  0  0  0  0
   -2.4370    0.5840  -20.3260 C   0  0  0  0  0  3  0  0  0  0  0  0
   -3.5840   -1.1290  -14.9430 C   0  0  0  0  0  1  0  0  0  0  0  0
   -2.6590    0.0300  -14.9210 C   0  0  0  0  0  0  0  0  0  0  0  0
   -2.1980    0.5000  -13.7560 N   0  0  0  0  0  0  0  0  0  0  0  0
   -1.3930    1.5160  -14.1100 N   0  0  0  0  0  0  0  0  0  0  0  0
   -1.3350    1.7380  -15.4610 C   0  0  0  0  0  0  0  0  0  0  0  0
   -0.6370    2.6790  -16.2200 C   0  0  0  0  0  3  0  0  0  0  0  0
   -0.8040    2.6290  -17.6110 C   0  0  0  0  0  3  0  0  0  0  0  0
   -1.6340    1.6790  -18.2250 C   0  0  0  0  0  0  0  0  0  0  0  0
   -2.3100    0.7370  -17.4240 C   0  0  0  0  0  3  0  0  0  0  0  0
   -2.1600    0.7740  -16.0240 C   0  0  0  0  0  0  0  0  0  0  0  0
   -0.9110    2.0240  -13.3770 H   0  0  0  0  0  0  0  0  0  0  0  0
   -4.0080   -1.3660  -21.9530 C   0  0  0  0  0  2  0  0  0  0  0  0
   -5.3800   -0.6730  -21.8020 C   0  0  1  0  0  3  0  0  0  0  0  0
   -6.4470   -1.4950  -22.4750 N   0  0  0  0  0  4  0  0  0  0  0  0
   -6.5700   -2.4220  -22.0490 H   0  0  0  0  0  0  0  0  0  0  0  0
   -7.3550   -1.0130  -22.4710 H   0  0  0  0  0  0  0  0  0  0  0  0
   -6.1940   -1.6420  -23.4650 H   0  0  0  0  0  0  0  0  0  0  0  0
   -5.7750   -0.4500  -20.3350 C   0  0  0  0  0  2  0  0  0  0  0  0
   -6.0220   -1.7350  -19.6200 C   0  0  0  0  0  0  0  0  0  0  0  0
   -7.2280   -2.4060  -19.5620 C   0  0  0  0  0  3  0  0  0  0  0  0
   -7.0550   -3.5430  -18.8170 N   0  0  0  0  0  0  0  0  0  0  0  0
   -5.7560   -3.6240  -18.3770 C   0  0  0  0  0  0  0  0  0  0  0  0
   -5.1390   -4.6040  -17.5910 C   0  0  0  0  0  3  0  0  0  0  0  0
   -3.7820   -4.4440  -17.3040 C   0  0  0  0  0  3  0  0  0  0  0  0
   -3.0730   -3.3490  -17.7890 C   0  0  0  0  0  3  0  0  0  0  0  0
   -3.7040   -2.3770  -18.5760 C   0  0  0  0  0  3  0  0  0  0  0  0
   -5.0770   -2.5120  -18.8740 C   0  0  0  0  0  0  0  0  0  0  0  0
   -7.7690   -4.2340  -18.6210 H   0  0  0  0  0  0  0  0  0  0  0  0
  1 19  1  0  0  0  0
  1  6  1  0  0  0  0
  2 15  1  0  0  0  0
  3  2  2  0  0  0  0
  4  3  1  0  0  0  0
  5  4  2  0  0  0  0
  5  6  1  0  0  0  0
  6  7  2  0  0  0  0
  7  2  1  0  0  0  0
  8  9  1  0  0  0  0
  9 10  2  0  0  0  0
 11 10  1  0  0  0  0
 11 18  1  0  0  0  0
 12 11  1  0  0  0  0
 13 12  2  0  0  0  0
 14 13  1  0  0  0  0
 15 14  2  0  0  0  0
 15 16  1  0  0  0  0
 16 17  2  0  0  0  0
 17 12  1  0  0  0  0
 17  9  1  0  0  0  0
 20 19  1  1  0  0  0
 20 25  1  0  0  0  0
 21 23  1  0  0  0  0
 21 22  1  0  0  0  0
 21 20  1  0  0  0  0
 24 21  1  0  0  0  0
 25 26  1  0  0  0  0
 26 27  2  0  0  0  0
 26 34  1  0  0  0  0
 27 28  1  0  0  0  0
 28 35  1  0  0  0  0
 28 29  1  0  0  0  0
 29 30  1  0  0  0  0
 30 31  2  0  0  0  0
 32 31  1  0  0  0  0
 33 32  2  0  0  0  0
 34 33  1  0  0  0  0
 34 29  2  0  0  0  0
M  END
>  <minimizedAffinity>
-5.94274378

$$$$

 OpenBabel11232419593D

 35 39  0  0  1  0  0  0  0  0999 V2000
   -3.8410    1.4640  -19.7820 O   0  0  0  0  0  0  0  0  0  0  0  0
   -6.1530   -1.2660  -20.8090 C   0  0  0  0  0  0  0  0  0  0  0  0
   -6.0810   -1.0020  -22.1740 C   0  0  0  0  0  3  0  0  0  0  0  0
   -5.3150   -0.0280  -22.7130 N   0  0  0  0  0  0  0  0  0  0  0  0
   -4.5700    0.7090  -21.8610 C   0  0  0  0  0  3  0  0  0  0  0  0
   -4.5760    0.5520  -20.4790 C   0  0  0  0  0  0  0  0  0  0  0  0
   -5.3680   -0.4680  -19.9570 C   0  0  0  0  0  3  0  0  0  0  0  0
   -6.2190   -5.3760  -16.7460 C   0  0  0  0  0  1  0  0  0  0  0  0
   -7.3380   -5.1250  -17.6860 C   0  0  0  0  0  0  0  0  0  0  0  0
   -8.4390   -5.8830  -17.6370 N   0  0  0  0  0  0  0  0  0  0  0  0
   -9.2290   -5.3730  -18.5980 N   0  0  0  0  0  0  0  0  0  0  0  0
   -8.6680   -4.3280  -19.2840 C   0  0  0  0  0  0  0  0  0  0  0  0
   -9.1460   -3.5450  -20.3370 C   0  0  0  0  0  3  0  0  0  0  0  0
   -8.2990   -2.5360  -20.8170 C   0  0  0  0  0  3  0  0  0  0  0  0
   -7.0260   -2.3140  -20.2720 C   0  0  0  0  0  0  0  0  0  0  0  0
   -6.5870   -3.1180  -19.2010 C   0  0  0  0  0  3  0  0  0  0  0  0
   -7.4200   -4.1410  -18.7070 C   0  0  0  0  0  0  0  0  0  0  0  0
  -10.1440   -5.7880  -18.7360 H   0  0  0  0  0  0  0  0  0  0  0  0
   -3.6390    1.3130  -18.3720 C   0  0  0  0  0  2  0  0  0  0  0  0
   -2.1360    1.1340  -18.0680 C   0  0  1  0  0  3  0  0  0  0  0  0
   -1.9090    1.1520  -16.5800 N   0  0  0  0  0  4  0  0  0  0  0  0
   -2.3720    0.3750  -16.0930 H   0  0  0  0  0  0  0  0  0  0  0  0
   -0.9070    1.1280  -16.3500 H   0  0  0  0  0  0  0  0  0  0  0  0
   -2.2830    2.0290  -16.1850 H   0  0  0  0  0  0  0  0  0  0  0  0
   -1.5630   -0.1690  -18.6440 C   0  0  0  0  0  2  0  0  0  0  0  0
   -1.0420    0.0130  -20.0300 C   0  0  0  0  0  0  0  0  0  0  0  0
   -0.1180    0.9620  -20.4250 C   0  0  0  0  0  3  0  0  0  0  0  0
    0.1080    0.8120  -21.7670 N   0  0  0  0  0  0  0  0  0  0  0  0
   -0.6600   -0.2140  -22.2620 C   0  0  0  0  0  0  0  0  0  0  0  0
   -0.7520   -0.7110  -23.5670 C   0  0  0  0  0  3  0  0  0  0  0  0
   -1.6110   -1.7890  -23.7900 C   0  0  0  0  0  3  0  0  0  0  0  0
   -2.3430   -2.3480  -22.7470 C   0  0  0  0  0  3  0  0  0  0  0  0
   -2.2390   -1.8400  -21.4460 C   0  0  0  0  0  3  0  0  0  0  0  0
   -1.3830   -0.7460  -21.1950 C   0  0  0  0  0  0  0  0  0  0  0  0
    0.7510    1.3640  -22.3220 H   0  0  0  0  0  0  0  0  0  0  0  0
  1 19  1  0  0  0  0
  2 15  1  0  0  0  0
  2  7  1  0  0  0  0
  3  2  2  0  0  0  0
  4  3  1  0  0  0  0
  4  5  2  0  0  0  0
  5  6  1  0  0  0  0
  6  7  2  0  0  0  0
  6  1  1  0  0  0  0
  9 10  2  0  0  0  0
  9  8  1  0  0  0  0
 11 10  1  0  0  0  0
 12 17  1  0  0  0  0
 12 11  1  0  0  0  0
 13 12  2  0  0  0  0
 14 13  1  0  0  0  0
 14 15  2  0  0  0  0
 15 16  1  0  0  0  0
 16 17  2  0  0  0  0
 17  9  1  0  0  0  0
 18 11  1  0  0  0  0
 19 20  1  0  0  0  0
 20 25  1  1  0  0  0
 20 21  1  0  0  0  0
 21 23  1  0  0  0  0
 21 24  1  0  0  0  0
 21 22  1  0  0  0  0
 26 25  1  0  0  0  0
 27 26  2  0  0  0  0
 28 27  1  0  0  0  0
 29 28  1  0  0  0  0
 29 34  1  0  0  0  0
 30 29  2  0  0  0  0
 31 30  1  0  0  0  0
 31 32  2  0  0  0  0
 32 33  1  0  0  0  0
 33 34  2  0  0  0  0
 34 26  1  0  0  0  0
 35 28  1  0  0  0  0
M  END
>  <minimizedAffinity>
-5.5343709

$$$$

 OpenBabel11232419593D

 35 39  0  0  1  0  0  0  0  0999 V2000
   -1.6300    2.0190  -20.2690 O   0  0  0  0  0  0  0  0  0  0  0  0
   -1.9270   -1.0100  -18.1270 C   0  0  0  0  0  0  0  0  0  0  0  0
   -0.7130   -0.8330  -17.4680 C   0  0  0  0  0  3  0  0  0  0  0  0
    0.1180    0.2100  -17.6880 N   0  0  0  0  0  0  0  0  0  0  0  0
   -0.2800    1.1310  -18.5910 C   0  0  0  0  0  3  0  0  0  0  0  0
   -1.4580    1.0490  -19.3260 C   0  0  0  0  0  0  0  0  0  0  0  0
   -2.2970   -0.0320  -19.0670 C   0  0  0  0  0  3  0  0  0  0  0  0
   -7.3860   -2.7850  -18.7950 C   0  0  0  0  0  1  0  0  0  0  0  0
   -6.3200   -3.6070  -18.1710 C   0  0  0  0  0  0  0  0  0  0  0  0
   -6.6000   -4.8300  -17.7060 N   0  0  0  0  0  0  0  0  0  0  0  0
   -5.4230   -5.2770  -17.2360 N   0  0  0  0  0  0  0  0  0  0  0  0
   -4.3960   -4.3780  -17.3580 C   0  0  0  0  0  0  0  0  0  0  0  0
   -3.0500   -4.4500  -16.9940 C   0  0  0  0  0  3  0  0  0  0  0  0
   -2.2540   -3.3280  -17.2660 C   0  0  0  0  0  3  0  0  0  0  0  0
   -2.7770   -2.1770  -17.8760 C   0  0  0  0  0  0  0  0  0  0  0  0
   -4.1390   -2.1510  -18.2390 C   0  0  0  0  0  3  0  0  0  0  0  0
   -4.9560   -3.2660  -17.9700 C   0  0  0  0  0  0  0  0  0  0  0  0
   -5.3880   -6.2100  -16.8410 H   0  0  0  0  0  0  0  0  0  0  0  0
   -0.7330    2.1220  -21.3800 C   0  0  0  0  0  2  0  0  0  0  0  0
   -1.3860    1.5240  -22.6450 C   0  0  1  0  0  3  0  0  0  0  0  0
   -0.5870    1.9050  -23.8640 N   0  0  0  0  0  4  0  0  0  0  0  0
    0.3670    1.5260  -23.8540 H   0  0  0  0  0  0  0  0  0  0  0  0
   -1.0490    1.5980  -24.7290 H   0  0  0  0  0  0  0  0  0  0  0  0
   -0.5100    2.9330  -23.9160 H   0  0  0  0  0  0  0  0  0  0  0  0
   -1.5050   -0.0060  -22.5860 C   0  0  0  0  0  2  0  0  0  0  0  0
   -2.8510   -0.4800  -23.0170 C   0  0  0  0  0  0  0  0  0  0  0  0
   -3.1490   -1.0600  -24.2350 C   0  0  0  0  0  3  0  0  0  0  0  0
   -4.4860   -1.3600  -24.2550 N   0  0  0  0  0  0  0  0  0  0  0  0
   -5.0720   -0.9770  -23.0730 C   0  0  0  0  0  0  0  0  0  0  0  0
   -6.4050   -1.0850  -22.6620 C   0  0  0  0  0  3  0  0  0  0  0  0
   -6.7280   -0.6250  -21.3840 C   0  0  0  0  0  3  0  0  0  0  0  0
   -5.7530   -0.0820  -20.5520 C   0  0  0  0  0  3  0  0  0  0  0  0
   -4.4220    0.0190  -20.9780 C   0  0  0  0  0  3  0  0  0  0  0  0
   -4.0720   -0.4330  -22.2680 C   0  0  0  0  0  0  0  0  0  0  0  0
   -4.9780   -1.8060  -25.0190 H   0  0  0  0  0  0  0  0  0  0  0  0
  1  6  1  0  0  0  0
  2 15  1  0  0  0  0
  2  3  1  0  0  0  0
  4  3  2  0  0  0  0
  5  4  1  0  0  0  0
  6  7  1  0  0  0  0
  6  5  2  0  0  0  0
  7  2  2  0  0  0  0
  8  9  1  0  0  0  0
  9 17  1  0  0  0  0
  9 10  2  0  0  0  0
 10 11  1  0  0  0  0
 11 18  1  0  0  0  0
 12 11  1  0  0  0  0
 12 13  1  0  0  0  0
 14 13  2  0  0  0  0
 15 14  1  0  0  0  0
 16 17  1  0  0  0  0
 16 15  2  0  0  0  0
 17 12  2  0  0  0  0
 19  1  1  0  0  0  0
 20 25  1  1  0  0  0
 20 19  1  0  0  0  0
 21 22  1  0  0  0  0
 21 20  1  0  0  0  0
 23 21  1  0  0  0  0
 24 21  1  0  0  0  0
 26 25  1  0  0  0  0
 26 34  1  0  0  0  0
 27 26  2  0  0  0  0
 28 27  1  0  0  0  0
 28 29  1  0  0  0  0
 29 30  2  0  0  0  0
 29 34  1  0  0  0  0
 30 31  1  0  0  0  0
 31 32  2  0  0  0  0
 33 32  1  0  0  0  0
 34 33  2  0  0  0  0
 35 28  1  0  0  0  0
M  END
>  <minimizedAffinity>
-4.99792051

$$$$

 OpenBabel11232419593D

 35 39  0  0  1  0  0  0  0  0999 V2000
   -4.3440   -1.2320  -23.1110 O   0  0  0  0  0  0  0  0  0  0  0  0
   -2.1920    1.2620  -21.3780 C   0  0  0  0  0  0  0  0  0  0  0  0
   -1.8880    1.9990  -22.5190 C   0  0  0  0  0  3  0  0  0  0  0  0
   -2.3740    1.7180  -23.7490 N   0  0  0  0  0  0  0  0  0  0  0  0
   -3.2140    0.6660  -23.8500 C   0  0  0  0  0  3  0  0  0  0  0  0
   -3.5720   -0.1550  -22.7870 C   0  0  0  0  0  0  0  0  0  0  0  0
   -3.0630    0.1690  -21.5320 C   0  0  0  0  0  3  0  0  0  0  0  0
   -3.1350    0.4300  -15.7380 C   0  0  0  0  0  1  0  0  0  0  0  0
   -2.0020    1.2190  -16.2780 C   0  0  0  0  0  0  0  0  0  0  0  0
   -1.1330    1.8040  -15.4460 N   0  0  0  0  0  0  0  0  0  0  0  0
   -0.2510    2.4030  -16.2640 N   0  0  0  0  0  0  0  0  0  0  0  0
   -0.5310    2.2480  -17.5970 C   0  0  0  0  0  0  0  0  0  0  0  0
    0.1180    2.7100  -18.7430 C   0  0  0  0  0  3  0  0  0  0  0  0
   -0.4450    2.3640  -19.9790 C   0  0  0  0  0  3  0  0  0  0  0  0
   -1.6120    1.5890  -20.0720 C   0  0  0  0  0  0  0  0  0  0  0  0
   -2.2290    1.1310  -18.8910 C   0  0  0  0  0  3  0  0  0  0  0  0
   -1.6810    1.4720  -17.6390 C   0  0  0  0  0  0  0  0  0  0  0  0
    0.5240    2.9070  -15.8480 H   0  0  0  0  0  0  0  0  0  0  0  0
   -5.1320   -1.8900  -22.1130 C   0  0  0  0  0  2  0  0  0  0  0  0
   -6.2830   -0.9700  -21.6540 C   0  0  1  0  0  3  0  0  0  0  0  0
   -7.6090   -1.6050  -21.9800 N   0  0  0  0  0  4  0  0  0  0  0  0
   -7.7640   -2.4910  -21.4830 H   0  0  0  0  0  0  0  0  0  0  0  0
   -8.3930   -0.9750  -21.7700 H   0  0  0  0  0  0  0  0  0  0  0  0
   -7.6540   -1.8080  -22.9910 H   0  0  0  0  0  0  0  0  0  0  0  0
   -6.2360   -0.6610  -20.1500 C   0  0  0  0  0  2  0  0  0  0  0  0
   -6.2100   -1.9020  -19.3240 C   0  0  0  0  0  0  0  0  0  0  0  0
   -7.2940   -2.7160  -19.0580 C   0  0  0  0  0  3  0  0  0  0  0  0
   -6.8720   -3.7540  -18.2700 N   0  0  0  0  0  0  0  0  0  0  0  0
   -5.5290   -3.6290  -18.0070 C   0  0  0  0  0  0  0  0  0  0  0  0
   -4.6880   -4.4510  -17.2480 C   0  0  0  0  0  3  0  0  0  0  0  0
   -3.3410   -4.0940  -17.1600 C   0  0  0  0  0  3  0  0  0  0  0  0
   -2.8570   -2.9620  -17.8100 C   0  0  0  0  0  3  0  0  0  0  0  0
   -3.7120   -2.1500  -18.5660 C   0  0  0  0  0  3  0  0  0  0  0  0
   -5.0790   -2.4850  -18.6650 C   0  0  0  0  0  0  0  0  0  0  0  0
   -7.4520   -4.5120  -17.9320 H   0  0  0  0  0  0  0  0  0  0  0  0
  1  6  1  0  0  0  0
  1 19  1  0  0  0  0
  2 15  1  0  0  0  0
  3  2  2  0  0  0  0
  4  3  1  0  0  0  0
  5  4  2  0  0  0  0
  5  6  1  0  0  0  0
  6  7  2  0  0  0  0
  7  2  1  0  0  0  0
  9  8  1  0  0  0  0
  9 10  2  0  0  0  0
 11 18  1  0  0  0  0
 11 10  1  0  0  0  0
 12 11  1  0  0  0  0
 13 12  2  0  0  0  0
 14 13  1  0  0  0  0
 15 14  2  0  0  0  0
 15 16  1  0  0  0  0
 16 17  2  0  0  0  0
 17 12  1  0  0  0  0
 17  9  1  0  0  0  0
 20 19  1  1  0  0  0
 20 25  1  0  0  0  0
 21 23  1  0  0  0  0
 21 20  1  0  0  0  0
 21 22  1  0  0  0  0
 24 21  1  0  0  0  0
 25 26  1  0  0  0  0
 26 27  2  0  0  0  0
 26 34  1  0  0  0  0
 27 28  1  0  0  0  0
 28 29  1  0  0  0  0
 28 35  1  0  0  0  0
 29 30  1  0  0  0  0
 30 31  2  0  0  0  0
 32 31  1  0  0  0  0
 33 32  2  0  0  0  0
 34 33  1  0  0  0  0
 34 29  2  0  0  0  0
M  END
>  <minimizedAffinity>
-4.86769533

$$$$
