
 OpenBabel11232419593D

 35 39  0  0  1  0  0  0  0  0999 V2000
   -5.7030   -3.9190  -18.4930 O   0  0  0  0  0  0  0  0  0  0  0  0
   -5.5440   -1.2640  -21.0960 C   0  0  0  0  0  0  0  0  0  0  0  0
   -6.9230   -1.1270  -21.2380 C   0  0  0  0  0  3  0  0  0  0  0  0
   -7.8270   -1.8270  -20.5170 N   0  0  0  0  0  0  0  0  0  0  0  0
   -7.3440   -2.6920  -19.6010 C   0  0  0  0  0  3  0  0  0  0  0  0
   -5.9900   -2.9290  -19.3850 C   0  0  0  0  0  0  0  0  0  0  0  0
   -5.0850   -2.1840  -20.1360 C   0  0  0  0  0  3  0  0  0  0  0  0
   -1.2780    2.6030  -20.6130 C   0  0  0  0  0  1  0  0  0  0  0  0
   -1.7680    2.0710  -21.9080 C   0  0  0  0  0  0  0  0  0  0  0  0
   -1.2310    2.4980  -23.0570 N   0  0  0  0  0  0  0  0  0  0  0  0
   -1.8910    1.8070  -24.0020 N   0  0  0  0  0  0  0  0  0  0  0  0
   -2.8550    0.9670  -23.5080 C   0  0  0  0  0  0  0  0  0  0  0  0
   -3.7460    0.1000  -24.1430 C   0  0  0  0  0  3  0  0  0  0  0  0
   -4.6190   -0.6300  -23.3240 C   0  0  0  0  0  3  0  0  0  0  0  0
   -4.6050   -0.5040  -21.9260 C   0  0  0  0  0  0  0  0  0  0  0  0
   -3.6800    0.3710  -21.3240 C   0  0  0  0  0  3  0  0  0  0  0  0
   -2.7980    1.1190  -22.1290 C   0  0  0  0  0  0  0  0  0  0  0  0
   -1.6370    1.9580  -24.9720 H   0  0  0  0  0  0  0  0  0  0  0  0
   -5.1770   -3.6040  -17.1990 C   0  0  0  0  0  2  0  0  0  0  0  0
   -3.6470   -3.8080  -17.1840 C   0  0  1  0  0  3  0  0  0  0  0  0
   -3.2590   -4.8510  -18.1990 N   0  0  0  0  0  4  0  0  0  0  0  0
   -3.4810   -4.5760  -19.1640 H   0  0  0  0  0  0  0  0  0  0  0  0
   -2.2570   -5.0750  -18.1480 H   0  0  0  0  0  0  0  0  0  0  0  0
   -3.7690   -5.7270  -18.0040 H   0  0  0  0  0  0  0  0  0  0  0  0
   -2.8720   -2.5160  -17.4780 C   0  0  0  0  0  2  0  0  0  0  0  0
   -3.1120   -1.4710  -16.4410 C   0  0  0  0  0  0  0  0  0  0  0  0
   -3.2750   -1.7010  -15.0880 C   0  0  0  0  0  3  0  0  0  0  0  0
   -3.4720   -0.4960  -14.4660 N   0  0  0  0  0  0  0  0  0  0  0  0
   -3.4500    0.5200  -15.3900 C   0  0  0  0  0  0  0  0  0  0  0  0
   -3.6100    1.8980  -15.2060 C   0  0  0  0  0  3  0  0  0  0  0  0
   -3.5230    2.7160  -16.3340 C   0  0  0  0  0  3  0  0  0  0  0  0
   -3.2810    2.1760  -17.5930 C   0  0  0  0  0  3  0  0  0  0  0  0
   -3.1220    0.7940  -17.7610 C   0  0  0  0  0  3  0  0  0  0  0  0
   -3.2130   -0.0560  -16.6380 C   0  0  0  0  0  0  0  0  0  0  0  0
   -3.6060   -0.3620  -13.4720 H   0  0  0  0  0  0  0  0  0  0  0  0
  1 19  1  0  0  0  0
  2  7  1  0  0  0  0
  3  2  2  0  0  0  0
  3  4  1  0  0  0  0
  4  5  2  0  0  0  0
  5  6  1  0  0  0  0
  6  1  1  0  0  0  0
  7  6  2  0  0  0  0
  9  8  1  0  0  0  0
 10  9  2  0  0  0  0
 11 12  1  0  0  0  0
 11 10  1  0  0  0  0
 12 17  1  0  0  0  0
 13 12  2  0  0  0  0
 13 14  1  0  0  0  0
 14 15  2  0  0  0  0
 15 16  1  0  0  0  0
 15  2  1  0  0  0  0
 17  9  1  0  0  0  0
 17 16  2  0  0  0  0
 18 11  1  0  0  0  0
 20 19  1  6  0  0  0
 20 25  1  0  0  0  0
 21 23  1  0  0  0  0
 21 24  1  0  0  0  0
 21 20  1  0  0  0  0
 22 21  1  0  0  0  0
 25 26  1  0  0  0  0
 26 27  2  0  0  0  0
 27 28  1  0  0  0  0
 28 35  1  0  0  0  0
 29 30  1  0  0  0  0
 29 28  1  0  0  0  0
 31 30  2  0  0  0  0
 32 31  1  0  0  0  0
 33 32  2  0  0  0  0
 33 34  1  0  0  0  0
 34 26  1  0  0  0  0
 34 29  2  0  0  0  0
M  END
>  <minimizedAffinity>
-6.05682993

$$$$
