
 OpenBabel11232419593D

 35 39  0  0  1  0  0  0  0  0999 V2000
   -2.5130    2.0090  -19.6250 O   0  0  0  0  0  0  0  0  0  0  0  0
   -4.5350   -0.9580  -20.6080 C   0  0  0  0  0  0  0  0  0  0  0  0
   -3.6510   -1.4090  -21.5850 C   0  0  0  0  0  3  0  0  0  0  0  0
   -2.4770   -0.8060  -21.8750 N   0  0  0  0  0  0  0  0  0  0  0  0
   -2.1540    0.2860  -21.1510 C   0  0  0  0  0  3  0  0  0  0  0  0
   -2.9640    0.8420  -20.1670 C   0  0  0  0  0  0  0  0  0  0  0  0
   -4.1620    0.1900  -19.8860 C   0  0  0  0  0  3  0  0  0  0  0  0
   -6.8170   -5.1180  -17.3100 C   0  0  0  0  0  1  0  0  0  0  0  0
   -7.5850   -4.3500  -18.3200 C   0  0  0  0  0  0  0  0  0  0  0  0
   -8.8800   -4.6160  -18.5240 N   0  0  0  0  0  0  0  0  0  0  0  0
   -9.2470   -3.7370  -19.4730 N   0  0  0  0  0  0  0  0  0  0  0  0
   -8.2290   -2.9300  -19.9100 C   0  0  0  0  0  0  0  0  0  0  0  0
   -8.1940   -1.9150  -20.8680 C   0  0  0  0  0  3  0  0  0  0  0  0
   -6.9650   -1.2740  -21.0740 C   0  0  0  0  0  3  0  0  0  0  0  0
   -5.8130   -1.6290  -20.3550 C   0  0  0  0  0  0  0  0  0  0  0  0
   -5.8950   -2.6500  -19.3870 C   0  0  0  0  0  3  0  0  0  0  0  0
   -7.1190   -3.3100  -19.1680 C   0  0  0  0  0  0  0  0  0  0  0  0
  -10.2120   -3.7420  -19.7840 H   0  0  0  0  0  0  0  0  0  0  0  0
   -2.6140    2.2450  -18.2170 C   0  0  0  0  0  2  0  0  0  0  0  0
   -1.4300    1.5800  -17.4820 C   0  0  1  0  0  3  0  0  0  0  0  0
   -0.1790    2.3930  -17.6840 N   0  0  0  0  0  4  0  0  0  0  0  0
   -0.2430    3.3370  -17.2830 H   0  0  0  0  0  0  0  0  0  0  0  0
    0.6450    1.9260  -17.2840 H   0  0  0  0  0  0  0  0  0  0  0  0
    0.0020    2.5000  -18.6940 H   0  0  0  0  0  0  0  0  0  0  0  0
   -1.6800    1.4170  -15.9760 C   0  0  0  0  0  2  0  0  0  0  0  0
   -2.5830    0.2670  -15.6790 C   0  0  0  0  0  0  0  0  0  0  0  0
   -3.4890    0.2020  -14.6380 C   0  0  0  0  0  3  0  0  0  0  0  0
   -4.1300   -1.0080  -14.6990 N   0  0  0  0  0  0  0  0  0  0  0  0
   -3.6520   -1.7410  -15.7580 C   0  0  0  0  0  0  0  0  0  0  0  0
   -4.0130   -3.0220  -16.1920 C   0  0  0  0  0  3  0  0  0  0  0  0
   -3.3700   -3.5260  -17.3240 C   0  0  0  0  0  3  0  0  0  0  0  0
   -2.4090   -2.7760  -17.9950 C   0  0  0  0  0  3  0  0  0  0  0  0
   -2.0590   -1.4960  -17.5490 C   0  0  0  0  0  3  0  0  0  0  0  0
   -2.6890   -0.9650  -16.4030 C   0  0  0  0  0  0  0  0  0  0  0  0
   -4.8560   -1.3220  -14.0680 H   0  0  0  0  0  0  0  0  0  0  0  0
  1 19  1  0  0  0  0
  2 15  1  0  0  0  0
  2  7  1  0  0  0  0
  3  2  2  0  0  0  0
  4  3  1  0  0  0  0
  4  5  2  0  0  0  0
  5  6  1  0  0  0  0
  6  7  2  0  0  0  0
  6  1  1  0  0  0  0
  9  8  1  0  0  0  0
 10  9  2  0  0  0  0
 11 10  1  0  0  0  0
 12 11  1  0  0  0  0
 12 17  1  0  0  0  0
 13 12  2  0  0  0  0
 14 13  1  0  0  0  0
 14 15  2  0  0  0  0
 15 16  1  0  0  0  0
 16 17  2  0  0  0  0
 17  9  1  0  0  0  0
 18 11  1  0  0  0  0
 20 19  1  1  0  0  0
 20 25  1  0  0  0  0
 21 20  1  0  0  0  0
 21 23  1  0  0  0  0
 21 22  1  0  0  0  0
 24 21  1  0  0  0  0
 25 26  1  0  0  0  0
 26 27  2  0  0  0  0
 28 27  1  0  0  0  0
 28 35  1  0  0  0  0
 29 28  1  0  0  0  0
 30 29  1  0  0  0  0
 31 30  2  0  0  0  0
 32 33  2  0  0  0  0
 32 31  1  0  0  0  0
 33 34  1  0  0  0  0
 34 29  2  0  0  0  0
 34 26  1  0  0  0  0
M  END
>  <minimizedAffinity>
-6.71983957

$$$$
