
 OpenBabel11232419593D

 35 39  0  0  1  0  0  0  0  0999 V2000
   -1.6300    2.0190  -20.2690 O   0  0  0  0  0  0  0  0  0  0  0  0
   -1.9270   -1.0100  -18.1270 C   0  0  0  0  0  0  0  0  0  0  0  0
   -0.7130   -0.8330  -17.4680 C   0  0  0  0  0  3  0  0  0  0  0  0
    0.1180    0.2100  -17.6880 N   0  0  0  0  0  0  0  0  0  0  0  0
   -0.2800    1.1310  -18.5910 C   0  0  0  0  0  3  0  0  0  0  0  0
   -1.4580    1.0490  -19.3260 C   0  0  0  0  0  0  0  0  0  0  0  0
   -2.2970   -0.0320  -19.0670 C   0  0  0  0  0  3  0  0  0  0  0  0
   -7.3860   -2.7850  -18.7950 C   0  0  0  0  0  1  0  0  0  0  0  0
   -6.3200   -3.6070  -18.1710 C   0  0  0  0  0  0  0  0  0  0  0  0
   -6.6000   -4.8300  -17.7060 N   0  0  0  0  0  0  0  0  0  0  0  0
   -5.4230   -5.2770  -17.2360 N   0  0  0  0  0  0  0  0  0  0  0  0
   -4.3960   -4.3780  -17.3580 C   0  0  0  0  0  0  0  0  0  0  0  0
   -3.0500   -4.4500  -16.9940 C   0  0  0  0  0  3  0  0  0  0  0  0
   -2.2540   -3.3280  -17.2660 C   0  0  0  0  0  3  0  0  0  0  0  0
   -2.7770   -2.1770  -17.8760 C   0  0  0  0  0  0  0  0  0  0  0  0
   -4.1390   -2.1510  -18.2390 C   0  0  0  0  0  3  0  0  0  0  0  0
   -4.9560   -3.2660  -17.9700 C   0  0  0  0  0  0  0  0  0  0  0  0
   -5.3880   -6.2100  -16.8410 H   0  0  0  0  0  0  0  0  0  0  0  0
   -0.7330    2.1220  -21.3800 C   0  0  0  0  0  2  0  0  0  0  0  0
   -1.3860    1.5240  -22.6450 C   0  0  1  0  0  3  0  0  0  0  0  0
   -0.5870    1.9050  -23.8640 N   0  0  0  0  0  4  0  0  0  0  0  0
    0.3670    1.5260  -23.8540 H   0  0  0  0  0  0  0  0  0  0  0  0
   -1.0490    1.5980  -24.7290 H   0  0  0  0  0  0  0  0  0  0  0  0
   -0.5100    2.9330  -23.9160 H   0  0  0  0  0  0  0  0  0  0  0  0
   -1.5050   -0.0060  -22.5860 C   0  0  0  0  0  2  0  0  0  0  0  0
   -2.8510   -0.4800  -23.0170 C   0  0  0  0  0  0  0  0  0  0  0  0
   -3.1490   -1.0600  -24.2350 C   0  0  0  0  0  3  0  0  0  0  0  0
   -4.4860   -1.3600  -24.2550 N   0  0  0  0  0  0  0  0  0  0  0  0
   -5.0720   -0.9770  -23.0730 C   0  0  0  0  0  0  0  0  0  0  0  0
   -6.4050   -1.0850  -22.6620 C   0  0  0  0  0  3  0  0  0  0  0  0
   -6.7280   -0.6250  -21.3840 C   0  0  0  0  0  3  0  0  0  0  0  0
   -5.7530   -0.0820  -20.5520 C   0  0  0  0  0  3  0  0  0  0  0  0
   -4.4220    0.0190  -20.9780 C   0  0  0  0  0  3  0  0  0  0  0  0
   -4.0720   -0.4330  -22.2680 C   0  0  0  0  0  0  0  0  0  0  0  0
   -4.9780   -1.8060  -25.0190 H   0  0  0  0  0  0  0  0  0  0  0  0
  1  6  1  0  0  0  0
  2 15  1  0  0  0  0
  2  3  1  0  0  0  0
  4  3  2  0  0  0  0
  5  4  1  0  0  0  0
  6  7  1  0  0  0  0
  6  5  2  0  0  0  0
  7  2  2  0  0  0  0
  8  9  1  0  0  0  0
  9 17  1  0  0  0  0
  9 10  2  0  0  0  0
 10 11  1  0  0  0  0
 11 18  1  0  0  0  0
 12 11  1  0  0  0  0
 12 13  1  0  0  0  0
 14 13  2  0  0  0  0
 15 14  1  0  0  0  0
 16 17  1  0  0  0  0
 16 15  2  0  0  0  0
 17 12  2  0  0  0  0
 19  1  1  0  0  0  0
 20 25  1  1  0  0  0
 20 19  1  0  0  0  0
 21 22  1  0  0  0  0
 21 20  1  0  0  0  0
 23 21  1  0  0  0  0
 24 21  1  0  0  0  0
 26 25  1  0  0  0  0
 26 34  1  0  0  0  0
 27 26  2  0  0  0  0
 28 27  1  0  0  0  0
 28 29  1  0  0  0  0
 29 30  2  0  0  0  0
 29 34  1  0  0  0  0
 30 31  1  0  0  0  0
 31 32  2  0  0  0  0
 33 32  1  0  0  0  0
 34 33  2  0  0  0  0
 35 28  1  0  0  0  0
M  END
>  <minimizedAffinity>
-4.99792051

$$$$
