
 OpenBabel11232419593D

 35 39  0  0  1  0  0  0  0  0999 V2000
   -1.5360    0.2480  -22.4820 O   0  0  0  0  0  0  0  0  0  0  0  0
   -4.1810   -1.5630  -20.5920 C   0  0  0  0  0  0  0  0  0  0  0  0
   -5.2450   -0.8190  -21.0950 C   0  0  0  0  0  3  0  0  0  0  0  0
   -5.1070    0.1740  -22.0020 N   0  0  0  0  0  0  0  0  0  0  0  0
   -3.8570    0.4310  -22.4440 C   0  0  0  0  0  3  0  0  0  0  0  0
   -2.7180   -0.2290  -21.9980 C   0  0  0  0  0  0  0  0  0  0  0  0
   -2.8960   -1.2540  -21.0720 C   0  0  0  0  0  3  0  0  0  0  0  0
   -8.4020   -4.6660  -18.1520 C   0  0  0  0  0  1  0  0  0  0  0  0
   -6.9710   -4.7830  -17.7820 C   0  0  0  0  0  0  0  0  0  0  0  0
   -6.5930   -5.6330  -16.8200 N   0  0  0  0  0  0  0  0  0  0  0  0
   -5.2580   -5.4910  -16.7660 N   0  0  0  0  0  0  0  0  0  0  0  0
   -4.7600   -4.5610  -17.6410 C   0  0  0  0  0  0  0  0  0  0  0  0
   -3.4580   -4.1200  -17.8870 C   0  0  0  0  0  3  0  0  0  0  0  0
   -3.2930   -3.1350  -18.8710 C   0  0  0  0  0  3  0  0  0  0  0  0
   -4.3810   -2.6080  -19.5840 C   0  0  0  0  0  0  0  0  0  0  0  0
   -5.6770   -3.0910  -19.3140 C   0  0  0  0  0  3  0  0  0  0  0  0
   -5.8650   -4.0760  -18.3260 C   0  0  0  0  0  0  0  0  0  0  0  0
   -4.7410   -6.0590  -16.1040 H   0  0  0  0  0  0  0  0  0  0  0  0
   -0.3650    0.2670  -21.6570 C   0  0  0  0  0  2  0  0  0  0  0  0
    0.1270    1.7190  -21.4690 C   0  0  1  0  0  3  0  0  0  0  0  0
   -0.6900    2.6520  -22.3240 N   0  0  0  0  0  4  0  0  0  0  0  0
   -1.6830    2.6720  -22.0620 H   0  0  0  0  0  0  0  0  0  0  0  0
   -0.3260    3.6120  -22.2900 H   0  0  0  0  0  0  0  0  0  0  0  0
   -0.6380    2.3490  -23.3090 H   0  0  0  0  0  0  0  0  0  0  0  0
    0.0520    2.1880  -20.0090 C   0  0  0  0  0  2  0  0  0  0  0  0
   -1.2830    1.9190  -19.4020 C   0  0  0  0  0  0  0  0  0  0  0  0
   -2.4630    2.5550  -19.7360 C   0  0  0  0  0  3  0  0  0  0  0  0
   -3.4680    2.0340  -18.9640 N   0  0  0  0  0  0  0  0  0  0  0  0
   -2.9650    1.0720  -18.1220 C   0  0  0  0  0  0  0  0  0  0  0  0
   -3.6230    0.2880  -17.1670 C   0  0  0  0  0  3  0  0  0  0  0  0
   -2.8600   -0.6370  -16.4530 C   0  0  0  0  0  3  0  0  0  0  0  0
   -1.4960   -0.7750  -16.6890 C   0  0  0  0  0  3  0  0  0  0  0  0
   -0.8520    0.0170  -17.6490 C   0  0  0  0  0  3  0  0  0  0  0  0
   -1.5980    0.9650  -18.3800 C   0  0  0  0  0  0  0  0  0  0  0  0
   -4.4430    2.3030  -19.0060 H   0  0  0  0  0  0  0  0  0  0  0  0
  1  6  1  0  0  0  0
  1 19  1  0  0  0  0
  2 15  1  0  0  0  0
  3  2  2  0  0  0  0
  4  3  1  0  0  0  0
  5  4  2  0  0  0  0
  5  6  1  0  0  0  0
  6  7  2  0  0  0  0
  7  2  1  0  0  0  0
  8  9  1  0  0  0  0
  9 10  2  0  0  0  0
 10 11  1  0  0  0  0
 11 18  1  0  0  0  0
 12 11  1  0  0  0  0
 13 12  1  0  0  0  0
 14 13  2  0  0  0  0
 15 16  2  0  0  0  0
 15 14  1  0  0  0  0
 16 17  1  0  0  0  0
 17  9  1  0  0  0  0
 17 12  2  0  0  0  0
 20 19  1  1  0  0  0
 20 25  1  0  0  0  0
 21 23  1  0  0  0  0
 21 22  1  0  0  0  0
 21 20  1  0  0  0  0
 24 21  1  0  0  0  0
 25 26  1  0  0  0  0
 26 34  1  0  0  0  0
 27 26  2  0  0  0  0
 27 28  1  0  0  0  0
 28 29  1  0  0  0  0
 29 30  1  0  0  0  0
 30 31  2  0  0  0  0
 32 31  1  0  0  0  0
 33 32  2  0  0  0  0
 34 29  2  0  0  0  0
 34 33  1  0  0  0  0
 35 28  1  0  0  0  0
M  END
>  <minimizedAffinity>
-6.52941227

$$$$
