
 OpenBabel11232419593D

 35 39  0  0  1  0  0  0  0  0999 V2000
   -1.2100    0.2420  -21.0450 O   0  0  0  0  0  0  0  0  0  0  0  0
   -4.7620   -0.8700  -21.0140 C   0  0  0  0  0  0  0  0  0  0  0  0
   -5.1950    0.0240  -21.9890 C   0  0  0  0  0  3  0  0  0  0  0  0
   -4.3830    0.8980  -22.6240 N   0  0  0  0  0  0  0  0  0  0  0  0
   -3.0750    0.8740  -22.2890 C   0  0  0  0  0  3  0  0  0  0  0  0
   -2.5310    0.0420  -21.3170 C   0  0  0  0  0  0  0  0  0  0  0  0
   -3.3930   -0.8540  -20.6900 C   0  0  0  0  0  3  0  0  0  0  0  0
   -4.8050   -5.0330  -17.0050 C   0  0  0  0  0  1  0  0  0  0  0  0
   -6.0130   -4.5740  -17.7330 C   0  0  0  0  0  0  0  0  0  0  0  0
   -7.2000   -5.1410  -17.4900 N   0  0  0  0  0  0  0  0  0  0  0  0
   -8.0480   -4.4800  -18.2950 N   0  0  0  0  0  0  0  0  0  0  0  0
   -7.4490   -3.5210  -19.0700 C   0  0  0  0  0  0  0  0  0  0  0  0
   -7.9650   -2.6390  -20.0210 C   0  0  0  0  0  3  0  0  0  0  0  0
   -7.0590   -1.7690  -20.6430 C   0  0  0  0  0  3  0  0  0  0  0  0
   -5.6910   -1.7750  -20.3310 C   0  0  0  0  0  0  0  0  0  0  0  0
   -5.2130   -2.6730  -19.3550 C   0  0  0  0  0  3  0  0  0  0  0  0
   -6.1060   -3.5590  -18.7220 C   0  0  0  0  0  0  0  0  0  0  0  0
   -9.0300   -4.7340  -18.2700 H   0  0  0  0  0  0  0  0  0  0  0  0
   -0.7430    0.2880  -19.6920 C   0  0  0  0  0  2  0  0  0  0  0  0
   -0.7710    1.7410  -19.1710 C   0  0  1  0  0  3  0  0  0  0  0  0
   -0.3750    2.6890  -20.2730 N   0  0  0  0  0  4  0  0  0  0  0  0
   -1.0280    2.6790  -21.0660 H   0  0  0  0  0  0  0  0  0  0  0  0
   -0.2940    3.6550  -19.9310 H   0  0  0  0  0  0  0  0  0  0  0  0
    0.5540    2.4240  -20.6360 H   0  0  0  0  0  0  0  0  0  0  0  0
   -2.1480    2.1540  -18.6310 C   0  0  0  0  0  2  0  0  0  0  0  0
   -2.2870    1.8660  -17.1740 C   0  0  0  0  0  0  0  0  0  0  0  0
   -1.9240    2.7150  -16.1470 C   0  0  0  0  0  3  0  0  0  0  0  0
   -2.2070    2.0990  -14.9560 N   0  0  0  0  0  0  0  0  0  0  0  0
   -2.7410    0.8540  -15.1860 C   0  0  0  0  0  0  0  0  0  0  0  0
   -3.1690   -0.1170  -14.2730 C   0  0  0  0  0  3  0  0  0  0  0  0
   -3.6950   -1.3030  -14.7890 C   0  0  0  0  0  3  0  0  0  0  0  0
   -3.7910   -1.5060  -16.1620 C   0  0  0  0  0  3  0  0  0  0  0  0
   -3.3600   -0.5240  -17.0630 C   0  0  0  0  0  3  0  0  0  0  0  0
   -2.8180    0.6810  -16.5680 C   0  0  0  0  0  0  0  0  0  0  0  0
   -2.0580    2.4950  -14.0370 H   0  0  0  0  0  0  0  0  0  0  0  0
  1 19  1  0  0  0  0
  2  7  1  0  0  0  0
  2 15  1  0  0  0  0
  3  2  2  0  0  0  0
  4  5  2  0  0  0  0
  4  3  1  0  0  0  0
  5  6  1  0  0  0  0
  6  1  1  0  0  0  0
  6  7  2  0  0  0  0
  9 10  2  0  0  0  0
  9  8  1  0  0  0  0
 11 18  1  0  0  0  0
 11 10  1  0  0  0  0
 12 17  1  0  0  0  0
 12 11  1  0  0  0  0
 13 12  2  0  0  0  0
 14 15  2  0  0  0  0
 14 13  1  0  0  0  0
 15 16  1  0  0  0  0
 16 17  2  0  0  0  0
 17  9  1  0  0  0  0
 20 19  1  6  0  0  0
 20 25  1  0  0  0  0
 21 23  1  0  0  0  0
 21 20  1  0  0  0  0
 22 21  1  0  0  0  0
 24 21  1  0  0  0  0
 25 26  1  0  0  0  0
 26 34  1  0  0  0  0
 26 27  2  0  0  0  0
 27 28  1  0  0  0  0
 28 35  1  0  0  0  0
 29 28  1  0  0  0  0
 29 30  1  0  0  0  0
 31 30  2  0  0  0  0
 32 31  1  0  0  0  0
 33 34  1  0  0  0  0
 33 32  2  0  0  0  0
 34 29  2  0  0  0  0
M  END
>  <minimizedAffinity>
-6.72767448

$$$$
