
 OpenBabel11232420273D

 41 46  0  0  1  0  0  0  0  0999 V2000
   -9.1660   -9.6390    8.9580 C   0  0  0  0  0  0  0  0  0  0  0  0
   -8.6280   -8.4370    9.3770 N   0  0  0  0  0  0  0  0  0  0  0  0
   -7.5330   -8.7460   10.0340 C   0  0  0  0  0  0  0  0  0  0  0  0
   -7.3450  -10.0970   10.0580 N   0  0  0  0  0  0  0  0  0  0  0  0
   -8.3650  -10.7040    9.3590 C   0  0  0  0  0  0  0  0  0  0  0  0
   -6.1280  -10.6860   10.5840 C   0  0  0  0  0  2  0  0  0  0  0  0
   -5.4710   -9.8650   11.5750 O   0  0  0  0  0  0  0  0  0  0  0  0
   -5.5370   -8.5040   11.4000 C   0  0  0  0  0  0  0  0  0  0  0  0
   -4.5750   -7.7360   12.0570 C   0  0  0  0  0  3  0  0  0  0  0  0
   -4.6070   -6.3410   11.9450 C   0  0  0  0  0  0  0  0  0  0  0  0
   -5.6280   -5.7280   11.2020 C   0  0  0  0  0  3  0  0  0  0  0  0
   -6.6000   -6.5000   10.5620 C   0  0  0  0  0  3  0  0  0  0  0  0
   -6.5530   -7.8910   10.6590 C   0  0  0  0  0  0  0  0  0  0  0  0
  -12.7530   -9.6200    6.5030 C   0  0  0  0  0  0  0  0  0  0  0  0
  -11.7590   -8.6190    6.4300 C   0  0  0  0  0  3  0  0  0  0  0  0
  -10.6070   -8.6430    7.2320 C   0  0  0  0  0  3  0  0  0  0  0  0
  -10.3800   -9.6710    8.1500 C   0  0  0  0  0  0  0  0  0  0  0  0
  -11.3510  -10.6630    8.2600 C   0  0  0  0  0  3  0  0  0  0  0  0
  -12.4980  -10.6370    7.4500 C   0  0  0  0  0  3  0  0  0  0  0  0
  -16.9350   -7.8680    4.9300 C   0  0  0  0  0  1  0  0  0  0  0  0
  -15.6070   -8.0610    5.6500 C   0  0  1  0  0  0  0  0  0  0  0  0
  -15.4560   -9.4570    6.3060 C   0  0  0  0  0  2  0  0  0  0  0  0
  -14.0870   -9.6420    5.5960 C   0  0  1  0  0  0  0  0  0  0  0  0
  -14.4100   -8.3930    4.7260 C   0  0  0  0  0  2  0  0  0  0  0  0
  -14.1050  -10.8690    4.7580 N   0  0  0  0  0  4  0  0  0  0  0  0
  -13.2790  -10.9080    4.1460 H   0  0  0  0  0  0  0  0  0  0  0  0
  -14.1030  -11.7130    5.3440 H   0  0  0  0  0  0  0  0  0  0  0  0
  -14.9330  -10.9260    4.1530 H   0  0  0  0  0  0  0  0  0  0  0  0
  -15.3820   -6.9650    6.5530 O   0  0  0  0  0  0  0  0  0  0  0  0
  -15.5370   -6.1440    6.0490 H   0  0  0  0  0  0  0  0  0  0  0  0
   -8.4080  -12.1360    9.0930 C   0  0  0  0  0  0  0  0  0  0  0  0
   -7.5940  -12.6960    8.1000 C   0  0  0  0  0  3  0  0  0  0  0  0
   -7.6440  -14.0670    7.8420 C   0  0  0  0  0  3  0  0  0  0  0  0
   -8.5060  -14.8830    8.5730 C   0  0  0  0  0  3  0  0  0  0  0  0
   -9.3170  -14.3320    9.5640 C   0  0  0  0  0  3  0  0  0  0  0  0
   -9.2680  -12.9610    9.8240 C   0  0  0  0  0  3  0  0  0  0  0  0
   -3.6060   -5.4620   12.6070 C   0  0  0  0  0  0  0  0  0  0  0  0
   -4.0650   -4.4520   13.4040 N   0  0  0  0  0  0  0  0  0  0  0  0
   -2.4030   -5.6520   12.4720 O   0  0  0  0  0  0  0  0  0  0  0  0
   -3.3670   -3.8710   13.8530 H   0  0  0  0  0  0  0  0  0  0  0  0
   -5.0330   -4.2870   13.6300 H   0  0  0  0  0  0  0  0  0  0  0  0
  1  5  2  0  0  0  0
  1  2  1  0  0  0  0
  2  3  2  0  0  0  0
  3  4  1  0  0  0  0
  3 13  1  0  0  0  0
  4  6  1  0  0  0  0
  5  4  1  0  0  0  0
  6  7  1  0  0  0  0
  8  7  1  0  0  0  0
  8  9  1  0  0  0  0
 10  9  2  0  0  0  0
 10 37  1  0  0  0  0
 11 10  1  0  0  0  0
 12 13  1  0  0  0  0
 12 11  2  0  0  0  0
 13  8  2  0  0  0  0
 14 19  1  0  0  0  0
 15 14  2  0  0  0  0
 15 16  1  0  0  0  0
 16 17  2  0  0  0  0
 17 18  1  0  0  0  0
 17  1  1  0  0  0  0
 19 18  2  0  0  0  0
 21 20  1  6  0  0  0
 21 22  1  0  0  0  0
 21 29  1  0  0  0  0
 23 25  1  6  0  0  0
 23 22  1  0  0  0  0
 23 14  1  0  0  0  0
 24 23  1  0  0  0  0
 24 21  1  0  0  0  0
 25 27  1  0  0  0  0
 26 25  1  0  0  0  0
 28 25  1  0  0  0  0
 30 29  1  0  0  0  0
 31  5  1  0  0  0  0
 31 36  1  0  0  0  0
 32 31  2  0  0  0  0
 33 32  1  0  0  0  0
 33 34  2  0  0  0  0
 34 35  1  0  0  0  0
 35 36  2  0  0  0  0
 37 38  1  0  0  0  0
 38 41  1  0  0  0  0
 38 40  1  0  0  0  0
 39 37  2  0  0  0  0
M  END
>  <minimizedAffinity>
-5.39151764

$$$$
