
 OpenBabel11232420273D

 41 46  0  0  1  0  0  0  0  0999 V2000
   -5.4030   -8.5770   12.9300 C   0  0  0  0  0  0  0  0  0  0  0  0
   -4.6200   -9.2220   13.8700 N   0  0  0  0  0  0  0  0  0  0  0  0
   -3.4250   -8.6860   13.7650 C   0  0  0  0  0  0  0  0  0  0  0  0
   -3.4050   -7.7250   12.7960 N   0  0  0  0  0  0  0  0  0  0  0  0
   -4.6640   -7.6140   12.2500 C   0  0  0  0  0  0  0  0  0  0  0  0
   -2.2470   -6.8740   12.5940 C   0  0  0  0  0  2  0  0  0  0  0  0
   -1.0040   -7.4830   13.0100 O   0  0  0  0  0  0  0  0  0  0  0  0
   -1.0490   -8.3030   14.1100 C   0  0  0  0  0  0  0  0  0  0  0  0
    0.1550   -8.5320   14.7760 C   0  0  0  0  0  3  0  0  0  0  0  0
    0.1820   -9.3830   15.8870 C   0  0  0  0  0  0  0  0  0  0  0  0
   -0.9960  -10.0270   16.2970 C   0  0  0  0  0  3  0  0  0  0  0  0
   -2.1960   -9.8100   15.6150 C   0  0  0  0  0  3  0  0  0  0  0  0
   -2.2230   -8.9440   14.5220 C   0  0  0  0  0  0  0  0  0  0  0  0
   -9.6470   -9.4720   12.6480 C   0  0  0  0  0  0  0  0  0  0  0  0
   -9.0800   -8.7300   13.7080 C   0  0  0  0  0  3  0  0  0  0  0  0
   -7.7060   -8.4520   13.7820 C   0  0  0  0  0  3  0  0  0  0  0  0
   -6.8200   -8.8950   12.7970 C   0  0  0  0  0  0  0  0  0  0  0  0
   -7.3450   -9.6450   11.7480 C   0  0  0  0  0  3  0  0  0  0  0  0
   -8.7210   -9.9150   11.6770 C   0  0  0  0  0  3  0  0  0  0  0  0
  -13.8700   -9.5410   10.3700 C   0  0  0  0  0  1  0  0  0  0  0  0
  -12.4010   -9.3530   10.7240 C   0  0  1  0  0  0  0  0  0  0  0  0
  -12.1780   -8.6620   12.0930 C   0  0  0  0  0  2  0  0  0  0  0  0
  -11.2190   -9.8080   12.5150 C   0  0  1  0  0  0  0  0  0  0  0  0
  -11.7000  -10.6180   11.2760 C   0  0  0  0  0  2  0  0  0  0  0  0
  -11.7040  -10.4490   13.7650 N   0  0  0  0  0  4  0  0  0  0  0  0
  -11.1880  -11.3180   13.9570 H   0  0  0  0  0  0  0  0  0  0  0  0
  -11.5780   -9.8230   14.5700 H   0  0  0  0  0  0  0  0  0  0  0  0
  -12.7010  -10.6920   13.7280 H   0  0  0  0  0  0  0  0  0  0  0  0
  -11.7180   -8.7160    9.6310 O   0  0  0  0  0  0  0  0  0  0  0  0
  -11.9550   -9.2070    8.8210 H   0  0  0  0  0  0  0  0  0  0  0  0
   -5.0200   -6.5990   11.2660 C   0  0  0  0  0  0  0  0  0  0  0  0
   -5.3230   -5.2940   11.6720 C   0  0  0  0  0  3  0  0  0  0  0  0
   -5.6720   -4.3280   10.7270 C   0  0  0  0  0  3  0  0  0  0  0  0
   -5.7180   -4.6610    9.3740 C   0  0  0  0  0  3  0  0  0  0  0  0
   -5.4140   -5.9580    8.9630 C   0  0  0  0  0  3  0  0  0  0  0  0
   -5.0650   -6.9250    9.9070 C   0  0  0  0  0  3  0  0  0  0  0  0
    1.4280   -9.6620   16.6520 C   0  0  0  0  0  0  0  0  0  0  0  0
    1.8040  -10.9650   16.8140 N   0  0  0  0  0  0  0  0  0  0  0  0
    2.1170   -8.7540   17.1000 O   0  0  0  0  0  0  0  0  0  0  0  0
    2.6600  -11.1320   17.3290 H   0  0  0  0  0  0  0  0  0  0  0  0
    1.3360  -11.7580   16.4050 H   0  0  0  0  0  0  0  0  0  0  0  0
  1  2  1  0  0  0  0
  3  2  2  0  0  0  0
  3 13  1  0  0  0  0
  4  3  1  0  0  0  0
  5  4  1  0  0  0  0
  5  1  2  0  0  0  0
  6  4  1  0  0  0  0
  6  7  1  0  0  0  0
  7  8  1  0  0  0  0
  8 13  2  0  0  0  0
  8  9  1  0  0  0  0
  9 10  2  0  0  0  0
 10 11  1  0  0  0  0
 10 37  1  0  0  0  0
 12 11  2  0  0  0  0
 13 12  1  0  0  0  0
 14 15  1  0  0  0  0
 15 16  2  0  0  0  0
 17  1  1  0  0  0  0
 17 16  1  0  0  0  0
 18 17  2  0  0  0  0
 19 18  1  0  0  0  0
 19 14  2  0  0  0  0
 21 20  1  6  0  0  0
 21 24  1  0  0  0  0
 21 22  1  0  0  0  0
 22 23  1  0  0  0  0
 23 14  1  0  0  0  0
 23 25  1  1  0  0  0
 24 23  1  0  0  0  0
 25 26  1  0  0  0  0
 25 27  1  0  0  0  0
 28 25  1  0  0  0  0
 29 21  1  0  0  0  0
 30 29  1  0  0  0  0
 31 32  1  0  0  0  0
 31  5  1  0  0  0  0
 33 32  2  0  0  0  0
 34 33  1  0  0  0  0
 35 34  2  0  0  0  0
 35 36  1  0  0  0  0
 36 31  2  0  0  0  0
 37 38  1  0  0  0  0
 37 39  2  0  0  0  0
 38 40  1  0  0  0  0
 41 38  1  0  0  0  0
M  END
>  <minimizedAffinity>
-5.26715946

$$$$
