
 OpenBabel11232420273D

 41 46  0  0  1  0  0  0  0  0999 V2000
   -5.8790   -9.7480   11.9350 C   0  0  0  0  0  0  0  0  0  0  0  0
   -6.2500  -11.0740   12.0630 N   0  0  0  0  0  0  0  0  0  0  0  0
   -6.8920  -11.3720   10.9570 C   0  0  0  0  0  0  0  0  0  0  0  0
   -6.9530  -10.2940   10.1230 N   0  0  0  0  0  0  0  0  0  0  0  0
   -6.2960   -9.2360   10.7100 C   0  0  0  0  0  0  0  0  0  0  0  0
   -7.4700  -10.4070    8.7710 C   0  0  0  0  0  2  0  0  0  0  0  0
   -8.4210  -11.4830    8.6050 O   0  0  0  0  0  0  0  0  0  0  0  0
   -8.2060  -12.6240    9.3380 C   0  0  0  0  0  0  0  0  0  0  0  0
   -8.8180  -13.7920    8.8820 C   0  0  0  0  0  3  0  0  0  0  0  0
   -8.6640  -14.9820    9.6030 C   0  0  0  0  0  0  0  0  0  0  0  0
   -7.9250  -14.9800   10.7970 C   0  0  0  0  0  3  0  0  0  0  0  0
   -7.3300  -13.8040   11.2600 C   0  0  0  0  0  3  0  0  0  0  0  0
   -7.4690  -12.6250   10.5280 C   0  0  0  0  0  0  0  0  0  0  0  0
   -3.4940   -7.7170   14.9490 C   0  0  0  0  0  0  0  0  0  0  0  0
   -3.4300   -7.4080   13.5710 C   0  0  0  0  0  3  0  0  0  0  0  0
   -4.2090   -8.0760   12.6130 C   0  0  0  0  0  3  0  0  0  0  0  0
   -5.1000   -9.0880   12.9760 C   0  0  0  0  0  0  0  0  0  0  0  0
   -5.1740   -9.4290   14.3240 C   0  0  0  0  0  3  0  0  0  0  0  0
   -4.3970   -8.7530   15.2790 C   0  0  0  0  0  3  0  0  0  0  0  0
    0.5880   -6.3950   17.0970 C   0  0  0  0  0  1  0  0  0  0  0  0
   -0.4360   -6.9850   16.1370 C   0  0  1  0  0  0  0  0  0  0  0  0
   -1.5510   -7.7960   16.8430 C   0  0  0  0  0  2  0  0  0  0  0  0
   -2.6290   -6.9720   16.0870 C   0  0  1  0  0  0  0  0  0  0  0  0
   -1.5110   -5.9870   15.6400 C   0  0  0  0  0  2  0  0  0  0  0  0
   -3.5390   -6.3060   17.0560 N   0  0  0  0  0  4  0  0  0  0  0  0
   -4.1400   -5.6180   16.5830 H   0  0  0  0  0  0  0  0  0  0  0  0
   -4.1500   -6.9930   17.5160 H   0  0  0  0  0  0  0  0  0  0  0  0
   -3.0350   -5.8080   17.7990 H   0  0  0  0  0  0  0  0  0  0  0  0
    0.2390   -7.7080   15.0930 O   0  0  0  0  0  0  0  0  0  0  0  0
    0.9380   -7.1220   14.7460 H   0  0  0  0  0  0  0  0  0  0  0  0
   -6.0740   -7.9630   10.0370 C   0  0  0  0  0  0  0  0  0  0  0  0
   -6.7680   -6.8160   10.4430 C   0  0  0  0  0  3  0  0  0  0  0  0
   -6.5590   -5.6010    9.7900 C   0  0  0  0  0  3  0  0  0  0  0  0
   -5.6560   -5.5250    8.7300 C   0  0  0  0  0  3  0  0  0  0  0  0
   -4.9600   -6.6620    8.3230 C   0  0  0  0  0  3  0  0  0  0  0  0
   -5.1670   -7.8790    8.9750 C   0  0  0  0  0  3  0  0  0  0  0  0
   -9.2770  -16.2660    9.1680 C   0  0  0  0  0  0  0  0  0  0  0  0
   -8.6920  -17.4300    9.5790 N   0  0  0  0  0  0  0  0  0  0  0  0
  -10.2940  -16.2860    8.4860 O   0  0  0  0  0  0  0  0  0  0  0  0
   -9.1310  -18.2920    9.2800 H   0  0  0  0  0  0  0  0  0  0  0  0
   -7.9070  -17.4930   10.2070 H   0  0  0  0  0  0  0  0  0  0  0  0
  1  2  1  0  0  0  0
  1 17  1  0  0  0  0
  3  2  2  0  0  0  0
  4  5  1  0  0  0  0
  4  3  1  0  0  0  0
  5  1  2  0  0  0  0
  6  4  1  0  0  0  0
  7  6  1  0  0  0  0
  7  8  1  0  0  0  0
  8 13  1  0  0  0  0
  9  8  2  0  0  0  0
  9 10  1  0  0  0  0
 10 11  2  0  0  0  0
 11 12  1  0  0  0  0
 13  3  1  0  0  0  0
 13 12  2  0  0  0  0
 14 19  1  0  0  0  0
 14 23  1  0  0  0  0
 15 14  2  0  0  0  0
 16 17  2  0  0  0  0
 16 15  1  0  0  0  0
 17 18  1  0  0  0  0
 18 19  2  0  0  0  0
 21 22  1  0  0  0  0
 21 20  1  1  0  0  0
 23 22  1  0  0  0  0
 23 25  1  1  0  0  0
 24 23  1  0  0  0  0
 24 21  1  0  0  0  0
 25 27  1  0  0  0  0
 25 28  1  0  0  0  0
 26 25  1  0  0  0  0
 29 21  1  0  0  0  0
 30 29  1  0  0  0  0
 31 32  1  0  0  0  0
 31  5  1  0  0  0  0
 33 32  2  0  0  0  0
 34 33  1  0  0  0  0
 35 34  2  0  0  0  0
 35 36  1  0  0  0  0
 36 31  2  0  0  0  0
 37 38  1  0  0  0  0
 37 10  1  0  0  0  0
 38 41  1  0  0  0  0
 39 37  2  0  0  0  0
 40 38  1  0  0  0  0
M  END
>  <minimizedAffinity>
-5.05284357

$$$$
