
 OpenBabel11232420273D

 41 46  0  0  1  0  0  0  0  0999 V2000
   -8.5560   -9.9600   10.4330 C   0  0  0  0  0  0  0  0  0  0  0  0
   -8.7140  -11.0640   11.2490 N   0  0  0  0  0  0  0  0  0  0  0  0
   -7.6270  -11.1220   11.9850 C   0  0  0  0  0  0  0  0  0  0  0  0
   -6.7740  -10.1030   11.6750 N   0  0  0  0  0  0  0  0  0  0  0  0
   -7.3460   -9.3240   10.6940 C   0  0  0  0  0  0  0  0  0  0  0  0
   -5.5760   -9.8520   12.4540 C   0  0  0  0  0  2  0  0  0  0  0  0
   -5.0590  -11.0290   13.1130 O   0  0  0  0  0  0  0  0  0  0  0  0
   -5.9770  -11.9410   13.5720 C   0  0  0  0  0  0  0  0  0  0  0  0
   -5.5500  -12.8220   14.5660 C   0  0  0  0  0  3  0  0  0  0  0  0
   -6.4290  -13.7960   15.0530 C   0  0  0  0  0  0  0  0  0  0  0  0
   -7.7190  -13.9000   14.5110 C   0  0  0  0  0  3  0  0  0  0  0  0
   -8.1360  -13.0280   13.5020 C   0  0  0  0  0  3  0  0  0  0  0  0
   -7.2650  -12.0460   13.0340 C   0  0  0  0  0  0  0  0  0  0  0  0
  -11.7770   -8.8110    7.7500 C   0  0  0  0  0  0  0  0  0  0  0  0
  -11.9880   -9.2170    9.0860 C   0  0  0  0  0  3  0  0  0  0  0  0
  -10.9350   -9.5840    9.9370 C   0  0  0  0  0  3  0  0  0  0  0  0
   -9.6070   -9.5640    9.5030 C   0  0  0  0  0  0  0  0  0  0  0  0
   -9.3660   -9.1860    8.1860 C   0  0  0  0  0  3  0  0  0  0  0  0
  -10.4240   -8.8130    7.3410 C   0  0  0  0  0  3  0  0  0  0  0  0
  -13.9660   -5.7950    4.7260 C   0  0  0  0  0  1  0  0  0  0  0  0
  -12.9800   -6.4430    5.6890 C   0  0  1  0  0  0  0  0  0  0  0  0
  -13.6440   -6.9990    6.9740 C   0  0  0  0  0  2  0  0  0  0  0  0
  -12.9530   -8.3690    6.7380 C   0  0  1  0  0  0  0  0  0  0  0  0
  -12.5590   -7.8850    5.3130 C   0  0  0  0  0  2  0  0  0  0  0  0
  -13.9710   -9.4490    6.6480 N   0  0  0  0  0  4  0  0  0  0  0  0
  -13.5490  -10.3260    6.3150 H   0  0  0  0  0  0  0  0  0  0  0  0
  -14.3920   -9.6320    7.5680 H   0  0  0  0  0  0  0  0  0  0  0  0
  -14.7390   -9.2200    6.0070 H   0  0  0  0  0  0  0  0  0  0  0  0
  -11.8860   -5.5440    5.9390 O   0  0  0  0  0  0  0  0  0  0  0  0
  -11.5700   -5.2310    5.0700 H   0  0  0  0  0  0  0  0  0  0  0  0
   -6.7500   -8.0840   10.2130 C   0  0  0  0  0  0  0  0  0  0  0  0
   -7.0580   -6.8640   10.8270 C   0  0  0  0  0  3  0  0  0  0  0  0
   -6.4930   -5.6780   10.3570 C   0  0  0  0  0  3  0  0  0  0  0  0
   -5.6170   -5.7050    9.2730 C   0  0  0  0  0  3  0  0  0  0  0  0
   -5.3030   -6.9170    8.6580 C   0  0  0  0  0  3  0  0  0  0  0  0
   -5.8680   -8.1040    9.1280 C   0  0  0  0  0  3  0  0  0  0  0  0
   -6.0440  -14.7590   16.1210 C   0  0  0  0  0  0  0  0  0  0  0  0
   -4.7670  -14.7060   16.6040 N   0  0  0  0  0  0  0  0  0  0  0  0
   -6.8520  -15.5570   16.5790 O   0  0  0  0  0  0  0  0  0  0  0  0
   -4.5300  -15.3640   17.3370 H   0  0  0  0  0  0  0  0  0  0  0  0
   -4.0750  -14.0250   16.3380 H   0  0  0  0  0  0  0  0  0  0  0  0
  1  5  2  0  0  0  0
  1  2  1  0  0  0  0
  2  3  2  0  0  0  0
  3 13  1  0  0  0  0
  4  3  1  0  0  0  0
  4  6  1  0  0  0  0
  5  4  1  0  0  0  0
  6  7  1  0  0  0  0
  7  8  1  0  0  0  0
  8  9  1  0  0  0  0
  9 10  2  0  0  0  0
 10 37  1  0  0  0  0
 11 10  1  0  0  0  0
 12 11  2  0  0  0  0
 13 12  1  0  0  0  0
 13  8  2  0  0  0  0
 14 15  1  0  0  0  0
 15 16  2  0  0  0  0
 17 16  1  0  0  0  0
 17  1  1  0  0  0  0
 18 17  2  0  0  0  0
 19 14  2  0  0  0  0
 19 18  1  0  0  0  0
 21 20  1  6  0  0  0
 21 29  1  0  0  0  0
 21 22  1  0  0  0  0
 23 25  1  6  0  0  0
 23 22  1  0  0  0  0
 23 14  1  0  0  0  0
 24 21  1  0  0  0  0
 24 23  1  0  0  0  0
 25 27  1  0  0  0  0
 26 25  1  0  0  0  0
 28 25  1  0  0  0  0
 30 29  1  0  0  0  0
 31  5  1  0  0  0  0
 31 32  1  0  0  0  0
 33 32  2  0  0  0  0
 34 33  1  0  0  0  0
 35 36  1  0  0  0  0
 35 34  2  0  0  0  0
 36 31  2  0  0  0  0
 37 39  2  0  0  0  0
 37 38  1  0  0  0  0
 38 40  1  0  0  0  0
 41 38  1  0  0  0  0
M  END
>  <minimizedAffinity>
-5.54980135

$$$$

 OpenBabel11232420273D

 41 46  0  0  1  0  0  0  0  0999 V2000
   -5.3690   -8.9590   12.0570 C   0  0  0  0  0  0  0  0  0  0  0  0
   -5.7450  -10.2800   11.8950 N   0  0  0  0  0  0  0  0  0  0  0  0
   -6.7240  -10.2670   11.0190 C   0  0  0  0  0  0  0  0  0  0  0  0
   -6.9960   -8.9930   10.6110 N   0  0  0  0  0  0  0  0  0  0  0  0
   -6.1320   -8.1270   11.2430 C   0  0  0  0  0  0  0  0  0  0  0  0
   -7.9260   -8.7240    9.5300 C   0  0  0  0  0  2  0  0  0  0  0  0
   -8.9330   -9.7470    9.3660 O   0  0  0  0  0  0  0  0  0  0  0  0
   -8.5510  -11.0430    9.6150 C   0  0  0  0  0  0  0  0  0  0  0  0
   -9.3360  -12.0500    9.0540 C   0  0  0  0  0  3  0  0  0  0  0  0
   -9.0180  -13.3920    9.2960 C   0  0  0  0  0  0  0  0  0  0  0  0
   -7.9350  -13.7090   10.1320 C   0  0  0  0  0  3  0  0  0  0  0  0
   -7.1640  -12.6960   10.7070 C   0  0  0  0  0  3  0  0  0  0  0  0
   -7.4710  -11.3610   10.4460 C   0  0  0  0  0  0  0  0  0  0  0  0
   -2.0400   -7.8030   14.6010 C   0  0  0  0  0  0  0  0  0  0  0  0
   -2.4040   -7.0980   13.4320 C   0  0  0  0  0  3  0  0  0  0  0  0
   -3.4830   -7.4880   12.6230 C   0  0  0  0  0  3  0  0  0  0  0  0
   -4.2640   -8.6020   12.9380 C   0  0  0  0  0  0  0  0  0  0  0  0
   -3.9210   -9.3290   14.0740 C   0  0  0  0  0  3  0  0  0  0  0  0
   -2.8440   -8.9310   14.8830 C   0  0  0  0  0  3  0  0  0  0  0  0
    1.9680   -8.6520   17.1000 C   0  0  0  0  0  1  0  0  0  0  0  0
    0.7520   -8.7880   16.1930 C   0  0  1  0  0  0  0  0  0  0  0  0
   -0.5570   -8.2560   16.8300 C   0  0  0  0  0  2  0  0  0  0  0  0
   -0.8180   -7.3890   15.5680 C   0  0  1  0  0  0  0  0  0  0  0  0
    0.6330   -7.6980   15.0990 C   0  0  0  0  0  2  0  0  0  0  0  0
   -0.9380   -5.9560   15.9460 N   0  0  0  0  0  4  0  0  0  0  0  0
   -0.9290   -5.3530   15.1120 H   0  0  0  0  0  0  0  0  0  0  0  0
   -1.8170   -5.7830   16.4500 H   0  0  0  0  0  0  0  0  0  0  0  0
   -0.1750   -5.6390   16.5560 H   0  0  0  0  0  0  0  0  0  0  0  0
    0.6580  -10.1380   15.7090 O   0  0  0  0  0  0  0  0  0  0  0  0
    1.5390  -10.3800   15.3660 H   0  0  0  0  0  0  0  0  0  0  0  0
   -6.0740   -6.7010   10.9470 C   0  0  0  0  0  0  0  0  0  0  0  0
   -5.5050   -6.2480    9.7500 C   0  0  0  0  0  3  0  0  0  0  0  0
   -5.4440   -4.8810    9.4750 C   0  0  0  0  0  3  0  0  0  0  0  0
   -5.9510   -3.9620   10.3920 C   0  0  0  0  0  3  0  0  0  0  0  0
   -6.5220   -4.4070   11.5840 C   0  0  0  0  0  3  0  0  0  0  0  0
   -6.5840   -5.7730   11.8610 C   0  0  0  0  0  3  0  0  0  0  0  0
   -9.8030  -14.5170    8.7190 C   0  0  0  0  0  0  0  0  0  0  0  0
   -9.7450  -15.7300    9.3460 N   0  0  0  0  0  0  0  0  0  0  0  0
  -10.5080  -14.3600    7.7300 O   0  0  0  0  0  0  0  0  0  0  0  0
  -10.2940  -16.4790    8.9430 H   0  0  0  0  0  0  0  0  0  0  0  0
   -9.2560  -15.9130   10.2080 H   0  0  0  0  0  0  0  0  0  0  0  0
  1 17  1  0  0  0  0
  2  1  1  0  0  0  0
  3  2  2  0  0  0  0
  4  3  1  0  0  0  0
  4  5  1  0  0  0  0
  5  1  2  0  0  0  0
  6  4  1  0  0  0  0
  7  6  1  0  0  0  0
  7  8  1  0  0  0  0
  8 13  1  0  0  0  0
  9 10  1  0  0  0  0
  9  8  2  0  0  0  0
 10 11  2  0  0  0  0
 11 12  1  0  0  0  0
 13 12  2  0  0  0  0
 13  3  1  0  0  0  0
 14 19  1  0  0  0  0
 14 23  1  0  0  0  0
 15 14  2  0  0  0  0
 16 17  2  0  0  0  0
 16 15  1  0  0  0  0
 17 18  1  0  0  0  0
 18 19  2  0  0  0  0
 21 22  1  0  0  0  0
 21 20  1  1  0  0  0
 23 25  1  1  0  0  0
 23 22  1  0  0  0  0
 24 23  1  0  0  0  0
 24 21  1  0  0  0  0
 25 27  1  0  0  0  0
 25 28  1  0  0  0  0
 26 25  1  0  0  0  0
 29 21  1  0  0  0  0
 30 29  1  0  0  0  0
 31  5  1  0  0  0  0
 31 36  1  0  0  0  0
 32 31  2  0  0  0  0
 33 32  1  0  0  0  0
 33 34  2  0  0  0  0
 34 35  1  0  0  0  0
 35 36  2  0  0  0  0
 37 10  1  0  0  0  0
 37 38  1  0  0  0  0
 38 41  1  0  0  0  0
 39 37  2  0  0  0  0
 40 38  1  0  0  0  0
M  END
>  <minimizedAffinity>
-5.47788811

$$$$

 OpenBabel11232420273D

 41 46  0  0  1  0  0  0  0  0999 V2000
   -9.1660   -9.6390    8.9580 C   0  0  0  0  0  0  0  0  0  0  0  0
   -8.6280   -8.4370    9.3770 N   0  0  0  0  0  0  0  0  0  0  0  0
   -7.5330   -8.7460   10.0340 C   0  0  0  0  0  0  0  0  0  0  0  0
   -7.3450  -10.0970   10.0580 N   0  0  0  0  0  0  0  0  0  0  0  0
   -8.3650  -10.7040    9.3590 C   0  0  0  0  0  0  0  0  0  0  0  0
   -6.1280  -10.6860   10.5840 C   0  0  0  0  0  2  0  0  0  0  0  0
   -5.4710   -9.8650   11.5750 O   0  0  0  0  0  0  0  0  0  0  0  0
   -5.5370   -8.5040   11.4000 C   0  0  0  0  0  0  0  0  0  0  0  0
   -4.5750   -7.7360   12.0570 C   0  0  0  0  0  3  0  0  0  0  0  0
   -4.6070   -6.3410   11.9450 C   0  0  0  0  0  0  0  0  0  0  0  0
   -5.6280   -5.7280   11.2020 C   0  0  0  0  0  3  0  0  0  0  0  0
   -6.6000   -6.5000   10.5620 C   0  0  0  0  0  3  0  0  0  0  0  0
   -6.5530   -7.8910   10.6590 C   0  0  0  0  0  0  0  0  0  0  0  0
  -12.7530   -9.6200    6.5030 C   0  0  0  0  0  0  0  0  0  0  0  0
  -11.7590   -8.6190    6.4300 C   0  0  0  0  0  3  0  0  0  0  0  0
  -10.6070   -8.6430    7.2320 C   0  0  0  0  0  3  0  0  0  0  0  0
  -10.3800   -9.6710    8.1500 C   0  0  0  0  0  0  0  0  0  0  0  0
  -11.3510  -10.6630    8.2600 C   0  0  0  0  0  3  0  0  0  0  0  0
  -12.4980  -10.6370    7.4500 C   0  0  0  0  0  3  0  0  0  0  0  0
  -16.9350   -7.8680    4.9300 C   0  0  0  0  0  1  0  0  0  0  0  0
  -15.6070   -8.0610    5.6500 C   0  0  1  0  0  0  0  0  0  0  0  0
  -15.4560   -9.4570    6.3060 C   0  0  0  0  0  2  0  0  0  0  0  0
  -14.0870   -9.6420    5.5960 C   0  0  1  0  0  0  0  0  0  0  0  0
  -14.4100   -8.3930    4.7260 C   0  0  0  0  0  2  0  0  0  0  0  0
  -14.1050  -10.8690    4.7580 N   0  0  0  0  0  4  0  0  0  0  0  0
  -13.2790  -10.9080    4.1460 H   0  0  0  0  0  0  0  0  0  0  0  0
  -14.1030  -11.7130    5.3440 H   0  0  0  0  0  0  0  0  0  0  0  0
  -14.9330  -10.9260    4.1530 H   0  0  0  0  0  0  0  0  0  0  0  0
  -15.3820   -6.9650    6.5530 O   0  0  0  0  0  0  0  0  0  0  0  0
  -15.5370   -6.1440    6.0490 H   0  0  0  0  0  0  0  0  0  0  0  0
   -8.4080  -12.1360    9.0930 C   0  0  0  0  0  0  0  0  0  0  0  0
   -7.5940  -12.6960    8.1000 C   0  0  0  0  0  3  0  0  0  0  0  0
   -7.6440  -14.0670    7.8420 C   0  0  0  0  0  3  0  0  0  0  0  0
   -8.5060  -14.8830    8.5730 C   0  0  0  0  0  3  0  0  0  0  0  0
   -9.3170  -14.3320    9.5640 C   0  0  0  0  0  3  0  0  0  0  0  0
   -9.2680  -12.9610    9.8240 C   0  0  0  0  0  3  0  0  0  0  0  0
   -3.6060   -5.4620   12.6070 C   0  0  0  0  0  0  0  0  0  0  0  0
   -4.0650   -4.4520   13.4040 N   0  0  0  0  0  0  0  0  0  0  0  0
   -2.4030   -5.6520   12.4720 O   0  0  0  0  0  0  0  0  0  0  0  0
   -3.3670   -3.8710   13.8530 H   0  0  0  0  0  0  0  0  0  0  0  0
   -5.0330   -4.2870   13.6300 H   0  0  0  0  0  0  0  0  0  0  0  0
  1  5  2  0  0  0  0
  1  2  1  0  0  0  0
  2  3  2  0  0  0  0
  3  4  1  0  0  0  0
  3 13  1  0  0  0  0
  4  6  1  0  0  0  0
  5  4  1  0  0  0  0
  6  7  1  0  0  0  0
  8  7  1  0  0  0  0
  8  9  1  0  0  0  0
 10  9  2  0  0  0  0
 10 37  1  0  0  0  0
 11 10  1  0  0  0  0
 12 13  1  0  0  0  0
 12 11  2  0  0  0  0
 13  8  2  0  0  0  0
 14 19  1  0  0  0  0
 15 14  2  0  0  0  0
 15 16  1  0  0  0  0
 16 17  2  0  0  0  0
 17 18  1  0  0  0  0
 17  1  1  0  0  0  0
 19 18  2  0  0  0  0
 21 20  1  6  0  0  0
 21 22  1  0  0  0  0
 21 29  1  0  0  0  0
 23 25  1  6  0  0  0
 23 22  1  0  0  0  0
 23 14  1  0  0  0  0
 24 23  1  0  0  0  0
 24 21  1  0  0  0  0
 25 27  1  0  0  0  0
 26 25  1  0  0  0  0
 28 25  1  0  0  0  0
 30 29  1  0  0  0  0
 31  5  1  0  0  0  0
 31 36  1  0  0  0  0
 32 31  2  0  0  0  0
 33 32  1  0  0  0  0
 33 34  2  0  0  0  0
 34 35  1  0  0  0  0
 35 36  2  0  0  0  0
 37 38  1  0  0  0  0
 38 41  1  0  0  0  0
 38 40  1  0  0  0  0
 39 37  2  0  0  0  0
M  END
>  <minimizedAffinity>
-5.39151764

$$$$

 OpenBabel11232420273D

 41 46  0  0  1  0  0  0  0  0999 V2000
   -5.4030   -8.5770   12.9300 C   0  0  0  0  0  0  0  0  0  0  0  0
   -4.6200   -9.2220   13.8700 N   0  0  0  0  0  0  0  0  0  0  0  0
   -3.4250   -8.6860   13.7650 C   0  0  0  0  0  0  0  0  0  0  0  0
   -3.4050   -7.7250   12.7960 N   0  0  0  0  0  0  0  0  0  0  0  0
   -4.6640   -7.6140   12.2500 C   0  0  0  0  0  0  0  0  0  0  0  0
   -2.2470   -6.8740   12.5940 C   0  0  0  0  0  2  0  0  0  0  0  0
   -1.0040   -7.4830   13.0100 O   0  0  0  0  0  0  0  0  0  0  0  0
   -1.0490   -8.3030   14.1100 C   0  0  0  0  0  0  0  0  0  0  0  0
    0.1550   -8.5320   14.7760 C   0  0  0  0  0  3  0  0  0  0  0  0
    0.1820   -9.3830   15.8870 C   0  0  0  0  0  0  0  0  0  0  0  0
   -0.9960  -10.0270   16.2970 C   0  0  0  0  0  3  0  0  0  0  0  0
   -2.1960   -9.8100   15.6150 C   0  0  0  0  0  3  0  0  0  0  0  0
   -2.2230   -8.9440   14.5220 C   0  0  0  0  0  0  0  0  0  0  0  0
   -9.6470   -9.4720   12.6480 C   0  0  0  0  0  0  0  0  0  0  0  0
   -9.0800   -8.7300   13.7080 C   0  0  0  0  0  3  0  0  0  0  0  0
   -7.7060   -8.4520   13.7820 C   0  0  0  0  0  3  0  0  0  0  0  0
   -6.8200   -8.8950   12.7970 C   0  0  0  0  0  0  0  0  0  0  0  0
   -7.3450   -9.6450   11.7480 C   0  0  0  0  0  3  0  0  0  0  0  0
   -8.7210   -9.9150   11.6770 C   0  0  0  0  0  3  0  0  0  0  0  0
  -13.8700   -9.5410   10.3700 C   0  0  0  0  0  1  0  0  0  0  0  0
  -12.4010   -9.3530   10.7240 C   0  0  1  0  0  0  0  0  0  0  0  0
  -12.1780   -8.6620   12.0930 C   0  0  0  0  0  2  0  0  0  0  0  0
  -11.2190   -9.8080   12.5150 C   0  0  1  0  0  0  0  0  0  0  0  0
  -11.7000  -10.6180   11.2760 C   0  0  0  0  0  2  0  0  0  0  0  0
  -11.7040  -10.4490   13.7650 N   0  0  0  0  0  4  0  0  0  0  0  0
  -11.1880  -11.3180   13.9570 H   0  0  0  0  0  0  0  0  0  0  0  0
  -11.5780   -9.8230   14.5700 H   0  0  0  0  0  0  0  0  0  0  0  0
  -12.7010  -10.6920   13.7280 H   0  0  0  0  0  0  0  0  0  0  0  0
  -11.7180   -8.7160    9.6310 O   0  0  0  0  0  0  0  0  0  0  0  0
  -11.9550   -9.2070    8.8210 H   0  0  0  0  0  0  0  0  0  0  0  0
   -5.0200   -6.5990   11.2660 C   0  0  0  0  0  0  0  0  0  0  0  0
   -5.3230   -5.2940   11.6720 C   0  0  0  0  0  3  0  0  0  0  0  0
   -5.6720   -4.3280   10.7270 C   0  0  0  0  0  3  0  0  0  0  0  0
   -5.7180   -4.6610    9.3740 C   0  0  0  0  0  3  0  0  0  0  0  0
   -5.4140   -5.9580    8.9630 C   0  0  0  0  0  3  0  0  0  0  0  0
   -5.0650   -6.9250    9.9070 C   0  0  0  0  0  3  0  0  0  0  0  0
    1.4280   -9.6620   16.6520 C   0  0  0  0  0  0  0  0  0  0  0  0
    1.8040  -10.9650   16.8140 N   0  0  0  0  0  0  0  0  0  0  0  0
    2.1170   -8.7540   17.1000 O   0  0  0  0  0  0  0  0  0  0  0  0
    2.6600  -11.1320   17.3290 H   0  0  0  0  0  0  0  0  0  0  0  0
    1.3360  -11.7580   16.4050 H   0  0  0  0  0  0  0  0  0  0  0  0
  1  2  1  0  0  0  0
  3  2  2  0  0  0  0
  3 13  1  0  0  0  0
  4  3  1  0  0  0  0
  5  4  1  0  0  0  0
  5  1  2  0  0  0  0
  6  4  1  0  0  0  0
  6  7  1  0  0  0  0
  7  8  1  0  0  0  0
  8 13  2  0  0  0  0
  8  9  1  0  0  0  0
  9 10  2  0  0  0  0
 10 11  1  0  0  0  0
 10 37  1  0  0  0  0
 12 11  2  0  0  0  0
 13 12  1  0  0  0  0
 14 15  1  0  0  0  0
 15 16  2  0  0  0  0
 17  1  1  0  0  0  0
 17 16  1  0  0  0  0
 18 17  2  0  0  0  0
 19 18  1  0  0  0  0
 19 14  2  0  0  0  0
 21 20  1  6  0  0  0
 21 24  1  0  0  0  0
 21 22  1  0  0  0  0
 22 23  1  0  0  0  0
 23 14  1  0  0  0  0
 23 25  1  1  0  0  0
 24 23  1  0  0  0  0
 25 26  1  0  0  0  0
 25 27  1  0  0  0  0
 28 25  1  0  0  0  0
 29 21  1  0  0  0  0
 30 29  1  0  0  0  0
 31 32  1  0  0  0  0
 31  5  1  0  0  0  0
 33 32  2  0  0  0  0
 34 33  1  0  0  0  0
 35 34  2  0  0  0  0
 35 36  1  0  0  0  0
 36 31  2  0  0  0  0
 37 38  1  0  0  0  0
 37 39  2  0  0  0  0
 38 40  1  0  0  0  0
 41 38  1  0  0  0  0
M  END
>  <minimizedAffinity>
-5.26715946

$$$$

 OpenBabel11232420273D

 41 46  0  0  1  0  0  0  0  0999 V2000
   -7.4380   -9.5410   11.1900 C   0  0  0  0  0  0  0  0  0  0  0  0
   -7.2160  -10.6210   12.0240 N   0  0  0  0  0  0  0  0  0  0  0  0
   -6.0930  -10.3590   12.6540 C   0  0  0  0  0  0  0  0  0  0  0  0
   -5.5820   -9.1580   12.2590 N   0  0  0  0  0  0  0  0  0  0  0  0
   -6.4290   -8.5930   11.3330 C   0  0  0  0  0  0  0  0  0  0  0  0
   -4.4330   -8.5660   12.9200 C   0  0  0  0  0  2  0  0  0  0  0  0
   -3.5570   -9.5380   13.5340 O   0  0  0  0  0  0  0  0  0  0  0  0
   -4.1470  -10.6500   14.0830 C   0  0  0  0  0  0  0  0  0  0  0  0
   -3.4080  -11.3510   15.0370 C   0  0  0  0  0  3  0  0  0  0  0  0
   -3.9410  -12.5110   15.6110 C   0  0  0  0  0  0  0  0  0  0  0  0
   -5.1980  -12.9780   15.1930 C   0  0  0  0  0  3  0  0  0  0  0  0
   -5.9250  -12.2840   14.2230 C   0  0  0  0  0  3  0  0  0  0  0  0
   -5.4000  -11.1170   13.6690 C   0  0  0  0  0  0  0  0  0  0  0  0
  -11.0810   -9.3440    8.8270 C   0  0  0  0  0  0  0  0  0  0  0  0
  -11.0690   -9.3020   10.2390 C   0  0  0  0  0  3  0  0  0  0  0  0
   -9.8820   -9.3670   10.9850 C   0  0  0  0  0  3  0  0  0  0  0  0
   -8.6370   -9.4740   10.3620 C   0  0  0  0  0  0  0  0  0  0  0  0
   -8.6140   -9.5360    8.9710 C   0  0  0  0  0  3  0  0  0  0  0  0
   -9.8050   -9.4640    8.2310 C   0  0  0  0  0  3  0  0  0  0  0  0
  -13.5630   -8.2300    4.8740 C   0  0  0  0  0  1  0  0  0  0  0  0
  -12.4520   -8.4390    5.8940 C   0  0  1  0  0  0  0  0  0  0  0  0
  -12.7940   -7.8910    7.3030 C   0  0  0  0  0  2  0  0  0  0  0  0
  -12.4170   -9.2620    7.9270 C   0  0  1  0  0  0  0  0  0  0  0  0
  -12.3810   -9.8650    6.4930 C   0  0  0  0  0  2  0  0  0  0  0  0
  -13.5690   -9.8150    8.6860 N   0  0  0  0  0  4  0  0  0  0  0  0
  -13.3990  -10.7940    8.9510 H   0  0  0  0  0  0  0  0  0  0  0  0
  -13.7310   -9.2790    9.5480 H   0  0  0  0  0  0  0  0  0  0  0  0
  -14.4460   -9.7930    8.1520 H   0  0  0  0  0  0  0  0  0  0  0  0
  -11.2090   -7.9480    5.3640 O   0  0  0  0  0  0  0  0  0  0  0  0
  -11.1120   -8.3240    4.4680 H   0  0  0  0  0  0  0  0  0  0  0  0
   -6.2400   -7.2540   10.7900 C   0  0  0  0  0  0  0  0  0  0  0  0
   -5.8610   -7.0780    9.4530 C   0  0  0  0  0  3  0  0  0  0  0  0
   -5.6720   -5.7940    8.9400 C   0  0  0  0  0  3  0  0  0  0  0  0
   -5.8610   -4.6810    9.7590 C   0  0  0  0  0  3  0  0  0  0  0  0
   -6.2410   -4.8490   11.0900 C   0  0  0  0  0  3  0  0  0  0  0  0
   -6.4310   -6.1330   11.6040 C   0  0  0  0  0  3  0  0  0  0  0  0
   -3.2150  -13.3000   16.6430 C   0  0  0  0  0  0  0  0  0  0  0  0
   -2.0200  -12.8180   17.0970 N   0  0  0  0  0  0  0  0  0  0  0  0
   -3.6830  -14.3360   17.0980 O   0  0  0  0  0  0  0  0  0  0  0  0
   -1.5470  -13.3650   17.8060 H   0  0  0  0  0  0  0  0  0  0  0  0
   -1.6140  -11.9350   16.8320 H   0  0  0  0  0  0  0  0  0  0  0  0
  1  5  2  0  0  0  0
  1  2  1  0  0  0  0
  2  3  2  0  0  0  0
  3 13  1  0  0  0  0
  4  3  1  0  0  0  0
  4  6  1  0  0  0  0
  5  4  1  0  0  0  0
  6  7  1  0  0  0  0
  7  8  1  0  0  0  0
  8  9  1  0  0  0  0
  9 10  2  0  0  0  0
 10 37  1  0  0  0  0
 11 10  1  0  0  0  0
 12 11  2  0  0  0  0
 13  8  2  0  0  0  0
 13 12  1  0  0  0  0
 14 15  1  0  0  0  0
 15 16  2  0  0  0  0
 17 16  1  0  0  0  0
 17  1  1  0  0  0  0
 18 17  2  0  0  0  0
 19 14  2  0  0  0  0
 19 18  1  0  0  0  0
 21 20  1  6  0  0  0
 21 24  1  0  0  0  0
 21 22  1  0  0  0  0
 22 23  1  0  0  0  0
 23 25  1  1  0  0  0
 23 14  1  0  0  0  0
 24 23  1  0  0  0  0
 25 26  1  0  0  0  0
 25 27  1  0  0  0  0
 28 25  1  0  0  0  0
 29 21  1  0  0  0  0
 30 29  1  0  0  0  0
 31  5  1  0  0  0  0
 31 36  1  0  0  0  0
 32 31  2  0  0  0  0
 33 32  1  0  0  0  0
 33 34  2  0  0  0  0
 34 35  1  0  0  0  0
 35 36  2  0  0  0  0
 37 38  1  0  0  0  0
 37 39  2  0  0  0  0
 38 40  1  0  0  0  0
 41 38  1  0  0  0  0
M  END
>  <minimizedAffinity>
-5.19142962

$$$$

 OpenBabel11232420273D

 41 46  0  0  1  0  0  0  0  0999 V2000
   -5.8790   -9.7480   11.9350 C   0  0  0  0  0  0  0  0  0  0  0  0
   -6.2500  -11.0740   12.0630 N   0  0  0  0  0  0  0  0  0  0  0  0
   -6.8920  -11.3720   10.9570 C   0  0  0  0  0  0  0  0  0  0  0  0
   -6.9530  -10.2940   10.1230 N   0  0  0  0  0  0  0  0  0  0  0  0
   -6.2960   -9.2360   10.7100 C   0  0  0  0  0  0  0  0  0  0  0  0
   -7.4700  -10.4070    8.7710 C   0  0  0  0  0  2  0  0  0  0  0  0
   -8.4210  -11.4830    8.6050 O   0  0  0  0  0  0  0  0  0  0  0  0
   -8.2060  -12.6240    9.3380 C   0  0  0  0  0  0  0  0  0  0  0  0
   -8.8180  -13.7920    8.8820 C   0  0  0  0  0  3  0  0  0  0  0  0
   -8.6640  -14.9820    9.6030 C   0  0  0  0  0  0  0  0  0  0  0  0
   -7.9250  -14.9800   10.7970 C   0  0  0  0  0  3  0  0  0  0  0  0
   -7.3300  -13.8040   11.2600 C   0  0  0  0  0  3  0  0  0  0  0  0
   -7.4690  -12.6250   10.5280 C   0  0  0  0  0  0  0  0  0  0  0  0
   -3.4940   -7.7170   14.9490 C   0  0  0  0  0  0  0  0  0  0  0  0
   -3.4300   -7.4080   13.5710 C   0  0  0  0  0  3  0  0  0  0  0  0
   -4.2090   -8.0760   12.6130 C   0  0  0  0  0  3  0  0  0  0  0  0
   -5.1000   -9.0880   12.9760 C   0  0  0  0  0  0  0  0  0  0  0  0
   -5.1740   -9.4290   14.3240 C   0  0  0  0  0  3  0  0  0  0  0  0
   -4.3970   -8.7530   15.2790 C   0  0  0  0  0  3  0  0  0  0  0  0
    0.5880   -6.3950   17.0970 C   0  0  0  0  0  1  0  0  0  0  0  0
   -0.4360   -6.9850   16.1370 C   0  0  1  0  0  0  0  0  0  0  0  0
   -1.5510   -7.7960   16.8430 C   0  0  0  0  0  2  0  0  0  0  0  0
   -2.6290   -6.9720   16.0870 C   0  0  1  0  0  0  0  0  0  0  0  0
   -1.5110   -5.9870   15.6400 C   0  0  0  0  0  2  0  0  0  0  0  0
   -3.5390   -6.3060   17.0560 N   0  0  0  0  0  4  0  0  0  0  0  0
   -4.1400   -5.6180   16.5830 H   0  0  0  0  0  0  0  0  0  0  0  0
   -4.1500   -6.9930   17.5160 H   0  0  0  0  0  0  0  0  0  0  0  0
   -3.0350   -5.8080   17.7990 H   0  0  0  0  0  0  0  0  0  0  0  0
    0.2390   -7.7080   15.0930 O   0  0  0  0  0  0  0  0  0  0  0  0
    0.9380   -7.1220   14.7460 H   0  0  0  0  0  0  0  0  0  0  0  0
   -6.0740   -7.9630   10.0370 C   0  0  0  0  0  0  0  0  0  0  0  0
   -6.7680   -6.8160   10.4430 C   0  0  0  0  0  3  0  0  0  0  0  0
   -6.5590   -5.6010    9.7900 C   0  0  0  0  0  3  0  0  0  0  0  0
   -5.6560   -5.5250    8.7300 C   0  0  0  0  0  3  0  0  0  0  0  0
   -4.9600   -6.6620    8.3230 C   0  0  0  0  0  3  0  0  0  0  0  0
   -5.1670   -7.8790    8.9750 C   0  0  0  0  0  3  0  0  0  0  0  0
   -9.2770  -16.2660    9.1680 C   0  0  0  0  0  0  0  0  0  0  0  0
   -8.6920  -17.4300    9.5790 N   0  0  0  0  0  0  0  0  0  0  0  0
  -10.2940  -16.2860    8.4860 O   0  0  0  0  0  0  0  0  0  0  0  0
   -9.1310  -18.2920    9.2800 H   0  0  0  0  0  0  0  0  0  0  0  0
   -7.9070  -17.4930   10.2070 H   0  0  0  0  0  0  0  0  0  0  0  0
  1  2  1  0  0  0  0
  1 17  1  0  0  0  0
  3  2  2  0  0  0  0
  4  5  1  0  0  0  0
  4  3  1  0  0  0  0
  5  1  2  0  0  0  0
  6  4  1  0  0  0  0
  7  6  1  0  0  0  0
  7  8  1  0  0  0  0
  8 13  1  0  0  0  0
  9  8  2  0  0  0  0
  9 10  1  0  0  0  0
 10 11  2  0  0  0  0
 11 12  1  0  0  0  0
 13  3  1  0  0  0  0
 13 12  2  0  0  0  0
 14 19  1  0  0  0  0
 14 23  1  0  0  0  0
 15 14  2  0  0  0  0
 16 17  2  0  0  0  0
 16 15  1  0  0  0  0
 17 18  1  0  0  0  0
 18 19  2  0  0  0  0
 21 22  1  0  0  0  0
 21 20  1  1  0  0  0
 23 22  1  0  0  0  0
 23 25  1  1  0  0  0
 24 23  1  0  0  0  0
 24 21  1  0  0  0  0
 25 27  1  0  0  0  0
 25 28  1  0  0  0  0
 26 25  1  0  0  0  0
 29 21  1  0  0  0  0
 30 29  1  0  0  0  0
 31 32  1  0  0  0  0
 31  5  1  0  0  0  0
 33 32  2  0  0  0  0
 34 33  1  0  0  0  0
 35 34  2  0  0  0  0
 35 36  1  0  0  0  0
 36 31  2  0  0  0  0
 37 38  1  0  0  0  0
 37 10  1  0  0  0  0
 38 41  1  0  0  0  0
 39 37  2  0  0  0  0
 40 38  1  0  0  0  0
M  END
>  <minimizedAffinity>
-5.05284357

$$$$

 OpenBabel11232420273D

 41 46  0  0  1  0  0  0  0  0999 V2000
   -8.1300  -12.5570    9.4360 C   0  0  0  0  0  0  0  0  0  0  0  0
   -9.2260  -12.8290    8.6390 N   0  0  0  0  0  0  0  0  0  0  0  0
   -9.5940  -14.0530    8.9450 C   0  0  0  0  0  0  0  0  0  0  0  0
   -8.7800  -14.5800    9.9030 N   0  0  0  0  0  0  0  0  0  0  0  0
   -7.8380  -13.6410   10.2580 C   0  0  0  0  0  0  0  0  0  0  0  0
   -9.0700  -15.8580   10.5270 C   0  0  0  0  0  2  0  0  0  0  0  0
   -9.8420  -16.7470    9.6900 O   0  0  0  0  0  0  0  0  0  0  0  0
  -10.7830  -16.1720    8.8720 C   0  0  0  0  0  0  0  0  0  0  0  0
  -11.8070  -16.9990    8.4090 C   0  0  0  0  0  3  0  0  0  0  0  0
  -12.7800  -16.4810    7.5460 C   0  0  0  0  0  0  0  0  0  0  0  0
  -12.6930  -15.1440    7.1250 C   0  0  0  0  0  3  0  0  0  0  0  0
  -11.6550  -14.3250    7.5750 C   0  0  0  0  0  3  0  0  0  0  0  0
  -10.7000  -14.8400    8.4520 C   0  0  0  0  0  0  0  0  0  0  0  0
   -6.3100   -8.6110    9.3240 C   0  0  0  0  0  0  0  0  0  0  0  0
   -7.6630   -8.8320    9.6660 C   0  0  0  0  0  3  0  0  0  0  0  0
   -8.2320  -10.1140    9.6960 C   0  0  0  0  0  3  0  0  0  0  0  0
   -7.4820  -11.2510    9.3900 C   0  0  0  0  0  0  0  0  0  0  0  0
   -6.1490  -11.0670    9.0310 C   0  0  0  0  0  3  0  0  0  0  0  0
   -5.5840   -9.7820    9.0090 C   0  0  0  0  0  3  0  0  0  0  0  0
   -5.7720   -4.0370   10.6720 C   0  0  0  0  0  1  0  0  0  0  0  0
   -6.2430   -5.4790   10.5440 C   0  0  1  0  0  0  0  0  0  0  0  0
   -6.5140   -5.9150    9.0820 C   0  0  0  0  0  2  0  0  0  0  0  0
   -5.6080   -7.1600    9.2850 C   0  0  1  0  0  0  0  0  0  0  0  0
   -5.1170   -6.5390   10.6250 C   0  0  0  0  0  2  0  0  0  0  0  0
   -4.5060   -7.1600    8.2880 N   0  0  0  0  0  4  0  0  0  0  0  0
   -3.8000   -7.8710    8.5210 H   0  0  0  0  0  0  0  0  0  0  0  0
   -4.8630   -7.3680    7.3470 H   0  0  0  0  0  0  0  0  0  0  0  0
   -4.0190   -6.2580    8.2310 H   0  0  0  0  0  0  0  0  0  0  0  0
   -7.3490   -5.7090   11.4350 O   0  0  0  0  0  0  0  0  0  0  0  0
   -7.0840   -5.3680   12.3110 H   0  0  0  0  0  0  0  0  0  0  0  0
   -6.8820  -13.8390   11.3400 C   0  0  0  0  0  0  0  0  0  0  0  0
   -5.6180  -14.3810   11.0790 C   0  0  0  0  0  3  0  0  0  0  0  0
   -4.7090  -14.5780   12.1190 C   0  0  0  0  0  3  0  0  0  0  0  0
   -5.0580  -14.2320   13.4240 C   0  0  0  0  0  3  0  0  0  0  0  0
   -6.3140  -13.6880   13.6910 C   0  0  0  0  0  3  0  0  0  0  0  0
   -7.2240  -13.4910   12.6510 C   0  0  0  0  0  3  0  0  0  0  0  0
  -13.9070  -17.3010    7.0250 C   0  0  0  0  0  0  0  0  0  0  0  0
  -13.9450  -17.5640    5.6840 N   0  0  0  0  0  0  0  0  0  0  0  0
  -14.7610  -17.7570    7.7740 O   0  0  0  0  0  0  0  0  0  0  0  0
  -14.7140  -18.1320    5.3530 H   0  0  0  0  0  0  0  0  0  0  0  0
  -13.2350  -17.2950    5.0220 H   0  0  0  0  0  0  0  0  0  0  0  0
  1  5  2  0  0  0  0
  2  3  2  0  0  0  0
  2  1  1  0  0  0  0
  3  4  1  0  0  0  0
  4  5  1  0  0  0  0
  4  6  1  0  0  0  0
  5 31  1  0  0  0  0
  7  6  1  0  0  0  0
  8  7  1  0  0  0  0
  9  8  2  0  0  0  0
 10  9  1  0  0  0  0
 11 10  2  0  0  0  0
 11 12  1  0  0  0  0
 12 13  2  0  0  0  0
 13  8  1  0  0  0  0
 13  3  1  0  0  0  0
 14 15  1  0  0  0  0
 15 16  2  0  0  0  0
 17  1  1  0  0  0  0
 17 16  1  0  0  0  0
 18 17  2  0  0  0  0
 19 18  1  0  0  0  0
 19 14  2  0  0  0  0
 21 24  1  0  0  0  0
 21 20  1  1  0  0  0
 21 29  1  0  0  0  0
 22 23  1  0  0  0  0
 22 21  1  0  0  0  0
 23 25  1  6  0  0  0
 23 14  1  0  0  0  0
 23 24  1  0  0  0  0
 25 26  1  0  0  0  0
 27 25  1  0  0  0  0
 28 25  1  0  0  0  0
 29 30  1  0  0  0  0
 31 36  1  0  0  0  0
 32 31  2  0  0  0  0
 32 33  1  0  0  0  0
 33 34  2  0  0  0  0
 34 35  1  0  0  0  0
 36 35  2  0  0  0  0
 37 10  1  0  0  0  0
 37 39  2  0  0  0  0
 38 37  1  0  0  0  0
 40 38  1  0  0  0  0
 41 38  1  0  0  0  0
M  END
>  <minimizedAffinity>
-5.03843784

$$$$

 OpenBabel11232420273D

 41 46  0  0  1  0  0  0  0  0999 V2000
   -9.0710   -9.6770    9.3460 C   0  0  0  0  0  0  0  0  0  0  0  0
  -10.3340   -9.3900    8.8620 N   0  0  0  0  0  0  0  0  0  0  0  0
  -10.8760  -10.5510    8.5710 C   0  0  0  0  0  0  0  0  0  0  0  0
  -10.0150  -11.5730    8.8450 N   0  0  0  0  0  0  0  0  0  0  0  0
   -8.8510  -11.0510    9.3630 C   0  0  0  0  0  0  0  0  0  0  0  0
  -10.4320  -12.9610    8.7610 C   0  0  0  0  0  2  0  0  0  0  0  0
  -11.5180  -13.1830    7.8330 O   0  0  0  0  0  0  0  0  0  0  0  0
  -12.4630  -12.1920    7.7320 C   0  0  0  0  0  0  0  0  0  0  0  0
  -13.7040  -12.5550    7.2090 C   0  0  0  0  0  3  0  0  0  0  0  0
  -14.7000  -11.5840    7.0500 C   0  0  0  0  0  0  0  0  0  0  0  0
  -14.4270  -10.2480    7.3850 C   0  0  0  0  0  3  0  0  0  0  0  0
  -13.1760   -9.8860    7.8900 C   0  0  0  0  0  3  0  0  0  0  0  0
  -12.1930  -10.8600    8.0660 C   0  0  0  0  0  0  0  0  0  0  0  0
   -6.5020   -6.5120   10.8530 C   0  0  0  0  0  0  0  0  0  0  0  0
   -7.3610   -7.2720   11.6780 C   0  0  0  0  0  3  0  0  0  0  0  0
   -8.1840   -8.2900   11.1720 C   0  0  0  0  0  3  0  0  0  0  0  0
   -8.1920   -8.6110    9.8130 C   0  0  0  0  0  0  0  0  0  0  0  0
   -7.3700   -7.8690    8.9690 C   0  0  0  0  0  3  0  0  0  0  0  0
   -6.5450   -6.8550    9.4830 C   0  0  0  0  0  3  0  0  0  0  0  0
   -3.4930   -4.5000   14.0030 C   0  0  0  0  0  1  0  0  0  0  0  0
   -4.4290   -5.4590   13.2810 C   0  0  1  0  0  0  0  0  0  0  0  0
   -5.7580   -4.8050   12.8280 C   0  0  0  0  0  2  0  0  0  0  0  0
   -5.5310   -5.3400   11.3890 C   0  0  1  0  0  0  0  0  0  0  0  0
   -4.0760   -5.7130   11.7940 C   0  0  0  0  0  2  0  0  0  0  0  0
   -5.5190   -4.2150   10.4180 N   0  0  0  0  0  4  0  0  0  0  0  0
   -5.1930   -4.5290    9.4940 H   0  0  0  0  0  0  0  0  0  0  0  0
   -6.4620   -3.8210   10.3010 H   0  0  0  0  0  0  0  0  0  0  0  0
   -4.9070   -3.4440   10.7090 H   0  0  0  0  0  0  0  0  0  0  0  0
   -4.6030   -6.6500   14.0680 O   0  0  0  0  0  0  0  0  0  0  0  0
   -3.7130   -6.9540   14.3260 H   0  0  0  0  0  0  0  0  0  0  0  0
   -7.7630  -11.8770    9.8700 C   0  0  0  0  0  0  0  0  0  0  0  0
   -6.7890  -12.3800    8.9980 C   0  0  0  0  0  3  0  0  0  0  0  0
   -5.7540  -13.1780    9.4870 C   0  0  0  0  0  3  0  0  0  0  0  0
   -5.6870  -13.4770   10.8470 C   0  0  0  0  0  3  0  0  0  0  0  0
   -6.6510  -12.9770   11.7210 C   0  0  0  0  0  3  0  0  0  0  0  0
   -7.6870  -12.1790   11.2340 C   0  0  0  0  0  3  0  0  0  0  0  0
  -16.0500  -11.9030    6.5110 C   0  0  0  0  0  0  0  0  0  0  0  0
  -16.9170  -10.8690    6.2950 N   0  0  0  0  0  0  0  0  0  0  0  0
  -16.3700  -13.0530    6.2380 O   0  0  0  0  0  0  0  0  0  0  0  0
  -17.8260  -11.1080    5.9190 H   0  0  0  0  0  0  0  0  0  0  0  0
  -16.6960   -9.8940    6.4160 H   0  0  0  0  0  0  0  0  0  0  0  0
  1  5  2  0  0  0  0
  1 17  1  0  0  0  0
  2  1  1  0  0  0  0
  3  4  1  0  0  0  0
  3  2  2  0  0  0  0
  4  5  1  0  0  0  0
  5 31  1  0  0  0  0
  6  4  1  0  0  0  0
  7  6  1  0  0  0  0
  8  7  1  0  0  0  0
  8 13  1  0  0  0  0
  9  8  2  0  0  0  0
 10  9  1  0  0  0  0
 10 11  2  0  0  0  0
 11 12  1  0  0  0  0
 12 13  2  0  0  0  0
 13  3  1  0  0  0  0
 14 23  1  0  0  0  0
 14 15  1  0  0  0  0
 16 15  2  0  0  0  0
 17 16  1  0  0  0  0
 18 19  1  0  0  0  0
 18 17  2  0  0  0  0
 19 14  2  0  0  0  0
 21 20  1  1  0  0  0
 21 29  1  0  0  0  0
 22 21  1  0  0  0  0
 23 25  1  6  0  0  0
 23 24  1  0  0  0  0
 23 22  1  0  0  0  0
 24 21  1  0  0  0  0
 25 28  1  0  0  0  0
 26 25  1  0  0  0  0
 27 25  1  0  0  0  0
 29 30  1  0  0  0  0
 31 36  1  0  0  0  0
 32 33  1  0  0  0  0
 32 31  2  0  0  0  0
 33 34  2  0  0  0  0
 34 35  1  0  0  0  0
 36 35  2  0  0  0  0
 37 10  1  0  0  0  0
 38 41  1  0  0  0  0
 38 37  1  0  0  0  0
 39 37  2  0  0  0  0
 40 38  1  0  0  0  0
M  END
>  <minimizedAffinity>
-4.94957161

$$$$

 OpenBabel11232420273D

 41 46  0  0  1  0  0  0  0  0999 V2000
   -6.8080  -10.7840   10.5420 C   0  0  0  0  0  0  0  0  0  0  0  0
   -6.3350  -11.3230    9.3590 N   0  0  0  0  0  0  0  0  0  0  0  0
   -6.8820  -12.5140    9.2670 C   0  0  0  0  0  0  0  0  0  0  0  0
   -7.6840  -12.7650   10.3420 N   0  0  0  0  0  0  0  0  0  0  0  0
   -7.6770  -11.6680   11.1730 C   0  0  0  0  0  0  0  0  0  0  0  0
   -8.5260  -13.9460   10.4010 C   0  0  0  0  0  2  0  0  0  0  0  0
   -8.0230  -15.0540    9.6220 O   0  0  0  0  0  0  0  0  0  0  0  0
   -7.3790  -14.7480    8.4480 C   0  0  0  0  0  0  0  0  0  0  0  0
   -7.2870  -15.7640    7.4960 C   0  0  0  0  0  3  0  0  0  0  0  0
   -6.6150  -15.5250    6.2910 C   0  0  0  0  0  0  0  0  0  0  0  0
   -6.0090  -14.2790    6.0690 C   0  0  0  0  0  3  0  0  0  0  0  0
   -6.0870  -13.2710    7.0340 C   0  0  0  0  0  3  0  0  0  0  0  0
   -6.7750  -13.5060    8.2240 C   0  0  0  0  0  0  0  0  0  0  0  0
   -5.6190   -6.8080   11.8360 C   0  0  0  0  0  0  0  0  0  0  0  0
   -5.0480   -7.9940   12.3490 C   0  0  0  0  0  3  0  0  0  0  0  0
   -5.4460   -9.2690   11.9190 C   0  0  0  0  0  3  0  0  0  0  0  0
   -6.4350   -9.4330   10.9460 C   0  0  0  0  0  0  0  0  0  0  0  0
   -7.0310   -8.2850   10.4330 C   0  0  0  0  0  3  0  0  0  0  0  0
   -6.6240   -7.0120   10.8630 C   0  0  0  0  0  3  0  0  0  0  0  0
   -3.7490   -3.5910   14.8660 C   0  0  0  0  0  1  0  0  0  0  0  0
   -4.2170   -4.8820   14.2080 C   0  0  1  0  0  0  0  0  0  0  0  0
   -5.6710   -4.8130   13.6760 C   0  0  0  0  0  2  0  0  0  0  0  0
   -5.1880   -5.3220   12.2910 C   0  0  1  0  0  0  0  0  0  0  0  0
   -3.7220   -5.0860   12.7550 C   0  0  0  0  0  2  0  0  0  0  0  0
   -5.5520   -4.3460   11.2300 N   0  0  0  0  0  4  0  0  0  0  0  0
   -5.0860   -4.5770   10.3420 H   0  0  0  0  0  0  0  0  0  0  0  0
   -6.5660   -4.3480   11.0630 H   0  0  0  0  0  0  0  0  0  0  0  0
   -5.2900   -3.3820   11.4680 H   0  0  0  0  0  0  0  0  0  0  0  0
   -3.9700   -5.9920   15.0880 O   0  0  0  0  0  0  0  0  0  0  0  0
   -3.0440   -5.9170   15.3880 H   0  0  0  0  0  0  0  0  0  0  0  0
   -8.5200  -11.5590   12.3570 C   0  0  0  0  0  0  0  0  0  0  0  0
   -9.8660  -11.1940   12.2370 C   0  0  0  0  0  3  0  0  0  0  0  0
  -10.6680  -11.0810   13.3740 C   0  0  0  0  0  3  0  0  0  0  0  0
  -10.1280  -11.3330   14.6340 C   0  0  0  0  0  3  0  0  0  0  0  0
   -8.7890  -11.7000   14.7610 C   0  0  0  0  0  3  0  0  0  0  0  0
   -7.9870  -11.8130   13.6250 C   0  0  0  0  0  3  0  0  0  0  0  0
   -6.4900  -16.5580    5.2260 C   0  0  0  0  0  0  0  0  0  0  0  0
   -7.6360  -17.1060    4.7250 N   0  0  0  0  0  0  0  0  0  0  0  0
   -5.3960  -16.8880    4.7860 O   0  0  0  0  0  0  0  0  0  0  0  0
   -7.5290  -17.8000    3.9950 H   0  0  0  0  0  0  0  0  0  0  0  0
   -8.5710  -16.8260    4.9770 H   0  0  0  0  0  0  0  0  0  0  0  0
  1 17  1  0  0  0  0
  1  5  2  0  0  0  0
  2  1  1  0  0  0  0
  3  2  2  0  0  0  0
  3  4  1  0  0  0  0
  4  6  1  0  0  0  0
  4  5  1  0  0  0  0
  5 31  1  0  0  0  0
  7  6  1  0  0  0  0
  8  7  1  0  0  0  0
  9  8  2  0  0  0  0
 10  9  1  0  0  0  0
 11 10  2  0  0  0  0
 11 12  1  0  0  0  0
 12 13  2  0  0  0  0
 13  8  1  0  0  0  0
 13  3  1  0  0  0  0
 14 23  1  0  0  0  0
 14 15  1  0  0  0  0
 16 15  2  0  0  0  0
 17 16  1  0  0  0  0
 18 19  1  0  0  0  0
 18 17  2  0  0  0  0
 19 14  2  0  0  0  0
 21 20  1  1  0  0  0
 21 29  1  0  0  0  0
 22 21  1  0  0  0  0
 23 25  1  6  0  0  0
 23 24  1  0  0  0  0
 23 22  1  0  0  0  0
 24 21  1  0  0  0  0
 25 28  1  0  0  0  0
 26 25  1  0  0  0  0
 27 25  1  0  0  0  0
 29 30  1  0  0  0  0
 31 36  1  0  0  0  0
 32 31  2  0  0  0  0
 32 33  1  0  0  0  0
 33 34  2  0  0  0  0
 34 35  1  0  0  0  0
 36 35  2  0  0  0  0
 37 10  1  0  0  0  0
 38 41  1  0  0  0  0
 38 37  1  0  0  0  0
 39 37  2  0  0  0  0
 40 38  1  0  0  0  0
M  END
>  <minimizedAffinity>
-4.85767269

$$$$
