
 OpenBabel11232420273D

 41 46  0  0  1  0  0  0  0  0999 V2000
   -7.4380   -9.5410   11.1900 C   0  0  0  0  0  0  0  0  0  0  0  0
   -7.2160  -10.6210   12.0240 N   0  0  0  0  0  0  0  0  0  0  0  0
   -6.0930  -10.3590   12.6540 C   0  0  0  0  0  0  0  0  0  0  0  0
   -5.5820   -9.1580   12.2590 N   0  0  0  0  0  0  0  0  0  0  0  0
   -6.4290   -8.5930   11.3330 C   0  0  0  0  0  0  0  0  0  0  0  0
   -4.4330   -8.5660   12.9200 C   0  0  0  0  0  2  0  0  0  0  0  0
   -3.5570   -9.5380   13.5340 O   0  0  0  0  0  0  0  0  0  0  0  0
   -4.1470  -10.6500   14.0830 C   0  0  0  0  0  0  0  0  0  0  0  0
   -3.4080  -11.3510   15.0370 C   0  0  0  0  0  3  0  0  0  0  0  0
   -3.9410  -12.5110   15.6110 C   0  0  0  0  0  0  0  0  0  0  0  0
   -5.1980  -12.9780   15.1930 C   0  0  0  0  0  3  0  0  0  0  0  0
   -5.9250  -12.2840   14.2230 C   0  0  0  0  0  3  0  0  0  0  0  0
   -5.4000  -11.1170   13.6690 C   0  0  0  0  0  0  0  0  0  0  0  0
  -11.0810   -9.3440    8.8270 C   0  0  0  0  0  0  0  0  0  0  0  0
  -11.0690   -9.3020   10.2390 C   0  0  0  0  0  3  0  0  0  0  0  0
   -9.8820   -9.3670   10.9850 C   0  0  0  0  0  3  0  0  0  0  0  0
   -8.6370   -9.4740   10.3620 C   0  0  0  0  0  0  0  0  0  0  0  0
   -8.6140   -9.5360    8.9710 C   0  0  0  0  0  3  0  0  0  0  0  0
   -9.8050   -9.4640    8.2310 C   0  0  0  0  0  3  0  0  0  0  0  0
  -13.5630   -8.2300    4.8740 C   0  0  0  0  0  1  0  0  0  0  0  0
  -12.4520   -8.4390    5.8940 C   0  0  1  0  0  0  0  0  0  0  0  0
  -12.7940   -7.8910    7.3030 C   0  0  0  0  0  2  0  0  0  0  0  0
  -12.4170   -9.2620    7.9270 C   0  0  1  0  0  0  0  0  0  0  0  0
  -12.3810   -9.8650    6.4930 C   0  0  0  0  0  2  0  0  0  0  0  0
  -13.5690   -9.8150    8.6860 N   0  0  0  0  0  4  0  0  0  0  0  0
  -13.3990  -10.7940    8.9510 H   0  0  0  0  0  0  0  0  0  0  0  0
  -13.7310   -9.2790    9.5480 H   0  0  0  0  0  0  0  0  0  0  0  0
  -14.4460   -9.7930    8.1520 H   0  0  0  0  0  0  0  0  0  0  0  0
  -11.2090   -7.9480    5.3640 O   0  0  0  0  0  0  0  0  0  0  0  0
  -11.1120   -8.3240    4.4680 H   0  0  0  0  0  0  0  0  0  0  0  0
   -6.2400   -7.2540   10.7900 C   0  0  0  0  0  0  0  0  0  0  0  0
   -5.8610   -7.0780    9.4530 C   0  0  0  0  0  3  0  0  0  0  0  0
   -5.6720   -5.7940    8.9400 C   0  0  0  0  0  3  0  0  0  0  0  0
   -5.8610   -4.6810    9.7590 C   0  0  0  0  0  3  0  0  0  0  0  0
   -6.2410   -4.8490   11.0900 C   0  0  0  0  0  3  0  0  0  0  0  0
   -6.4310   -6.1330   11.6040 C   0  0  0  0  0  3  0  0  0  0  0  0
   -3.2150  -13.3000   16.6430 C   0  0  0  0  0  0  0  0  0  0  0  0
   -2.0200  -12.8180   17.0970 N   0  0  0  0  0  0  0  0  0  0  0  0
   -3.6830  -14.3360   17.0980 O   0  0  0  0  0  0  0  0  0  0  0  0
   -1.5470  -13.3650   17.8060 H   0  0  0  0  0  0  0  0  0  0  0  0
   -1.6140  -11.9350   16.8320 H   0  0  0  0  0  0  0  0  0  0  0  0
  1  5  2  0  0  0  0
  1  2  1  0  0  0  0
  2  3  2  0  0  0  0
  3 13  1  0  0  0  0
  4  3  1  0  0  0  0
  4  6  1  0  0  0  0
  5  4  1  0  0  0  0
  6  7  1  0  0  0  0
  7  8  1  0  0  0  0
  8  9  1  0  0  0  0
  9 10  2  0  0  0  0
 10 37  1  0  0  0  0
 11 10  1  0  0  0  0
 12 11  2  0  0  0  0
 13  8  2  0  0  0  0
 13 12  1  0  0  0  0
 14 15  1  0  0  0  0
 15 16  2  0  0  0  0
 17 16  1  0  0  0  0
 17  1  1  0  0  0  0
 18 17  2  0  0  0  0
 19 14  2  0  0  0  0
 19 18  1  0  0  0  0
 21 20  1  6  0  0  0
 21 24  1  0  0  0  0
 21 22  1  0  0  0  0
 22 23  1  0  0  0  0
 23 25  1  1  0  0  0
 23 14  1  0  0  0  0
 24 23  1  0  0  0  0
 25 26  1  0  0  0  0
 25 27  1  0  0  0  0
 28 25  1  0  0  0  0
 29 21  1  0  0  0  0
 30 29  1  0  0  0  0
 31  5  1  0  0  0  0
 31 36  1  0  0  0  0
 32 31  2  0  0  0  0
 33 32  1  0  0  0  0
 33 34  2  0  0  0  0
 34 35  1  0  0  0  0
 35 36  2  0  0  0  0
 37 38  1  0  0  0  0
 37 39  2  0  0  0  0
 38 40  1  0  0  0  0
 41 38  1  0  0  0  0
M  END
>  <minimizedAffinity>
-5.19142962

$$$$
