
 OpenBabel11232420273D

 41 46  0  0  1  0  0  0  0  0999 V2000
   -6.8080  -10.7840   10.5420 C   0  0  0  0  0  0  0  0  0  0  0  0
   -6.3350  -11.3230    9.3590 N   0  0  0  0  0  0  0  0  0  0  0  0
   -6.8820  -12.5140    9.2670 C   0  0  0  0  0  0  0  0  0  0  0  0
   -7.6840  -12.7650   10.3420 N   0  0  0  0  0  0  0  0  0  0  0  0
   -7.6770  -11.6680   11.1730 C   0  0  0  0  0  0  0  0  0  0  0  0
   -8.5260  -13.9460   10.4010 C   0  0  0  0  0  2  0  0  0  0  0  0
   -8.0230  -15.0540    9.6220 O   0  0  0  0  0  0  0  0  0  0  0  0
   -7.3790  -14.7480    8.4480 C   0  0  0  0  0  0  0  0  0  0  0  0
   -7.2870  -15.7640    7.4960 C   0  0  0  0  0  3  0  0  0  0  0  0
   -6.6150  -15.5250    6.2910 C   0  0  0  0  0  0  0  0  0  0  0  0
   -6.0090  -14.2790    6.0690 C   0  0  0  0  0  3  0  0  0  0  0  0
   -6.0870  -13.2710    7.0340 C   0  0  0  0  0  3  0  0  0  0  0  0
   -6.7750  -13.5060    8.2240 C   0  0  0  0  0  0  0  0  0  0  0  0
   -5.6190   -6.8080   11.8360 C   0  0  0  0  0  0  0  0  0  0  0  0
   -5.0480   -7.9940   12.3490 C   0  0  0  0  0  3  0  0  0  0  0  0
   -5.4460   -9.2690   11.9190 C   0  0  0  0  0  3  0  0  0  0  0  0
   -6.4350   -9.4330   10.9460 C   0  0  0  0  0  0  0  0  0  0  0  0
   -7.0310   -8.2850   10.4330 C   0  0  0  0  0  3  0  0  0  0  0  0
   -6.6240   -7.0120   10.8630 C   0  0  0  0  0  3  0  0  0  0  0  0
   -3.7490   -3.5910   14.8660 C   0  0  0  0  0  1  0  0  0  0  0  0
   -4.2170   -4.8820   14.2080 C   0  0  1  0  0  0  0  0  0  0  0  0
   -5.6710   -4.8130   13.6760 C   0  0  0  0  0  2  0  0  0  0  0  0
   -5.1880   -5.3220   12.2910 C   0  0  1  0  0  0  0  0  0  0  0  0
   -3.7220   -5.0860   12.7550 C   0  0  0  0  0  2  0  0  0  0  0  0
   -5.5520   -4.3460   11.2300 N   0  0  0  0  0  4  0  0  0  0  0  0
   -5.0860   -4.5770   10.3420 H   0  0  0  0  0  0  0  0  0  0  0  0
   -6.5660   -4.3480   11.0630 H   0  0  0  0  0  0  0  0  0  0  0  0
   -5.2900   -3.3820   11.4680 H   0  0  0  0  0  0  0  0  0  0  0  0
   -3.9700   -5.9920   15.0880 O   0  0  0  0  0  0  0  0  0  0  0  0
   -3.0440   -5.9170   15.3880 H   0  0  0  0  0  0  0  0  0  0  0  0
   -8.5200  -11.5590   12.3570 C   0  0  0  0  0  0  0  0  0  0  0  0
   -9.8660  -11.1940   12.2370 C   0  0  0  0  0  3  0  0  0  0  0  0
  -10.6680  -11.0810   13.3740 C   0  0  0  0  0  3  0  0  0  0  0  0
  -10.1280  -11.3330   14.6340 C   0  0  0  0  0  3  0  0  0  0  0  0
   -8.7890  -11.7000   14.7610 C   0  0  0  0  0  3  0  0  0  0  0  0
   -7.9870  -11.8130   13.6250 C   0  0  0  0  0  3  0  0  0  0  0  0
   -6.4900  -16.5580    5.2260 C   0  0  0  0  0  0  0  0  0  0  0  0
   -7.6360  -17.1060    4.7250 N   0  0  0  0  0  0  0  0  0  0  0  0
   -5.3960  -16.8880    4.7860 O   0  0  0  0  0  0  0  0  0  0  0  0
   -7.5290  -17.8000    3.9950 H   0  0  0  0  0  0  0  0  0  0  0  0
   -8.5710  -16.8260    4.9770 H   0  0  0  0  0  0  0  0  0  0  0  0
  1 17  1  0  0  0  0
  1  5  2  0  0  0  0
  2  1  1  0  0  0  0
  3  2  2  0  0  0  0
  3  4  1  0  0  0  0
  4  6  1  0  0  0  0
  4  5  1  0  0  0  0
  5 31  1  0  0  0  0
  7  6  1  0  0  0  0
  8  7  1  0  0  0  0
  9  8  2  0  0  0  0
 10  9  1  0  0  0  0
 11 10  2  0  0  0  0
 11 12  1  0  0  0  0
 12 13  2  0  0  0  0
 13  8  1  0  0  0  0
 13  3  1  0  0  0  0
 14 23  1  0  0  0  0
 14 15  1  0  0  0  0
 16 15  2  0  0  0  0
 17 16  1  0  0  0  0
 18 19  1  0  0  0  0
 18 17  2  0  0  0  0
 19 14  2  0  0  0  0
 21 20  1  1  0  0  0
 21 29  1  0  0  0  0
 22 21  1  0  0  0  0
 23 25  1  6  0  0  0
 23 24  1  0  0  0  0
 23 22  1  0  0  0  0
 24 21  1  0  0  0  0
 25 28  1  0  0  0  0
 26 25  1  0  0  0  0
 27 25  1  0  0  0  0
 29 30  1  0  0  0  0
 31 36  1  0  0  0  0
 32 31  2  0  0  0  0
 32 33  1  0  0  0  0
 33 34  2  0  0  0  0
 34 35  1  0  0  0  0
 36 35  2  0  0  0  0
 37 10  1  0  0  0  0
 38 41  1  0  0  0  0
 38 37  1  0  0  0  0
 39 37  2  0  0  0  0
 40 38  1  0  0  0  0
M  END
>  <minimizedAffinity>
-4.85767269

$$$$
