
 OpenBabel10152420013D

 36 39  0  0  0  0  0  0  0  0999 V2000
   -0.9130   -6.7180  -23.1760 C   0  0  0  0  0  2  0  0  0  0  0  0
    2.4520   -6.6840  -28.2650 C   0  0  0  0  0  0  0  0  0  0  0  0
    1.7370   -5.7310  -29.0060 C   0  0  0  0  0  3  0  0  0  0  0  0
    0.5970   -5.1620  -28.4610 C   0  0  0  0  0  3  0  0  0  0  0  0
    0.1810   -5.5650  -27.1960 C   0  0  0  0  0  3  0  0  0  0  0  0
    0.9020   -6.5380  -26.4490 C   0  0  0  0  0  0  0  0  0  0  0  0
    0.5240   -6.9860  -25.1670 C   0  0  0  0  0  0  0  0  0  0  0  0
   -0.6520   -6.5190  -24.5890 N   0  0  0  0  0  0  0  0  0  0  0  0
    1.2740   -7.8500  -24.4650 N   0  0  0  0  0  0  0  0  0  0  0  0
    2.3790   -8.3060  -25.0590 C   0  0  0  0  0  3  0  0  0  0  0  0
    2.8110   -7.9760  -26.2790 N   0  0  0  0  0  0  0  0  0  0  0  0
    2.0750   -7.0980  -26.9810 C   0  0  0  0  0  0  0  0  0  0  0  0
   -1.4610   -6.5220  -25.1940 H   0  0  0  0  0  0  0  0  0  0  0  0
    4.7020   -7.5030  -28.0850 N   0  0  0  0  0  0  0  0  0  0  0  0
    3.6360   -7.2760  -28.9090 C   0  0  0  0  0  0  0  0  0  0  0  0
    3.6810   -7.4740  -30.1140 O   0  0  0  0  0  0  0  0  0  0  0  0
    5.5350   -7.9030  -28.4970 H   0  0  0  0  0  0  0  0  0  0  0  0
    4.6710   -7.3570  -27.0860 H   0  0  0  0  0  0  0  0  0  0  0  0
   -1.1170   -8.1810  -22.8420 C   0  0  0  0  0  0  0  0  0  0  0  0
   -1.3240   -8.6050  -21.5230 C   0  0  0  0  0  3  0  0  0  0  0  0
   -1.5480   -9.9510  -21.2400 C   0  0  0  0  0  3  0  0  0  0  0  0
   -1.6010  -10.8880  -22.2750 C   0  0  0  0  0  3  0  0  0  0  0  0
   -1.4470  -10.4860  -23.6010 C   0  0  0  0  0  0  0  0  0  0  0  0
   -1.1820   -9.1350  -23.8710 C   0  0  0  0  0  3  0  0  0  0  0  0
   -1.4870  -11.3590  -24.7040 N   0  0  0  0  0  0  0  0  0  0  0  0
   -0.5020  -12.0280  -25.3910 C   0  0  0  0  0  0  0  0  0  0  0  0
   -0.7430  -12.5200  -26.4920 O   0  0  0  0  0  0  0  0  0  0  0  0
   -2.4010  -11.5300  -25.1080 H   0  0  0  0  0  0  0  0  0  0  0  0
    0.8400  -12.2360  -24.8290 C   0  0  0  0  0  0  0  0  0  0  0  0
    0.9600  -12.7830  -23.5450 C   0  0  0  0  0  3  0  0  0  0  0  0
    2.2270  -12.9590  -22.9880 C   0  0  0  0  0  3  0  0  0  0  0  0
    3.3550  -12.5690  -23.7070 C   0  0  0  0  0  0  0  0  0  0  0  0
    4.5690  -12.7420  -23.1670 F   0  0  0  0  0  0  0  0  0  0  0  0
    3.2440  -11.9950  -24.9670 C   0  0  0  0  0  3  0  0  0  0  0  0
    1.9800  -11.8200  -25.5200 C   0  0  0  0  0  0  0  0  0  0  0  0
    1.8820  -11.2370  -26.7240 F   0  0  0  0  0  0  0  0  0  0  0  0
  1 19  1  0  0  0  0
  2 12  1  0  0  0  0
  3  4  1  0  0  0  0
  3  2  2  0  0  0  0
  4  5  2  0  0  0  0
  5  6  1  0  0  0  0
  6  7  1  0  0  0  0
  7  8  1  0  0  0  0
  7  9  2  0  0  0  0
  8  1  1  0  0  0  0
 10  9  1  0  0  0  0
 11 10  2  0  0  0  0
 12  6  2  0  0  0  0
 12 11  1  0  0  0  0
 13  8  1  0  0  0  0
 14 18  1  0  0  0  0
 15  2  1  0  0  0  0
 15 14  1  0  0  0  0
 16 15  2  0  0  0  0
 17 14  1  0  0  0  0
 19 20  1  0  0  0  0
 20 21  2  0  0  0  0
 22 21  1  0  0  0  0
 23 22  2  0  0  0  0
 24 23  1  0  0  0  0
 24 19  2  0  0  0  0
 25 23  1  0  0  0  0
 26 29  1  0  0  0  0
 26 25  1  0  0  0  0
 27 26  2  0  0  0  0
 28 25  1  0  0  0  0
 29 30  1  0  0  0  0
 30 31  2  0  0  0  0
 32 33  1  0  0  0  0
 32 31  1  0  0  0  0
 34 32  2  0  0  0  0
 35 34  1  0  0  0  0
 35 29  2  0  0  0  0
 36 35  1  0  0  0  0
M  END
>  <minimizedAffinity>
-7.43600559

$$$$
