
 OpenBabel10152420013D

 36 39  0  0  0  0  0  0  0  0999 V2000
   -0.2930   -6.2330  -24.0550 C   0  0  0  0  0  2  0  0  0  0  0  0
    3.4740   -8.3570  -28.3580 C   0  0  0  0  0  0  0  0  0  0  0  0
    3.9900   -9.4720  -27.6810 C   0  0  0  0  0  3  0  0  0  0  0  0
    3.5800   -9.7280  -26.3830 C   0  0  0  0  0  3  0  0  0  0  0  0
    2.6760   -8.8600  -25.7770 C   0  0  0  0  0  3  0  0  0  0  0  0
    2.1610   -7.7240  -26.4610 C   0  0  0  0  0  0  0  0  0  0  0  0
    1.2490   -6.8100  -25.8970 C   0  0  0  0  0  0  0  0  0  0  0  0
    0.8520   -6.9570  -24.5710 N   0  0  0  0  0  0  0  0  0  0  0  0
    0.7290   -5.7940  -26.6020 N   0  0  0  0  0  0  0  0  0  0  0  0
    1.1540   -5.6580  -27.8600 C   0  0  0  0  0  3  0  0  0  0  0  0
    2.0370   -6.4430  -28.4830 N   0  0  0  0  0  0  0  0  0  0  0  0
    2.5490   -7.4730  -27.7880 C   0  0  0  0  0  0  0  0  0  0  0  0
    1.6000   -7.1320  -23.9140 H   0  0  0  0  0  0  0  0  0  0  0  0
    4.5010   -6.8790  -29.9480 N   0  0  0  0  0  0  0  0  0  0  0  0
    3.9720   -8.1190  -29.7230 C   0  0  0  0  0  0  0  0  0  0  0  0
    3.8430   -8.9510  -30.6080 O   0  0  0  0  0  0  0  0  0  0  0  0
    4.8460   -6.6810  -30.8780 H   0  0  0  0  0  0  0  0  0  0  0  0
    4.6260   -6.1900  -29.2210 H   0  0  0  0  0  0  0  0  0  0  0  0
   -1.2880   -7.1570  -23.3840 C   0  0  0  0  0  0  0  0  0  0  0  0
   -2.6670   -6.9210  -23.4550 C   0  0  0  0  0  3  0  0  0  0  0  0
   -3.5670   -7.8040  -22.8640 C   0  0  0  0  0  3  0  0  0  0  0  0
   -3.1050   -8.9530  -22.2190 C   0  0  0  0  0  3  0  0  0  0  0  0
   -1.7410   -9.2380  -22.1740 C   0  0  0  0  0  0  0  0  0  0  0  0
   -0.8400   -8.3230  -22.7380 C   0  0  0  0  0  3  0  0  0  0  0  0
   -1.1870  -10.3710  -21.5490 N   0  0  0  0  0  0  0  0  0  0  0  0
   -0.6400  -11.5290  -22.0480 C   0  0  0  0  0  0  0  0  0  0  0  0
   -0.4670  -12.4980  -21.3100 O   0  0  0  0  0  0  0  0  0  0  0  0
   -1.1970  -10.3740  -20.5350 H   0  0  0  0  0  0  0  0  0  0  0  0
   -0.1890  -11.6450  -23.4420 C   0  0  0  0  0  0  0  0  0  0  0  0
   -1.0530  -11.2430  -24.4690 C   0  0  0  0  0  3  0  0  0  0  0  0
   -0.6490  -11.3750  -25.7980 C   0  0  0  0  0  3  0  0  0  0  0  0
    0.5990  -11.9240  -26.0870 C   0  0  0  0  0  0  0  0  0  0  0  0
    0.9820  -12.0450  -27.3650 F   0  0  0  0  0  0  0  0  0  0  0  0
    1.4490  -12.3550  -25.0760 C   0  0  0  0  0  3  0  0  0  0  0  0
    1.0440  -12.2230  -23.7510 C   0  0  0  0  0  0  0  0  0  0  0  0
    1.8570  -12.6710  -22.7850 F   0  0  0  0  0  0  0  0  0  0  0  0
  1 19  1  0  0  0  0
  2 12  2  0  0  0  0
  2  3  1  0  0  0  0
  3  4  2  0  0  0  0
  4  5  1  0  0  0  0
  6  7  1  0  0  0  0
  6  5  2  0  0  0  0
  7  8  1  0  0  0  0
  8  1  1  0  0  0  0
  8 13  1  0  0  0  0
  9  7  2  0  0  0  0
 10  9  1  0  0  0  0
 11 10  2  0  0  0  0
 11 12  1  0  0  0  0
 12  6  1  0  0  0  0
 14 15  1  0  0  0  0
 14 18  1  0  0  0  0
 15  2  1  0  0  0  0
 16 15  2  0  0  0  0
 17 14  1  0  0  0  0
 19 24  1  0  0  0  0
 20 19  2  0  0  0  0
 20 21  1  0  0  0  0
 21 22  2  0  0  0  0
 22 23  1  0  0  0  0
 23 25  1  0  0  0  0
 24 23  2  0  0  0  0
 25 28  1  0  0  0  0
 26 25  1  0  0  0  0
 26 27  2  0  0  0  0
 29 26  1  0  0  0  0
 30 29  2  0  0  0  0
 31 30  1  0  0  0  0
 32 31  2  0  0  0  0
 32 34  1  0  0  0  0
 33 32  1  0  0  0  0
 34 35  2  0  0  0  0
 35 29  1  0  0  0  0
 35 36  1  0  0  0  0
M  END
>  <minimizedAffinity>
-8.48224068

$$$$
