
 OpenBabel10152420013D

 36 39  0  0  0  0  0  0  0  0999 V2000
   -1.6680   -6.7170  -26.5040 C   0  0  0  0  0  2  0  0  0  0  0  0
   -1.3650  -10.7770  -21.9590 C   0  0  0  0  0  0  0  0  0  0  0  0
   -1.4500   -9.9020  -20.8650 C   0  0  0  0  0  3  0  0  0  0  0  0
   -1.5350   -8.5380  -21.0900 C   0  0  0  0  0  3  0  0  0  0  0  0
   -1.5160   -8.0690  -22.4010 C   0  0  0  0  0  3  0  0  0  0  0  0
   -1.4210   -8.9550  -23.5090 C   0  0  0  0  0  0  0  0  0  0  0  0
   -1.3920   -8.5350  -24.8540 C   0  0  0  0  0  0  0  0  0  0  0  0
   -1.3930   -7.1770  -25.1560 N   0  0  0  0  0  0  0  0  0  0  0  0
   -1.3780   -9.4090  -25.8730 N   0  0  0  0  0  0  0  0  0  0  0  0
   -1.3430  -10.7040  -25.5520 C   0  0  0  0  0  3  0  0  0  0  0  0
   -1.3330  -11.2100  -24.3160 N   0  0  0  0  0  0  0  0  0  0  0  0
   -1.3640  -10.3420  -23.2910 C   0  0  0  0  0  0  0  0  0  0  0  0
   -0.7480   -6.6150  -24.6180 H   0  0  0  0  0  0  0  0  0  0  0  0
   -2.4000  -12.8290  -21.2640 N   0  0  0  0  0  0  0  0  0  0  0  0
   -1.2460  -12.2120  -21.6560 C   0  0  0  0  0  0  0  0  0  0  0  0
   -0.1680  -12.7870  -21.6810 O   0  0  0  0  0  0  0  0  0  0  0  0
   -2.3510  -13.8150  -21.0420 H   0  0  0  0  0  0  0  0  0  0  0  0
   -3.2980  -12.3680  -21.2550 H   0  0  0  0  0  0  0  0  0  0  0  0
   -0.5100   -5.9250  -27.0740 C   0  0  0  0  0  0  0  0  0  0  0  0
   -0.4890   -4.5250  -27.0240 C   0  0  0  0  0  3  0  0  0  0  0  0
    0.6030   -3.8160  -27.5190 C   0  0  0  0  0  3  0  0  0  0  0  0
    1.7040   -4.4960  -28.0440 C   0  0  0  0  0  3  0  0  0  0  0  0
    1.7310   -5.8900  -28.0630 C   0  0  0  0  0  0  0  0  0  0  0  0
    0.6100   -6.5930  -27.5980 C   0  0  0  0  0  3  0  0  0  0  0  0
    2.7960   -6.6570  -28.5700 N   0  0  0  0  0  0  0  0  0  0  0  0
    3.5100   -7.7090  -28.0480 C   0  0  0  0  0  0  0  0  0  0  0  0
    4.5770   -8.0460  -28.5600 O   0  0  0  0  0  0  0  0  0  0  0  0
    3.1420   -6.3940  -29.4860 H   0  0  0  0  0  0  0  0  0  0  0  0
    3.0160   -8.5040  -26.9150 C   0  0  0  0  0  0  0  0  0  0  0  0
    2.6540   -7.8460  -25.7320 C   0  0  0  0  0  3  0  0  0  0  0  0
    2.2110   -8.5920  -24.6390 C   0  0  0  0  0  3  0  0  0  0  0  0
    2.1560   -9.9810  -24.7300 C   0  0  0  0  0  0  0  0  0  0  0  0
    1.7280  -10.6910  -23.6770 F   0  0  0  0  0  0  0  0  0  0  0  0
    2.5450  -10.6440  -25.8870 C   0  0  0  0  0  3  0  0  0  0  0  0
    2.9860   -9.8990  -26.9760 C   0  0  0  0  0  0  0  0  0  0  0  0
    3.3890  -10.5490  -28.0770 F   0  0  0  0  0  0  0  0  0  0  0  0
  1  8  1  0  0  0  0
  2 15  1  0  0  0  0
  2  3  1  0  0  0  0
  4  3  2  0  0  0  0
  5  4  1  0  0  0  0
  6 12  1  0  0  0  0
  6  5  2  0  0  0  0
  7  6  1  0  0  0  0
  8  7  1  0  0  0  0
  8 13  1  0  0  0  0
  9 10  1  0  0  0  0
  9  7  2  0  0  0  0
 10 11  2  0  0  0  0
 11 12  1  0  0  0  0
 12  2  2  0  0  0  0
 14 18  1  0  0  0  0
 14 17  1  0  0  0  0
 15 14  1  0  0  0  0
 16 15  2  0  0  0  0
 19 20  1  0  0  0  0
 19  1  1  0  0  0  0
 21 20  2  0  0  0  0
 22 21  1  0  0  0  0
 23 22  2  0  0  0  0
 23 24  1  0  0  0  0
 24 19  2  0  0  0  0
 25 23  1  0  0  0  0
 25 26  1  0  0  0  0
 26 29  1  0  0  0  0
 27 26  2  0  0  0  0
 28 25  1  0  0  0  0
 29 30  1  0  0  0  0
 30 31  2  0  0  0  0
 32 31  1  0  0  0  0
 32 33  1  0  0  0  0
 34 32  2  0  0  0  0
 35 29  2  0  0  0  0
 35 34  1  0  0  0  0
 36 35  1  0  0  0  0
M  END
>  <minimizedAffinity>
-10.1842976

$$$$

 OpenBabel10152420013D

 36 39  0  0  0  0  0  0  0  0999 V2000
   -0.4810   -6.8020  -24.1260 C   0  0  0  0  0  2  0  0  0  0  0  0
   -1.4820  -12.0150  -21.1180 C   0  0  0  0  0  0  0  0  0  0  0  0
   -0.6690  -12.8740  -21.8730 C   0  0  0  0  0  3  0  0  0  0  0  0
    0.0180  -12.3730  -22.9660 C   0  0  0  0  0  3  0  0  0  0  0  0
   -0.1300  -11.0300  -23.2980 C   0  0  0  0  0  3  0  0  0  0  0  0
   -0.9620  -10.1610  -22.5390 C   0  0  0  0  0  0  0  0  0  0  0  0
   -1.1530   -8.7960  -22.8320 C   0  0  0  0  0  0  0  0  0  0  0  0
   -0.5580   -8.2410  -23.9600 N   0  0  0  0  0  0  0  0  0  0  0  0
   -1.8870   -7.9940  -22.0450 N   0  0  0  0  0  0  0  0  0  0  0  0
   -2.4720   -8.5620  -20.9890 C   0  0  0  0  0  3  0  0  0  0  0  0
   -2.3860   -9.8480  -20.6370 N   0  0  0  0  0  0  0  0  0  0  0  0
   -1.6390  -10.6540  -21.4110 C   0  0  0  0  0  0  0  0  0  0  0  0
   -0.6550   -8.7800  -24.8090 H   0  0  0  0  0  0  0  0  0  0  0  0
   -3.5220  -12.9190  -20.2290 N   0  0  0  0  0  0  0  0  0  0  0  0
   -2.2120  -12.6110  -19.9870 C   0  0  0  0  0  0  0  0  0  0  0  0
   -1.6960  -12.7450  -18.8880 O   0  0  0  0  0  0  0  0  0  0  0  0
   -4.0540  -13.3230  -19.4700 H   0  0  0  0  0  0  0  0  0  0  0  0
   -3.9540  -12.8260  -21.1370 H   0  0  0  0  0  0  0  0  0  0  0  0
   -0.2580   -6.4130  -25.5720 C   0  0  0  0  0  0  0  0  0  0  0  0
   -1.2850   -5.8550  -26.3450 C   0  0  0  0  0  3  0  0  0  0  0  0
   -1.0480   -5.4680  -27.6620 C   0  0  0  0  0  3  0  0  0  0  0  0
    0.2260   -5.6050  -28.2170 C   0  0  0  0  0  3  0  0  0  0  0  0
    1.2780   -6.1120  -27.4570 C   0  0  0  0  0  0  0  0  0  0  0  0
    1.0200   -6.5350  -26.1450 C   0  0  0  0  0  3  0  0  0  0  0  0
    2.5920   -6.2830  -27.9330 N   0  0  0  0  0  0  0  0  0  0  0  0
    3.5500   -7.2350  -27.6810 C   0  0  0  0  0  0  0  0  0  0  0  0
    4.7210   -7.0320  -28.0010 O   0  0  0  0  0  0  0  0  0  0  0  0
    2.9340   -5.5720  -28.5690 H   0  0  0  0  0  0  0  0  0  0  0  0
    3.2220   -8.5380  -27.0860 C   0  0  0  0  0  0  0  0  0  0  0  0
    2.7560   -8.5820  -25.7650 C   0  0  0  0  0  3  0  0  0  0  0  0
    2.4690   -9.8150  -25.1780 C   0  0  0  0  0  3  0  0  0  0  0  0
    2.6690  -10.9870  -25.9050 C   0  0  0  0  0  0  0  0  0  0  0  0
    2.3900  -12.1670  -25.3360 F   0  0  0  0  0  0  0  0  0  0  0  0
    3.1620  -10.9550  -27.2040 C   0  0  0  0  0  3  0  0  0  0  0  0
    3.4480   -9.7250  -27.7870 C   0  0  0  0  0  0  0  0  0  0  0  0
    3.9530   -9.7060  -29.0290 F   0  0  0  0  0  0  0  0  0  0  0  0
  1  8  1  0  0  0  0
  2 15  1  0  0  0  0
  3  2  2  0  0  0  0
  4  3  1  0  0  0  0
  5  4  2  0  0  0  0
  5  6  1  0  0  0  0
  6 12  1  0  0  0  0
  7  6  2  0  0  0  0
  7  9  1  0  0  0  0
  8  7  1  0  0  0  0
  9 10  2  0  0  0  0
 10 11  1  0  0  0  0
 12  2  1  0  0  0  0
 12 11  2  0  0  0  0
 13  8  1  0  0  0  0
 14 15  1  0  0  0  0
 14 17  1  0  0  0  0
 15 16  2  0  0  0  0
 18 14  1  0  0  0  0
 19  1  1  0  0  0  0
 20 19  2  0  0  0  0
 21 20  1  0  0  0  0
 22 21  2  0  0  0  0
 22 23  1  0  0  0  0
 23 24  2  0  0  0  0
 24 19  1  0  0  0  0
 25 26  1  0  0  0  0
 25 23  1  0  0  0  0
 26 29  1  0  0  0  0
 27 26  2  0  0  0  0
 28 25  1  0  0  0  0
 29 30  1  0  0  0  0
 30 31  2  0  0  0  0
 32 33  1  0  0  0  0
 32 31  1  0  0  0  0
 34 32  2  0  0  0  0
 35 34  1  0  0  0  0
 35 29  2  0  0  0  0
 36 35  1  0  0  0  0
M  END
>  <minimizedAffinity>
-10.0417509

$$$$

 OpenBabel10152420013D

 36 39  0  0  0  0  0  0  0  0999 V2000
   -0.2930   -6.2330  -24.0550 C   0  0  0  0  0  2  0  0  0  0  0  0
    3.4740   -8.3570  -28.3580 C   0  0  0  0  0  0  0  0  0  0  0  0
    3.9900   -9.4720  -27.6810 C   0  0  0  0  0  3  0  0  0  0  0  0
    3.5800   -9.7280  -26.3830 C   0  0  0  0  0  3  0  0  0  0  0  0
    2.6760   -8.8600  -25.7770 C   0  0  0  0  0  3  0  0  0  0  0  0
    2.1610   -7.7240  -26.4610 C   0  0  0  0  0  0  0  0  0  0  0  0
    1.2490   -6.8100  -25.8970 C   0  0  0  0  0  0  0  0  0  0  0  0
    0.8520   -6.9570  -24.5710 N   0  0  0  0  0  0  0  0  0  0  0  0
    0.7290   -5.7940  -26.6020 N   0  0  0  0  0  0  0  0  0  0  0  0
    1.1540   -5.6580  -27.8600 C   0  0  0  0  0  3  0  0  0  0  0  0
    2.0370   -6.4430  -28.4830 N   0  0  0  0  0  0  0  0  0  0  0  0
    2.5490   -7.4730  -27.7880 C   0  0  0  0  0  0  0  0  0  0  0  0
    1.6000   -7.1320  -23.9140 H   0  0  0  0  0  0  0  0  0  0  0  0
    4.5010   -6.8790  -29.9480 N   0  0  0  0  0  0  0  0  0  0  0  0
    3.9720   -8.1190  -29.7230 C   0  0  0  0  0  0  0  0  0  0  0  0
    3.8430   -8.9510  -30.6080 O   0  0  0  0  0  0  0  0  0  0  0  0
    4.8460   -6.6810  -30.8780 H   0  0  0  0  0  0  0  0  0  0  0  0
    4.6260   -6.1900  -29.2210 H   0  0  0  0  0  0  0  0  0  0  0  0
   -1.2880   -7.1570  -23.3840 C   0  0  0  0  0  0  0  0  0  0  0  0
   -2.6670   -6.9210  -23.4550 C   0  0  0  0  0  3  0  0  0  0  0  0
   -3.5670   -7.8040  -22.8640 C   0  0  0  0  0  3  0  0  0  0  0  0
   -3.1050   -8.9530  -22.2190 C   0  0  0  0  0  3  0  0  0  0  0  0
   -1.7410   -9.2380  -22.1740 C   0  0  0  0  0  0  0  0  0  0  0  0
   -0.8400   -8.3230  -22.7380 C   0  0  0  0  0  3  0  0  0  0  0  0
   -1.1870  -10.3710  -21.5490 N   0  0  0  0  0  0  0  0  0  0  0  0
   -0.6400  -11.5290  -22.0480 C   0  0  0  0  0  0  0  0  0  0  0  0
   -0.4670  -12.4980  -21.3100 O   0  0  0  0  0  0  0  0  0  0  0  0
   -1.1970  -10.3740  -20.5350 H   0  0  0  0  0  0  0  0  0  0  0  0
   -0.1890  -11.6450  -23.4420 C   0  0  0  0  0  0  0  0  0  0  0  0
   -1.0530  -11.2430  -24.4690 C   0  0  0  0  0  3  0  0  0  0  0  0
   -0.6490  -11.3750  -25.7980 C   0  0  0  0  0  3  0  0  0  0  0  0
    0.5990  -11.9240  -26.0870 C   0  0  0  0  0  0  0  0  0  0  0  0
    0.9820  -12.0450  -27.3650 F   0  0  0  0  0  0  0  0  0  0  0  0
    1.4490  -12.3550  -25.0760 C   0  0  0  0  0  3  0  0  0  0  0  0
    1.0440  -12.2230  -23.7510 C   0  0  0  0  0  0  0  0  0  0  0  0
    1.8570  -12.6710  -22.7850 F   0  0  0  0  0  0  0  0  0  0  0  0
  1 19  1  0  0  0  0
  2 12  2  0  0  0  0
  2  3  1  0  0  0  0
  3  4  2  0  0  0  0
  4  5  1  0  0  0  0
  6  7  1  0  0  0  0
  6  5  2  0  0  0  0
  7  8  1  0  0  0  0
  8  1  1  0  0  0  0
  8 13  1  0  0  0  0
  9  7  2  0  0  0  0
 10  9  1  0  0  0  0
 11 10  2  0  0  0  0
 11 12  1  0  0  0  0
 12  6  1  0  0  0  0
 14 15  1  0  0  0  0
 14 18  1  0  0  0  0
 15  2  1  0  0  0  0
 16 15  2  0  0  0  0
 17 14  1  0  0  0  0
 19 24  1  0  0  0  0
 20 19  2  0  0  0  0
 20 21  1  0  0  0  0
 21 22  2  0  0  0  0
 22 23  1  0  0  0  0
 23 25  1  0  0  0  0
 24 23  2  0  0  0  0
 25 28  1  0  0  0  0
 26 25  1  0  0  0  0
 26 27  2  0  0  0  0
 29 26  1  0  0  0  0
 30 29  2  0  0  0  0
 31 30  1  0  0  0  0
 32 31  2  0  0  0  0
 32 34  1  0  0  0  0
 33 32  1  0  0  0  0
 34 35  2  0  0  0  0
 35 29  1  0  0  0  0
 35 36  1  0  0  0  0
M  END
>  <minimizedAffinity>
-8.48224068

$$$$

 OpenBabel10152420013D

 36 39  0  0  0  0  0  0  0  0999 V2000
   -0.4350   -5.9530  -23.1590 C   0  0  0  0  0  2  0  0  0  0  0  0
    2.3310   -6.4690  -28.5730 C   0  0  0  0  0  0  0  0  0  0  0  0
    1.7460   -5.3780  -29.2340 C   0  0  0  0  0  3  0  0  0  0  0  0
    0.8030   -4.6090  -28.5720 C   0  0  0  0  0  3  0  0  0  0  0  0
    0.4480   -4.9500  -27.2700 C   0  0  0  0  0  3  0  0  0  0  0  0
    1.0340   -6.0610  -26.6040 C   0  0  0  0  0  0  0  0  0  0  0  0
    0.7090   -6.4550  -25.2910 C   0  0  0  0  0  0  0  0  0  0  0  0
   -0.2860   -5.7790  -24.5920 N   0  0  0  0  0  0  0  0  0  0  0  0
    1.3410   -7.4650  -24.6720 N   0  0  0  0  0  0  0  0  0  0  0  0
    2.2670   -8.1150  -25.3790 C   0  0  0  0  0  3  0  0  0  0  0  0
    2.6300   -7.8500  -26.6370 N   0  0  0  0  0  0  0  0  0  0  0  0
    2.0130   -6.8290  -27.2570 C   0  0  0  0  0  0  0  0  0  0  0  0
   -1.1370   -5.6090  -25.1090 H   0  0  0  0  0  0  0  0  0  0  0  0
    4.5740   -7.2880  -28.8360 N   0  0  0  0  0  0  0  0  0  0  0  0
    3.3030   -7.2680  -29.3380 C   0  0  0  0  0  0  0  0  0  0  0  0
    3.0020   -7.8080  -30.3920 O   0  0  0  0  0  0  0  0  0  0  0  0
    5.2670   -7.8220  -29.3420 H   0  0  0  0  0  0  0  0  0  0  0  0
    4.8290   -6.8570  -27.9590 H   0  0  0  0  0  0  0  0  0  0  0  0
   -1.4780   -7.0000  -22.8260 C   0  0  0  0  0  0  0  0  0  0  0  0
   -2.8260   -6.8180  -23.1570 C   0  0  0  0  0  3  0  0  0  0  0  0
   -3.7640   -7.8100  -22.8770 C   0  0  0  0  0  3  0  0  0  0  0  0
   -3.3630   -9.0110  -22.2890 C   0  0  0  0  0  3  0  0  0  0  0  0
   -2.0200   -9.2390  -21.9930 C   0  0  0  0  0  0  0  0  0  0  0  0
   -1.0900   -8.2190  -22.2420 C   0  0  0  0  0  3  0  0  0  0  0  0
   -1.5260  -10.4180  -21.4030 N   0  0  0  0  0  0  0  0  0  0  0  0
   -0.9860  -11.5640  -21.9360 C   0  0  0  0  0  0  0  0  0  0  0  0
   -0.8740  -12.5740  -21.2430 O   0  0  0  0  0  0  0  0  0  0  0  0
   -1.5850  -10.4720  -20.3920 H   0  0  0  0  0  0  0  0  0  0  0  0
   -0.4730  -11.6200  -23.3120 C   0  0  0  0  0  0  0  0  0  0  0  0
   -1.2800  -11.1520  -24.3570 C   0  0  0  0  0  3  0  0  0  0  0  0
   -0.8160  -11.2270  -25.6710 C   0  0  0  0  0  3  0  0  0  0  0  0
    0.4330  -11.7860  -25.9290 C   0  0  0  0  0  0  0  0  0  0  0  0
    0.8740  -11.8540  -27.1920 F   0  0  0  0  0  0  0  0  0  0  0  0
    1.2270  -12.2830  -24.9020 C   0  0  0  0  0  3  0  0  0  0  0  0
    0.7630  -12.2080  -23.5930 C   0  0  0  0  0  0  0  0  0  0  0  0
    1.5220  -12.7180  -22.6130 F   0  0  0  0  0  0  0  0  0  0  0  0
  1 19  1  0  0  0  0
  2 12  1  0  0  0  0
  3  2  2  0  0  0  0
  3  4  1  0  0  0  0
  4  5  2  0  0  0  0
  5  6  1  0  0  0  0
  6  7  1  0  0  0  0
  7  9  2  0  0  0  0
  7  8  1  0  0  0  0
  8  1  1  0  0  0  0
 10  9  1  0  0  0  0
 11 10  2  0  0  0  0
 12 11  1  0  0  0  0
 12  6  2  0  0  0  0
 13  8  1  0  0  0  0
 14 18  1  0  0  0  0
 15 14  1  0  0  0  0
 15  2  1  0  0  0  0
 16 15  2  0  0  0  0
 17 14  1  0  0  0  0
 19 24  1  0  0  0  0
 20 21  1  0  0  0  0
 20 19  2  0  0  0  0
 21 22  2  0  0  0  0
 22 23  1  0  0  0  0
 23 25  1  0  0  0  0
 24 23  2  0  0  0  0
 25 28  1  0  0  0  0
 26 25  1  0  0  0  0
 26 27  2  0  0  0  0
 29 26  1  0  0  0  0
 30 29  2  0  0  0  0
 31 30  1  0  0  0  0
 32 31  2  0  0  0  0
 32 34  1  0  0  0  0
 33 32  1  0  0  0  0
 34 35  2  0  0  0  0
 35 29  1  0  0  0  0
 35 36  1  0  0  0  0
M  END
>  <minimizedAffinity>
-7.89417076

$$$$

 OpenBabel10152420013D

 36 39  0  0  0  0  0  0  0  0999 V2000
   -0.4330   -5.7090  -23.4050 C   0  0  0  0  0  2  0  0  0  0  0  0
   -1.8010  -11.4130  -21.7240 C   0  0  0  0  0  0  0  0  0  0  0  0
   -1.3630  -12.0990  -22.8670 C   0  0  0  0  0  3  0  0  0  0  0  0
   -0.8420  -11.3830  -23.9320 C   0  0  0  0  0  3  0  0  0  0  0  0
   -0.7810   -9.9950  -23.8460 C   0  0  0  0  0  3  0  0  0  0  0  0
   -1.2340   -9.2990  -22.6920 C   0  0  0  0  0  0  0  0  0  0  0  0
   -1.2010   -7.8970  -22.5520 C   0  0  0  0  0  0  0  0  0  0  0  0
   -0.7640   -7.1060  -23.6110 N   0  0  0  0  0  0  0  0  0  0  0  0
   -1.5680   -7.2850  -21.4160 N   0  0  0  0  0  0  0  0  0  0  0  0
   -2.0140   -8.0670  -20.4310 C   0  0  0  0  0  3  0  0  0  0  0  0
   -2.1190   -9.3980  -20.4660 N   0  0  0  0  0  0  0  0  0  0  0  0
   -1.7370  -10.0190  -21.5950 C   0  0  0  0  0  0  0  0  0  0  0  0
   -1.1510   -7.3430  -24.5140 H   0  0  0  0  0  0  0  0  0  0  0  0
   -1.5090  -12.5670  -19.6390 N   0  0  0  0  0  0  0  0  0  0  0  0
   -2.3750  -12.2250  -20.6390 C   0  0  0  0  0  0  0  0  0  0  0  0
   -3.5290  -12.6260  -20.6780 O   0  0  0  0  0  0  0  0  0  0  0  0
   -1.8700  -13.1310  -18.8810 H   0  0  0  0  0  0  0  0  0  0  0  0
   -0.5590  -12.2290  -19.5900 H   0  0  0  0  0  0  0  0  0  0  0  0
   -0.5140   -4.9170  -24.6940 C   0  0  0  0  0  0  0  0  0  0  0  0
   -1.1110   -3.6510  -24.7350 C   0  0  0  0  0  3  0  0  0  0  0  0
   -1.1400   -2.9210  -25.9220 C   0  0  0  0  0  3  0  0  0  0  0  0
   -0.5460   -3.4330  -27.0770 C   0  0  0  0  0  3  0  0  0  0  0  0
    0.0970   -4.6690  -27.0530 C   0  0  0  0  0  0  0  0  0  0  0  0
    0.0870   -5.4130  -25.8640 C   0  0  0  0  0  3  0  0  0  0  0  0
    0.7230   -5.2600  -28.1660 N   0  0  0  0  0  0  0  0  0  0  0  0
    1.5960   -6.3150  -28.2850 C   0  0  0  0  0  0  0  0  0  0  0  0
    2.2240   -6.4820  -29.3300 O   0  0  0  0  0  0  0  0  0  0  0  0
    0.5300   -4.8370  -29.0670 H   0  0  0  0  0  0  0  0  0  0  0  0
    1.7740   -7.3090  -27.2160 C   0  0  0  0  0  0  0  0  0  0  0  0
    3.0490   -7.4920  -26.6670 C   0  0  0  0  0  3  0  0  0  0  0  0
    3.2380   -8.4520  -25.6720 C   0  0  0  0  0  3  0  0  0  0  0  0
    2.1610   -9.2310  -25.2540 C   0  0  0  0  0  0  0  0  0  0  0  0
    2.3480  -10.1500  -24.2980 F   0  0  0  0  0  0  0  0  0  0  0  0
    0.9000   -9.0780  -25.8170 C   0  0  0  0  0  3  0  0  0  0  0  0
    0.7140   -8.1210  -26.8080 C   0  0  0  0  0  0  0  0  0  0  0  0
   -0.5000   -8.0030  -27.3670 F   0  0  0  0  0  0  0  0  0  0  0  0
  2 12  1  0  0  0  0
  2 15  1  0  0  0  0
  3  2  2  0  0  0  0
  4  5  2  0  0  0  0
  4  3  1  0  0  0  0
  5  6  1  0  0  0  0
  6  7  2  0  0  0  0
  6 12  1  0  0  0  0
  7  9  1  0  0  0  0
  8  1  1  0  0  0  0
  8  7  1  0  0  0  0
  9 10  2  0  0  0  0
 11 10  1  0  0  0  0
 12 11  2  0  0  0  0
 13  8  1  0  0  0  0
 14 18  1  0  0  0  0
 14 17  1  0  0  0  0
 15 14  1  0  0  0  0
 16 15  2  0  0  0  0
 19  1  1  0  0  0  0
 20 19  1  0  0  0  0
 21 20  2  0  0  0  0
 22 23  2  0  0  0  0
 22 21  1  0  0  0  0
 23 24  1  0  0  0  0
 24 19  2  0  0  0  0
 25 23  1  0  0  0  0
 26 25  1  0  0  0  0
 26 29  1  0  0  0  0
 27 26  2  0  0  0  0
 28 25  1  0  0  0  0
 29 35  2  0  0  0  0
 29 30  1  0  0  0  0
 30 31  2  0  0  0  0
 31 32  1  0  0  0  0
 32 33  1  0  0  0  0
 34 32  2  0  0  0  0
 35 34  1  0  0  0  0
 36 35  1  0  0  0  0
M  END
>  <minimizedAffinity>
-7.45510769

$$$$

 OpenBabel10152420013D

 36 39  0  0  0  0  0  0  0  0999 V2000
   -0.9130   -6.7180  -23.1760 C   0  0  0  0  0  2  0  0  0  0  0  0
    2.4520   -6.6840  -28.2650 C   0  0  0  0  0  0  0  0  0  0  0  0
    1.7370   -5.7310  -29.0060 C   0  0  0  0  0  3  0  0  0  0  0  0
    0.5970   -5.1620  -28.4610 C   0  0  0  0  0  3  0  0  0  0  0  0
    0.1810   -5.5650  -27.1960 C   0  0  0  0  0  3  0  0  0  0  0  0
    0.9020   -6.5380  -26.4490 C   0  0  0  0  0  0  0  0  0  0  0  0
    0.5240   -6.9860  -25.1670 C   0  0  0  0  0  0  0  0  0  0  0  0
   -0.6520   -6.5190  -24.5890 N   0  0  0  0  0  0  0  0  0  0  0  0
    1.2740   -7.8500  -24.4650 N   0  0  0  0  0  0  0  0  0  0  0  0
    2.3790   -8.3060  -25.0590 C   0  0  0  0  0  3  0  0  0  0  0  0
    2.8110   -7.9760  -26.2790 N   0  0  0  0  0  0  0  0  0  0  0  0
    2.0750   -7.0980  -26.9810 C   0  0  0  0  0  0  0  0  0  0  0  0
   -1.4610   -6.5220  -25.1940 H   0  0  0  0  0  0  0  0  0  0  0  0
    4.7020   -7.5030  -28.0850 N   0  0  0  0  0  0  0  0  0  0  0  0
    3.6360   -7.2760  -28.9090 C   0  0  0  0  0  0  0  0  0  0  0  0
    3.6810   -7.4740  -30.1140 O   0  0  0  0  0  0  0  0  0  0  0  0
    5.5350   -7.9030  -28.4970 H   0  0  0  0  0  0  0  0  0  0  0  0
    4.6710   -7.3570  -27.0860 H   0  0  0  0  0  0  0  0  0  0  0  0
   -1.1170   -8.1810  -22.8420 C   0  0  0  0  0  0  0  0  0  0  0  0
   -1.3240   -8.6050  -21.5230 C   0  0  0  0  0  3  0  0  0  0  0  0
   -1.5480   -9.9510  -21.2400 C   0  0  0  0  0  3  0  0  0  0  0  0
   -1.6010  -10.8880  -22.2750 C   0  0  0  0  0  3  0  0  0  0  0  0
   -1.4470  -10.4860  -23.6010 C   0  0  0  0  0  0  0  0  0  0  0  0
   -1.1820   -9.1350  -23.8710 C   0  0  0  0  0  3  0  0  0  0  0  0
   -1.4870  -11.3590  -24.7040 N   0  0  0  0  0  0  0  0  0  0  0  0
   -0.5020  -12.0280  -25.3910 C   0  0  0  0  0  0  0  0  0  0  0  0
   -0.7430  -12.5200  -26.4920 O   0  0  0  0  0  0  0  0  0  0  0  0
   -2.4010  -11.5300  -25.1080 H   0  0  0  0  0  0  0  0  0  0  0  0
    0.8400  -12.2360  -24.8290 C   0  0  0  0  0  0  0  0  0  0  0  0
    0.9600  -12.7830  -23.5450 C   0  0  0  0  0  3  0  0  0  0  0  0
    2.2270  -12.9590  -22.9880 C   0  0  0  0  0  3  0  0  0  0  0  0
    3.3550  -12.5690  -23.7070 C   0  0  0  0  0  0  0  0  0  0  0  0
    4.5690  -12.7420  -23.1670 F   0  0  0  0  0  0  0  0  0  0  0  0
    3.2440  -11.9950  -24.9670 C   0  0  0  0  0  3  0  0  0  0  0  0
    1.9800  -11.8200  -25.5200 C   0  0  0  0  0  0  0  0  0  0  0  0
    1.8820  -11.2370  -26.7240 F   0  0  0  0  0  0  0  0  0  0  0  0
  1 19  1  0  0  0  0
  2 12  1  0  0  0  0
  3  4  1  0  0  0  0
  3  2  2  0  0  0  0
  4  5  2  0  0  0  0
  5  6  1  0  0  0  0
  6  7  1  0  0  0  0
  7  8  1  0  0  0  0
  7  9  2  0  0  0  0
  8  1  1  0  0  0  0
 10  9  1  0  0  0  0
 11 10  2  0  0  0  0
 12  6  2  0  0  0  0
 12 11  1  0  0  0  0
 13  8  1  0  0  0  0
 14 18  1  0  0  0  0
 15  2  1  0  0  0  0
 15 14  1  0  0  0  0
 16 15  2  0  0  0  0
 17 14  1  0  0  0  0
 19 20  1  0  0  0  0
 20 21  2  0  0  0  0
 22 21  1  0  0  0  0
 23 22  2  0  0  0  0
 24 23  1  0  0  0  0
 24 19  2  0  0  0  0
 25 23  1  0  0  0  0
 26 29  1  0  0  0  0
 26 25  1  0  0  0  0
 27 26  2  0  0  0  0
 28 25  1  0  0  0  0
 29 30  1  0  0  0  0
 30 31  2  0  0  0  0
 32 33  1  0  0  0  0
 32 31  1  0  0  0  0
 34 32  2  0  0  0  0
 35 34  1  0  0  0  0
 35 29  2  0  0  0  0
 36 35  1  0  0  0  0
M  END
>  <minimizedAffinity>
-7.43600559

$$$$

 OpenBabel10152420013D

 36 39  0  0  0  0  0  0  0  0999 V2000
   -1.4020   -6.2670  -26.1250 C   0  0  0  0  0  2  0  0  0  0  0  0
   -0.8550  -11.7380  -23.4810 C   0  0  0  0  0  0  0  0  0  0  0  0
   -0.5180  -12.5040  -24.6070 C   0  0  0  0  0  3  0  0  0  0  0  0
   -0.4450  -11.8920  -25.8470 C   0  0  0  0  0  3  0  0  0  0  0  0
   -0.7260  -10.5330  -25.9470 C   0  0  0  0  0  3  0  0  0  0  0  0
   -1.0760   -9.7590  -24.8060 C   0  0  0  0  0  0  0  0  0  0  0  0
   -1.3750   -8.3820  -24.8480 C   0  0  0  0  0  0  0  0  0  0  0  0
   -1.3990   -7.7160  -26.0700 N   0  0  0  0  0  0  0  0  0  0  0  0
   -1.6270   -7.6730  -23.7370 N   0  0  0  0  0  0  0  0  0  0  0  0
   -1.6290   -8.3450  -22.5850 C   0  0  0  0  0  3  0  0  0  0  0  0
   -1.3940   -9.6510  -22.4330 N   0  0  0  0  0  0  0  0  0  0  0  0
   -1.1240  -10.3650  -23.5390 C   0  0  0  0  0  0  0  0  0  0  0  0
   -1.9010   -8.1890  -26.8090 H   0  0  0  0  0  0  0  0  0  0  0  0
   -2.1770  -12.4300  -21.5990 N   0  0  0  0  0  0  0  0  0  0  0  0
   -0.9470  -12.4500  -22.1950 C   0  0  0  0  0  0  0  0  0  0  0  0
    0.0330  -12.9530  -21.6670 O   0  0  0  0  0  0  0  0  0  0  0  0
   -2.2730  -12.9040  -20.7110 H   0  0  0  0  0  0  0  0  0  0  0  0
   -2.9960  -12.0300  -22.0330 H   0  0  0  0  0  0  0  0  0  0  0  0
   -0.2870   -5.7350  -27.0010 C   0  0  0  0  0  0  0  0  0  0  0  0
   -0.0580   -4.3600  -27.1350 C   0  0  0  0  0  3  0  0  0  0  0  0
    0.9980   -3.8920  -27.9160 C   0  0  0  0  0  3  0  0  0  0  0  0
    1.8580   -4.7910  -28.5480 C   0  0  0  0  0  3  0  0  0  0  0  0
    1.6830   -6.1650  -28.3930 C   0  0  0  0  0  0  0  0  0  0  0  0
    0.5940   -6.6270  -27.6380 C   0  0  0  0  0  3  0  0  0  0  0  0
    2.5000   -7.1430  -28.9900 N   0  0  0  0  0  0  0  0  0  0  0  0
    3.2110   -8.1990  -28.4710 C   0  0  0  0  0  0  0  0  0  0  0  0
    4.0730   -8.7560  -29.1490 O   0  0  0  0  0  0  0  0  0  0  0  0
    2.6270   -7.0690  -29.9930 H   0  0  0  0  0  0  0  0  0  0  0  0
    2.9410   -8.7410  -27.1320 C   0  0  0  0  0  0  0  0  0  0  0  0
    2.7850  -10.1240  -26.9790 C   0  0  0  0  0  3  0  0  0  0  0  0
    2.5000  -10.6500  -25.7180 C   0  0  0  0  0  3  0  0  0  0  0  0
    2.3520   -9.7900  -24.6320 C   0  0  0  0  0  0  0  0  0  0  0  0
    2.0790  -10.3010  -23.4240 F   0  0  0  0  0  0  0  0  0  0  0  0
    2.4720   -8.4140  -24.7800 C   0  0  0  0  0  3  0  0  0  0  0  0
    2.7560   -7.8920  -26.0380 C   0  0  0  0  0  0  0  0  0  0  0  0
    2.8390   -6.5610  -26.1760 F   0  0  0  0  0  0  0  0  0  0  0  0
  1  8  1  0  0  0  0
  2 15  1  0  0  0  0
  3  2  2  0  0  0  0
  4  3  1  0  0  0  0
  5  4  2  0  0  0  0
  5  6  1  0  0  0  0
  6 12  1  0  0  0  0
  7  6  2  0  0  0  0
  7  9  1  0  0  0  0
  8  7  1  0  0  0  0
  9 10  2  0  0  0  0
 10 11  1  0  0  0  0
 12  2  1  0  0  0  0
 12 11  2  0  0  0  0
 13  8  1  0  0  0  0
 14 17  1  0  0  0  0
 15 16  2  0  0  0  0
 15 14  1  0  0  0  0
 18 14  1  0  0  0  0
 19  1  1  0  0  0  0
 20 19  1  0  0  0  0
 21 20  2  0  0  0  0
 22 23  2  0  0  0  0
 22 21  1  0  0  0  0
 23 24  1  0  0  0  0
 24 19  2  0  0  0  0
 25 26  1  0  0  0  0
 25 23  1  0  0  0  0
 26 29  1  0  0  0  0
 27 26  2  0  0  0  0
 28 25  1  0  0  0  0
 29 30  2  0  0  0  0
 29 35  1  0  0  0  0
 30 31  1  0  0  0  0
 31 32  2  0  0  0  0
 32 33  1  0  0  0  0
 34 32  1  0  0  0  0
 35 34  2  0  0  0  0
 36 35  1  0  0  0  0
M  END
>  <minimizedAffinity>
-7.40939283

$$$$
