
 OpenBabel10152419453D

 40 43  0  0  0  0  0  0  0  0999 V2000
   -0.2470   -5.5270  -25.7920 C   0  0  0  0  0  0  0  0  0  0  0  0
   -1.4440   -5.8880  -26.4140 C   0  0  0  0  0  3  0  0  0  0  0  0
   -1.4570   -6.1950  -27.7700 C   0  0  0  0  0  3  0  0  0  0  0  0
   -0.2680   -6.1810  -28.4950 C   0  0  0  0  0  3  0  0  0  0  0  0
    0.9670   -5.9220  -27.8780 C   0  0  0  0  0  0  0  0  0  0  0  0
    0.9560   -5.5910  -26.5130 C   0  0  0  0  0  3  0  0  0  0  0  0
   -0.8360   -5.7870  -23.3500 C   0  0  0  0  0  0  0  0  0  0  0  0
   -1.0980   -5.1660  -22.3210 O   0  0  0  0  0  0  0  0  0  0  0  0
   -0.3290   -5.1300  -24.4470 N   0  0  0  0  0  0  0  0  0  0  0  0
    0.0420   -4.2160  -24.2130 H   0  0  0  0  0  0  0  0  0  0  0  0
   -1.1670  -11.4100  -23.5960 N   0  0  0  0  0  0  0  0  0  0  0  0
   -0.7530  -11.9680  -24.8760 C   0  0  0  0  0  1  0  0  0  0  0  0
   -1.1450  -10.0340  -23.4820 C   0  0  0  0  0  0  0  0  0  0  0  0
   -1.5130   -9.3590  -22.3160 C   0  0  0  0  0  3  0  0  0  0  0  0
   -1.4350   -7.9650  -22.2440 C   0  0  0  0  0  3  0  0  0  0  0  0
   -0.9700   -7.2550  -23.3430 C   0  0  0  0  0  0  0  0  0  0  0  0
   -0.6680   -7.9680  -24.4840 C   0  0  0  0  0  3  0  0  0  0  0  0
   -0.7290   -9.3210  -24.5600 N   0  0  0  0  0  0  0  0  0  0  0  0
   -1.5250  -12.3380  -22.5220 C   0  0  0  0  0  2  0  0  0  0  0  0
   -0.3360  -12.7050  -21.6180 C   0  0  0  0  0  2  0  0  0  0  0  0
   -1.9500  -12.4100  -19.8910 C   0  0  0  0  0  1  0  0  0  0  0  0
   -0.5720  -12.4560  -20.2310 O   0  0  0  0  0  0  0  0  0  0  0  0
    2.2680   -5.9280  -28.6690 C   0  0  0  0  0  2  0  0  0  0  0  0
    3.4190   -6.3160  -27.8710 N   0  0  0  0  0  0  0  0  0  0  0  0
    3.6800   -5.7420  -27.0870 H   0  0  0  0  0  0  0  0  0  0  0  0
    3.9490   -7.5910  -28.0190 C   0  0  0  0  0  0  0  0  0  0  0  0
    4.5850   -7.8540  -29.1750 N   0  0  0  0  0  0  0  0  0  0  0  0
    4.7210   -9.1370  -29.5060 C   0  0  0  0  0  3  0  0  0  0  0  0
    4.1850  -10.1640  -28.8440 N   0  0  0  0  0  0  0  0  0  0  0  0
    3.6110   -9.9020  -27.6530 C   0  0  0  0  0  0  0  0  0  0  0  0
    2.9780  -10.9000  -26.9060 C   0  0  0  0  0  0  0  0  0  0  0  0
    2.5070  -10.6990  -25.6010 C   0  0  0  0  0  3  0  0  0  0  0  0
    2.5910   -9.4390  -25.0360 C   0  0  0  0  0  3  0  0  0  0  0  0
    3.0730   -8.3880  -25.8100 C   0  0  0  0  0  3  0  0  0  0  0  0
    3.5660   -8.6070  -27.1260 C   0  0  0  0  0  0  0  0  0  0  0  0
    2.5970  -12.1700  -27.5510 C   0  0  0  0  0  0  0  0  0  0  0  0
    3.1680  -12.3760  -28.7800 N   0  0  0  0  0  0  0  0  0  0  0  0
    1.7490  -12.9090  -27.0830 O   0  0  0  0  0  0  0  0  0  0  0  0
    2.9120  -13.2040  -29.2990 H   0  0  0  0  0  0  0  0  0  0  0  0
    3.8390  -11.7370  -29.1820 H   0  0  0  0  0  0  0  0  0  0  0  0
  1  9  1  0  0  0  0
  2  1  1  0  0  0  0
  3  2  2  0  0  0  0
  4  5  2  0  0  0  0
  4  3  1  0  0  0  0
  5  6  1  0  0  0  0
  6  1  2  0  0  0  0
  7 16  1  0  0  0  0
  7  8  2  0  0  0  0
  9 10  1  0  0  0  0
  9  7  1  0  0  0  0
 11 13  1  0  0  0  0
 11 19  1  0  0  0  0
 12 11  1  0  0  0  0
 13 14  1  0  0  0  0
 14 15  2  0  0  0  0
 16 15  1  0  0  0  0
 17 16  2  0  0  0  0
 18 17  1  0  0  0  0
 18 13  2  0  0  0  0
 19 20  1  0  0  0  0
 20 22  1  0  0  0  0
 22 21  1  0  0  0  0
 23  5  1  0  0  0  0
 23 24  1  0  0  0  0
 24 25  1  0  0  0  0
 26 24  1  0  0  0  0
 26 35  1  0  0  0  0
 27 26  2  0  0  0  0
 28 27  1  0  0  0  0
 28 29  2  0  0  0  0
 29 30  1  0  0  0  0
 30 35  2  0  0  0  0
 30 31  1  0  0  0  0
 31 32  2  0  0  0  0
 32 33  1  0  0  0  0
 34 33  2  0  0  0  0
 35 34  1  0  0  0  0
 36 38  2  0  0  0  0
 36 31  1  0  0  0  0
 37 36  1  0  0  0  0
 39 37  1  0  0  0  0
 40 37  1  0  0  0  0
M  END
>  <minimizedAffinity>
-6.4721384

$$$$
