
 OpenBabel10152419453D

 40 43  0  0  0  0  0  0  0  0999 V2000
    2.4620   -6.1220  -28.5810 C   0  0  0  0  0  0  0  0  0  0  0  0
    2.4940   -6.7050  -29.8490 C   0  0  0  0  0  3  0  0  0  0  0  0
    3.1900   -7.8910  -30.0510 C   0  0  0  0  0  3  0  0  0  0  0  0
    3.8210   -8.5150  -28.9770 C   0  0  0  0  0  3  0  0  0  0  0  0
    3.7230   -8.0090  -27.6710 C   0  0  0  0  0  0  0  0  0  0  0  0
    3.0350   -6.7970  -27.4920 C   0  0  0  0  0  3  0  0  0  0  0  0
    0.6640   -4.5120  -27.8360 C   0  0  0  0  0  0  0  0  0  0  0  0
    0.1110   -3.4480  -28.1080 O   0  0  0  0  0  0  0  0  0  0  0  0
    1.8270   -4.8730  -28.4760 N   0  0  0  0  0  0  0  0  0  0  0  0
    2.2770   -4.0870  -28.9310 H   0  0  0  0  0  0  0  0  0  0  0  0
   -1.4700   -7.3750  -23.4720 N   0  0  0  0  0  0  0  0  0  0  0  0
   -1.5590   -6.5960  -22.2450 C   0  0  0  0  0  1  0  0  0  0  0  0
   -0.9210   -6.7430  -24.5710 C   0  0  0  0  0  0  0  0  0  0  0  0
   -0.7730   -7.3630  -25.8130 C   0  0  0  0  0  3  0  0  0  0  0  0
   -0.2450   -6.6630  -26.9020 C   0  0  0  0  0  3  0  0  0  0  0  0
    0.1180   -5.3320  -26.7400 C   0  0  0  0  0  0  0  0  0  0  0  0
   -0.0030   -4.7860  -25.4800 C   0  0  0  0  0  3  0  0  0  0  0  0
   -0.5250   -5.4530  -24.4210 N   0  0  0  0  0  0  0  0  0  0  0  0
   -2.0070   -8.7360  -23.4660 C   0  0  0  0  0  2  0  0  0  0  0  0
   -2.2230   -9.2960  -22.0500 C   0  0  0  0  0  2  0  0  0  0  0  0
   -1.8070  -11.3230  -20.8720 C   0  0  0  0  0  1  0  0  0  0  0  0
   -2.3960  -10.7130  -22.0120 O   0  0  0  0  0  0  0  0  0  0  0  0
    4.3960   -8.7050  -26.4950 C   0  0  0  0  0  2  0  0  0  0  0  0
    4.7220  -10.0950  -26.7660 N   0  0  0  0  0  0  0  0  0  0  0  0
    5.6900  -10.3630  -26.8220 H   0  0  0  0  0  0  0  0  0  0  0  0
    3.7280  -11.0590  -26.6560 C   0  0  0  0  0  0  0  0  0  0  0  0
    3.6390  -11.9560  -27.6540 N   0  0  0  0  0  0  0  0  0  0  0  0
    2.4790  -12.5960  -27.7830 C   0  0  0  0  0  3  0  0  0  0  0  0
    1.3760  -12.3420  -27.0770 N   0  0  0  0  0  0  0  0  0  0  0  0
    1.4900  -11.4950  -26.0350 C   0  0  0  0  0  0  0  0  0  0  0  0
    0.3840  -11.1250  -25.2640 C   0  0  0  0  0  0  0  0  0  0  0  0
    0.4860  -10.3730  -24.0850 C   0  0  0  0  0  3  0  0  0  0  0  0
    1.7250   -9.8970  -23.6910 C   0  0  0  0  0  3  0  0  0  0  0  0
    2.8210  -10.1150  -24.5180 C   0  0  0  0  0  3  0  0  0  0  0  0
    2.7090  -10.8960  -25.7020 C   0  0  0  0  0  0  0  0  0  0  0  0
   -0.9790  -11.3490  -25.7800 C   0  0  0  0  0  0  0  0  0  0  0  0
   -1.3220  -10.5520  -26.8410 N   0  0  0  0  0  0  0  0  0  0  0  0
   -1.7720  -12.0890  -25.2250 O   0  0  0  0  0  0  0  0  0  0  0  0
   -2.2590  -10.6190  -27.2130 H   0  0  0  0  0  0  0  0  0  0  0  0
   -0.6730   -9.9070  -27.2700 H   0  0  0  0  0  0  0  0  0  0  0  0
  1  9  1  0  0  0  0
  1  6  1  0  0  0  0
  2  1  2  0  0  0  0
  3  2  1  0  0  0  0
  3  4  2  0  0  0  0
  4  5  1  0  0  0  0
  5  6  2  0  0  0  0
  5 23  1  0  0  0  0
  7 16  1  0  0  0  0
  8  7  2  0  0  0  0
  9  7  1  0  0  0  0
 10  9  1  0  0  0  0
 11 19  1  0  0  0  0
 11 12  1  0  0  0  0
 13 18  1  0  0  0  0
 13 11  1  0  0  0  0
 14 13  2  0  0  0  0
 15 16  2  0  0  0  0
 15 14  1  0  0  0  0
 16 17  1  0  0  0  0
 17 18  2  0  0  0  0
 19 20  1  0  0  0  0
 20 22  1  0  0  0  0
 22 21  1  0  0  0  0
 24 26  1  0  0  0  0
 24 23  1  0  0  0  0
 25 24  1  0  0  0  0
 26 35  1  0  0  0  0
 27 26  2  0  0  0  0
 28 27  1  0  0  0  0
 28 29  2  0  0  0  0
 29 30  1  0  0  0  0
 30 35  2  0  0  0  0
 30 31  1  0  0  0  0
 31 32  2  0  0  0  0
 32 33  1  0  0  0  0
 34 33  2  0  0  0  0
 35 34  1  0  0  0  0
 36 31  1  0  0  0  0
 36 38  2  0  0  0  0
 37 36  1  0  0  0  0
 39 37  1  0  0  0  0
 40 37  1  0  0  0  0
M  END
>  <minimizedAffinity>
-6.64261198

$$$$
