
 OpenBabel10152419453D

 40 43  0  0  0  0  0  0  0  0999 V2000
   -1.8640   -9.2080  -22.1950 C   0  0  0  0  0  0  0  0  0  0  0  0
   -1.8890   -8.0750  -21.3790 C   0  0  0  0  0  3  0  0  0  0  0  0
   -1.6760   -6.8170  -21.9300 C   0  0  0  0  0  3  0  0  0  0  0  0
   -1.4770   -6.6880  -23.3030 C   0  0  0  0  0  3  0  0  0  0  0  0
   -1.5480   -7.7940  -24.1640 C   0  0  0  0  0  0  0  0  0  0  0  0
   -1.7400   -9.0590  -23.5850 C   0  0  0  0  0  3  0  0  0  0  0  0
   -1.5740  -11.7050  -21.9470 C   0  0  0  0  0  0  0  0  0  0  0  0
   -2.0340  -12.7070  -21.4030 O   0  0  0  0  0  0  0  0  0  0  0  0
   -1.9830  -10.4520  -21.5530 N   0  0  0  0  0  0  0  0  0  0  0  0
   -2.4380  -10.4620  -20.6460 H   0  0  0  0  0  0  0  0  0  0  0  0
    2.2960  -12.3860  -25.9900 N   0  0  0  0  0  0  0  0  0  0  0  0
    1.7670  -12.9590  -27.2200 C   0  0  0  0  0  1  0  0  0  0  0  0
    1.4060  -12.2270  -24.9460 C   0  0  0  0  0  0  0  0  0  0  0  0
    1.7700  -11.6900  -23.7090 C   0  0  0  0  0  3  0  0  0  0  0  0
    0.8180  -11.5170  -22.6990 C   0  0  0  0  0  3  0  0  0  0  0  0
   -0.5020  -11.8710  -22.9440 C   0  0  0  0  0  0  0  0  0  0  0  0
   -0.7940  -12.4420  -24.1650 C   0  0  0  0  0  3  0  0  0  0  0  0
    0.1190  -12.6030  -25.1550 N   0  0  0  0  0  0  0  0  0  0  0  0
    3.7020  -11.9790  -25.9680 C   0  0  0  0  0  2  0  0  0  0  0  0
    4.5110  -12.5300  -27.1540 C   0  0  0  0  0  2  0  0  0  0  0  0
    4.7200  -12.4590  -29.5250 C   0  0  0  0  0  1  0  0  0  0  0  0
    4.3980  -11.7430  -28.3410 O   0  0  0  0  0  0  0  0  0  0  0  0
   -1.3510   -7.6460  -25.6670 C   0  0  0  0  0  2  0  0  0  0  0  0
   -1.1790   -6.2660  -26.0860 N   0  0  0  0  0  0  0  0  0  0  0  0
   -1.8160   -5.5700  -25.7350 H   0  0  0  0  0  0  0  0  0  0  0  0
    0.0010   -5.8880  -26.7150 C   0  0  0  0  0  0  0  0  0  0  0  0
   -0.0960   -4.9550  -27.6790 N   0  0  0  0  0  0  0  0  0  0  0  0
    0.9060   -4.8900  -28.5530 C   0  0  0  0  0  3  0  0  0  0  0  0
    1.9330   -5.7390  -28.6130 N   0  0  0  0  0  0  0  0  0  0  0  0
    2.0620   -6.6260  -27.6060 C   0  0  0  0  0  0  0  0  0  0  0  0
    3.0750   -7.5900  -27.6000 C   0  0  0  0  0  0  0  0  0  0  0  0
    3.3340   -8.4240  -26.5040 C   0  0  0  0  0  3  0  0  0  0  0  0
    2.5100   -8.3610  -25.3940 C   0  0  0  0  0  3  0  0  0  0  0  0
    1.4000   -7.5230  -25.4300 C   0  0  0  0  0  3  0  0  0  0  0  0
    1.1580   -6.6670  -26.5400 C   0  0  0  0  0  0  0  0  0  0  0  0
    3.7940   -7.9070  -28.8470 C   0  0  0  0  0  0  0  0  0  0  0  0
    4.3750   -6.8250  -29.4580 N   0  0  0  0  0  0  0  0  0  0  0  0
    3.7640   -9.0150  -29.3540 O   0  0  0  0  0  0  0  0  0  0  0  0
    4.8420   -6.9640  -30.3430 H   0  0  0  0  0  0  0  0  0  0  0  0
    4.3590   -5.8990  -29.0540 H   0  0  0  0  0  0  0  0  0  0  0  0
  1  9  1  0  0  0  0
  1  2  1  0  0  0  0
  3  2  2  0  0  0  0
  4  3  1  0  0  0  0
  5  6  1  0  0  0  0
  5  4  2  0  0  0  0
  6  1  2  0  0  0  0
  7  9  1  0  0  0  0
  7  8  2  0  0  0  0
  9 10  1  0  0  0  0
 11 19  1  0  0  0  0
 11 13  1  0  0  0  0
 12 11  1  0  0  0  0
 13 14  1  0  0  0  0
 14 15  2  0  0  0  0
 16 15  1  0  0  0  0
 16  7  1  0  0  0  0
 17 16  2  0  0  0  0
 18 13  2  0  0  0  0
 18 17  1  0  0  0  0
 20 19  1  0  0  0  0
 21 22  1  0  0  0  0
 22 20  1  0  0  0  0
 23  5  1  0  0  0  0
 24 25  1  0  0  0  0
 24 23  1  0  0  0  0
 26 35  1  0  0  0  0
 26 24  1  0  0  0  0
 27 26  2  0  0  0  0
 28 27  1  0  0  0  0
 29 28  2  0  0  0  0
 29 30  1  0  0  0  0
 30 31  2  0  0  0  0
 30 35  1  0  0  0  0
 31 32  1  0  0  0  0
 32 33  2  0  0  0  0
 34 33  1  0  0  0  0
 35 34  2  0  0  0  0
 36 31  1  0  0  0  0
 37 40  1  0  0  0  0
 37 36  1  0  0  0  0
 38 36  2  0  0  0  0
 39 37  1  0  0  0  0
M  END
>  <minimizedAffinity>
-8.37601662

$$$$
