
 OpenBabel10152419453D

 40 43  0  0  0  0  0  0  0  0999 V2000
   -0.2850   -4.1210  -25.6120 C   0  0  0  0  0  0  0  0  0  0  0  0
   -0.6170   -2.8700  -26.1350 C   0  0  0  0  0  3  0  0  0  0  0  0
   -0.2590   -2.5440  -27.4380 C   0  0  0  0  0  3  0  0  0  0  0  0
    0.3950   -3.4830  -28.2310 C   0  0  0  0  0  3  0  0  0  0  0  0
    0.6520   -4.7850  -27.7710 C   0  0  0  0  0  0  0  0  0  0  0  0
    0.3040   -5.0860  -26.4430 C   0  0  0  0  0  3  0  0  0  0  0  0
   -0.9580   -5.4890  -23.5990 C   0  0  0  0  0  0  0  0  0  0  0  0
   -1.4740   -5.4260  -22.4840 O   0  0  0  0  0  0  0  0  0  0  0  0
   -0.5860   -4.3400  -24.2570 N   0  0  0  0  0  0  0  0  0  0  0  0
   -0.5250   -3.5410  -23.6360 H   0  0  0  0  0  0  0  0  0  0  0  0
   -0.0910  -10.6230  -25.7620 N   0  0  0  0  0  0  0  0  0  0  0  0
   -1.2710  -11.4780  -25.7400 C   0  0  0  0  0  1  0  0  0  0  0  0
   -0.2270   -9.3630  -25.2120 C   0  0  0  0  0  0  0  0  0  0  0  0
    0.8170   -8.4360  -25.1650 C   0  0  0  0  0  3  0  0  0  0  0  0
    0.6130   -7.1600  -24.6300 C   0  0  0  0  0  3  0  0  0  0  0  0
   -0.6470   -6.8160  -24.1590 C   0  0  0  0  0  0  0  0  0  0  0  0
   -1.6260   -7.7870  -24.1850 C   0  0  0  0  0  3  0  0  0  0  0  0
   -1.4420   -9.0230  -24.7120 N   0  0  0  0  0  0  0  0  0  0  0  0
    1.1200  -11.1370  -26.4020 C   0  0  0  0  0  2  0  0  0  0  0  0
    1.6680  -12.4070  -25.7300 C   0  0  0  0  0  2  0  0  0  0  0  0
    1.4960  -12.6980  -23.3730 C   0  0  0  0  0  1  0  0  0  0  0  0
    2.2570  -12.1720  -24.4500 O   0  0  0  0  0  0  0  0  0  0  0  0
    1.3490   -5.8160  -28.6480 C   0  0  0  0  0  2  0  0  0  0  0  0
    2.3830   -6.5570  -27.9460 N   0  0  0  0  0  0  0  0  0  0  0  0
    2.2780   -6.7160  -26.9580 H   0  0  0  0  0  0  0  0  0  0  0  0
    3.3260   -7.2670  -28.6780 C   0  0  0  0  0  0  0  0  0  0  0  0
    3.4400   -6.9590  -29.9830 N   0  0  0  0  0  0  0  0  0  0  0  0
    4.0030   -7.8750  -30.7680 C   0  0  0  0  0  3  0  0  0  0  0  0
    4.3590   -9.1030  -30.3870 N   0  0  0  0  0  0  0  0  0  0  0  0
    4.3090   -9.3810  -29.0690 C   0  0  0  0  0  0  0  0  0  0  0  0
    4.6130  -10.6530  -28.5730 C   0  0  0  0  0  0  0  0  0  0  0  0
    4.7200  -10.9380  -27.2050 C   0  0  0  0  0  3  0  0  0  0  0  0
    4.4380   -9.9460  -26.2810 C   0  0  0  0  0  3  0  0  0  0  0  0
    3.9810   -8.7140  -26.7390 C   0  0  0  0  0  3  0  0  0  0  0  0
    3.8940   -8.4300  -28.1300 C   0  0  0  0  0  0  0  0  0  0  0  0
    4.6380  -11.8100  -29.4860 C   0  0  0  0  0  0  0  0  0  0  0  0
    4.5750  -11.4850  -30.8170 N   0  0  0  0  0  0  0  0  0  0  0  0
    4.5900  -12.9590  -29.0820 O   0  0  0  0  0  0  0  0  0  0  0  0
    4.5390  -12.2330  -31.4950 H   0  0  0  0  0  0  0  0  0  0  0  0
    4.5720  -10.5290  -31.1440 H   0  0  0  0  0  0  0  0  0  0  0  0
  1  9  1  0  0  0  0
  2  1  1  0  0  0  0
  3  2  2  0  0  0  0
  4  5  2  0  0  0  0
  4  3  1  0  0  0  0
  5  6  1  0  0  0  0
  6  1  2  0  0  0  0
  7  8  2  0  0  0  0
  9 10  1  0  0  0  0
  9  7  1  0  0  0  0
 11 12  1  0  0  0  0
 11 13  1  0  0  0  0
 13 14  2  0  0  0  0
 13 18  1  0  0  0  0
 14 15  1  0  0  0  0
 15 16  2  0  0  0  0
 16  7  1  0  0  0  0
 17 16  1  0  0  0  0
 18 17  2  0  0  0  0
 19 11  1  0  0  0  0
 19 20  1  0  0  0  0
 20 22  1  0  0  0  0
 22 21  1  0  0  0  0
 23 24  1  0  0  0  0
 23  5  1  0  0  0  0
 24 25  1  0  0  0  0
 26 35  1  0  0  0  0
 26 24  1  0  0  0  0
 27 26  2  0  0  0  0
 28 29  2  0  0  0  0
 28 27  1  0  0  0  0
 29 30  1  0  0  0  0
 30 31  2  0  0  0  0
 30 35  1  0  0  0  0
 31 32  1  0  0  0  0
 32 33  2  0  0  0  0
 34 33  1  0  0  0  0
 35 34  2  0  0  0  0
 36 38  2  0  0  0  0
 36 31  1  0  0  0  0
 37 36  1  0  0  0  0
 39 37  1  0  0  0  0
 40 37  1  0  0  0  0
M  END
>  <minimizedAffinity>
-6.82383776

$$$$
