
 OpenBabel10152419103D

 37 40  0  0  0  0  0  0  0  0999 V2000
    8.2380  -14.0530   12.8460 C   0  0  0  0  0  0  0  0  0  0  0  0
    8.6380  -14.5070   11.5890 C   0  0  0  0  0  3  0  0  0  0  0  0
    9.6670  -13.8570   10.9150 C   0  0  0  0  0  3  0  0  0  0  0  0
   10.3190  -12.7800   11.5150 C   0  0  0  0  0  3  0  0  0  0  0  0
   10.0190  -12.3800   12.8270 C   0  0  0  0  0  0  0  0  0  0  0  0
    8.9710  -13.0410   13.4840 C   0  0  0  0  0  3  0  0  0  0  0  0
    5.7570  -14.3240   13.1810 C   0  0  0  0  0  0  0  0  0  0  0  0
    4.8820  -14.7510   13.9300 O   0  0  0  0  0  0  0  0  0  0  0  0
    7.0840  -14.6290   13.4040 N   0  0  0  0  0  0  0  0  0  0  0  0
    7.2060  -15.4210   14.0250 H   0  0  0  0  0  0  0  0  0  0  0  0
    4.7680  -11.9000    9.7390 C   0  0  0  0  0  0  0  0  0  0  0  0
    4.1460  -11.7170   10.9910 C   0  0  0  0  0  3  0  0  0  0  0  0
    4.4330  -12.5290   12.0980 C   0  0  0  0  0  3  0  0  0  0  0  0
    5.3660  -13.5520   11.9770 C   0  0  0  0  0  0  0  0  0  0  0  0
    5.9330  -13.8220   10.7310 C   0  0  0  0  0  3  0  0  0  0  0  0
    5.6440  -12.9950    9.6390 C   0  0  0  0  0  3  0  0  0  0  0  0
    3.5090  -10.0100    8.7400 C   0  0  0  0  0  1  0  0  0  0  0  0
    4.5320  -11.0470    8.6670 N   0  0  0  0  0  0  0  0  0  0  0  0
    5.1610  -11.2790    7.3720 C   0  0  0  0  0  1  0  0  0  0  0  0
   10.7460  -11.2260   13.5010 C   0  0  0  0  0  2  0  0  0  0  0  0
    9.8320  -10.1760   13.9230 N   0  0  0  0  0  0  0  0  0  0  0  0
   10.0870   -9.6030   14.7100 H   0  0  0  0  0  0  0  0  0  0  0  0
    8.8440   -9.7660   13.0400 C   0  0  0  0  0  0  0  0  0  0  0  0
    7.5730  -10.0170   13.4030 N   0  0  0  0  0  0  0  0  0  0  0  0
    6.6500   -9.9530   12.4470 C   0  0  0  0  0  3  0  0  0  0  0  0
    6.8910   -9.7550   11.1490 N   0  0  0  0  0  0  0  0  0  0  0  0
    8.1550   -9.4610   10.7890 C   0  0  0  0  0  0  0  0  0  0  0  0
    8.5090   -9.2850    9.4480 C   0  0  0  0  0  0  0  0  0  0  0  0
    9.7890   -8.8870    9.0370 C   0  0  0  0  0  3  0  0  0  0  0  0
   10.7820   -8.7130    9.9860 C   0  0  0  0  0  3  0  0  0  0  0  0
   10.4930   -8.9850   11.3210 C   0  0  0  0  0  3  0  0  0  0  0  0
    9.1880   -9.3700   11.7330 C   0  0  0  0  0  0  0  0  0  0  0  0
    7.5670   -9.6580    8.3780 C   0  0  0  0  0  0  0  0  0  0  0  0
    6.4000   -8.9410    8.3630 N   0  0  0  0  0  0  0  0  0  0  0  0
    7.7680  -10.6100    7.6420 O   0  0  0  0  0  0  0  0  0  0  0  0
    5.7000   -9.1790    7.6740 H   0  0  0  0  0  0  0  0  0  0  0  0
    6.2230   -8.1730    8.9950 H   0  0  0  0  0  0  0  0  0  0  0  0
  1  9  1  0  0  0  0
  1  6  1  0  0  0  0
  2  1  2  0  0  0  0
  3  4  2  0  0  0  0
  3  2  1  0  0  0  0
  4  5  1  0  0  0  0
  5  6  2  0  0  0  0
  5 20  1  0  0  0  0
  7  9  1  0  0  0  0
  7  8  2  0  0  0  0
  9 10  1  0  0  0  0
 11 12  1  0  0  0  0
 12 13  2  0  0  0  0
 14 13  1  0  0  0  0
 14  7  1  0  0  0  0
 15 14  2  0  0  0  0
 16 11  2  0  0  0  0
 16 15  1  0  0  0  0
 18 17  1  0  0  0  0
 18 11  1  0  0  0  0
 19 18  1  0  0  0  0
 20 21  1  0  0  0  0
 21 22  1  0  0  0  0
 23 24  1  0  0  0  0
 23 21  1  0  0  0  0
 25 24  2  0  0  0  0
 26 25  1  0  0  0  0
 27 26  2  0  0  0  0
 27 32  1  0  0  0  0
 28 27  1  0  0  0  0
 29 28  2  0  0  0  0
 29 30  1  0  0  0  0
 30 31  2  0  0  0  0
 31 32  1  0  0  0  0
 32 23  2  0  0  0  0
 33 28  1  0  0  0  0
 34 33  1  0  0  0  0
 34 37  1  0  0  0  0
 35 33  2  0  0  0  0
 36 34  1  0  0  0  0
M  END
>  <minimizedAffinity>
11.7342653

$$$$
