
 OpenBabel10152419103D

 37 40  0  0  0  0  0  0  0  0999 V2000
    8.2380  -14.0530   12.8460 C   0  0  0  0  0  0  0  0  0  0  0  0
    8.6380  -14.5070   11.5890 C   0  0  0  0  0  3  0  0  0  0  0  0
    9.6670  -13.8570   10.9150 C   0  0  0  0  0  3  0  0  0  0  0  0
   10.3190  -12.7800   11.5150 C   0  0  0  0  0  3  0  0  0  0  0  0
   10.0190  -12.3800   12.8270 C   0  0  0  0  0  0  0  0  0  0  0  0
    8.9710  -13.0410   13.4840 C   0  0  0  0  0  3  0  0  0  0  0  0
    5.7570  -14.3240   13.1810 C   0  0  0  0  0  0  0  0  0  0  0  0
    4.8820  -14.7510   13.9300 O   0  0  0  0  0  0  0  0  0  0  0  0
    7.0840  -14.6290   13.4040 N   0  0  0  0  0  0  0  0  0  0  0  0
    7.2060  -15.4210   14.0250 H   0  0  0  0  0  0  0  0  0  0  0  0
    4.7680  -11.9000    9.7390 C   0  0  0  0  0  0  0  0  0  0  0  0
    4.1460  -11.7170   10.9910 C   0  0  0  0  0  3  0  0  0  0  0  0
    4.4330  -12.5290   12.0980 C   0  0  0  0  0  3  0  0  0  0  0  0
    5.3660  -13.5520   11.9770 C   0  0  0  0  0  0  0  0  0  0  0  0
    5.9330  -13.8220   10.7310 C   0  0  0  0  0  3  0  0  0  0  0  0
    5.6440  -12.9950    9.6390 C   0  0  0  0  0  3  0  0  0  0  0  0
    3.5090  -10.0100    8.7400 C   0  0  0  0  0  1  0  0  0  0  0  0
    4.5320  -11.0470    8.6670 N   0  0  0  0  0  0  0  0  0  0  0  0
    5.1610  -11.2790    7.3720 C   0  0  0  0  0  1  0  0  0  0  0  0
   10.7460  -11.2260   13.5010 C   0  0  0  0  0  2  0  0  0  0  0  0
    9.8320  -10.1760   13.9230 N   0  0  0  0  0  0  0  0  0  0  0  0
   10.0870   -9.6030   14.7100 H   0  0  0  0  0  0  0  0  0  0  0  0
    8.8440   -9.7660   13.0400 C   0  0  0  0  0  0  0  0  0  0  0  0
    7.5730  -10.0170   13.4030 N   0  0  0  0  0  0  0  0  0  0  0  0
    6.6500   -9.9530   12.4470 C   0  0  0  0  0  3  0  0  0  0  0  0
    6.8910   -9.7550   11.1490 N   0  0  0  0  0  0  0  0  0  0  0  0
    8.1550   -9.4610   10.7890 C   0  0  0  0  0  0  0  0  0  0  0  0
    8.5090   -9.2850    9.4480 C   0  0  0  0  0  0  0  0  0  0  0  0
    9.7890   -8.8870    9.0370 C   0  0  0  0  0  3  0  0  0  0  0  0
   10.7820   -8.7130    9.9860 C   0  0  0  0  0  3  0  0  0  0  0  0
   10.4930   -8.9850   11.3210 C   0  0  0  0  0  3  0  0  0  0  0  0
    9.1880   -9.3700   11.7330 C   0  0  0  0  0  0  0  0  0  0  0  0
    7.5670   -9.6580    8.3780 C   0  0  0  0  0  0  0  0  0  0  0  0
    6.4000   -8.9410    8.3630 N   0  0  0  0  0  0  0  0  0  0  0  0
    7.7680  -10.6100    7.6420 O   0  0  0  0  0  0  0  0  0  0  0  0
    5.7000   -9.1790    7.6740 H   0  0  0  0  0  0  0  0  0  0  0  0
    6.2230   -8.1730    8.9950 H   0  0  0  0  0  0  0  0  0  0  0  0
  1  9  1  0  0  0  0
  1  6  1  0  0  0  0
  2  1  2  0  0  0  0
  3  4  2  0  0  0  0
  3  2  1  0  0  0  0
  4  5  1  0  0  0  0
  5  6  2  0  0  0  0
  5 20  1  0  0  0  0
  7  9  1  0  0  0  0
  7  8  2  0  0  0  0
  9 10  1  0  0  0  0
 11 12  1  0  0  0  0
 12 13  2  0  0  0  0
 14 13  1  0  0  0  0
 14  7  1  0  0  0  0
 15 14  2  0  0  0  0
 16 11  2  0  0  0  0
 16 15  1  0  0  0  0
 18 17  1  0  0  0  0
 18 11  1  0  0  0  0
 19 18  1  0  0  0  0
 20 21  1  0  0  0  0
 21 22  1  0  0  0  0
 23 24  1  0  0  0  0
 23 21  1  0  0  0  0
 25 24  2  0  0  0  0
 26 25  1  0  0  0  0
 27 26  2  0  0  0  0
 27 32  1  0  0  0  0
 28 27  1  0  0  0  0
 29 28  2  0  0  0  0
 29 30  1  0  0  0  0
 30 31  2  0  0  0  0
 31 32  1  0  0  0  0
 32 23  2  0  0  0  0
 33 28  1  0  0  0  0
 34 33  1  0  0  0  0
 34 37  1  0  0  0  0
 35 33  2  0  0  0  0
 36 34  1  0  0  0  0
M  END
>  <minimizedAffinity>
11.7342653

$$$$

 OpenBabel10152419103D

 37 40  0  0  0  0  0  0  0  0999 V2000
    9.9470  -11.3990   13.3170 C   0  0  0  0  0  0  0  0  0  0  0  0
   10.7160  -10.2440   13.1620 C   0  0  0  0  0  3  0  0  0  0  0  0
   10.1000   -8.9970   13.1790 C   0  0  0  0  0  3  0  0  0  0  0  0
    8.7240   -8.9040   13.3890 C   0  0  0  0  0  3  0  0  0  0  0  0
    7.9470  -10.0390   13.6680 C   0  0  0  0  0  0  0  0  0  0  0  0
    8.5860  -11.2880   13.6350 C   0  0  0  0  0  3  0  0  0  0  0  0
   10.0520  -13.9050   13.0920 C   0  0  0  0  0  0  0  0  0  0  0  0
   10.7810  -14.8920   13.1510 O   0  0  0  0  0  0  0  0  0  0  0  0
   10.5880  -12.6330   13.1160 N   0  0  0  0  0  0  0  0  0  0  0  0
   11.5790  -12.6200   12.9040 H   0  0  0  0  0  0  0  0  0  0  0  0
    5.7650  -14.2470   12.6510 C   0  0  0  0  0  0  0  0  0  0  0  0
    6.4400  -14.7010   13.8010 C   0  0  0  0  0  3  0  0  0  0  0  0
    7.8350  -14.6310   13.9300 C   0  0  0  0  0  3  0  0  0  0  0  0
    8.5940  -14.0910   12.8990 C   0  0  0  0  0  0  0  0  0  0  0  0
    7.9700  -13.7170   11.7080 C   0  0  0  0  0  3  0  0  0  0  0  0
    6.5760  -13.7830   11.6000 C   0  0  0  0  0  3  0  0  0  0  0  0
    3.5430  -14.2570   13.7560 C   0  0  0  0  0  1  0  0  0  0  0  0
    4.3770  -14.2530   12.5590 N   0  0  0  0  0  0  0  0  0  0  0  0
    3.7110  -14.4470   11.2770 C   0  0  0  0  0  1  0  0  0  0  0  0
    6.4510   -9.9450   13.9290 C   0  0  0  0  0  2  0  0  0  0  0  0
    5.7000  -10.9290   13.1670 N   0  0  0  0  0  0  0  0  0  0  0  0
    5.2500  -11.6810   13.6610 H   0  0  0  0  0  0  0  0  0  0  0  0
    5.3260  -10.6140   11.8680 C   0  0  0  0  0  0  0  0  0  0  0  0
    4.1860  -11.1700   11.4210 N   0  0  0  0  0  0  0  0  0  0  0  0
    3.9900  -11.1680   10.1050 C   0  0  0  0  0  3  0  0  0  0  0  0
    4.8690  -10.7480    9.1920 N   0  0  0  0  0  0  0  0  0  0  0  0
    5.9920  -10.1520    9.6370 C   0  0  0  0  0  0  0  0  0  0  0  0
    6.9890   -9.7250    8.7550 C   0  0  0  0  0  0  0  0  0  0  0  0
    8.1280   -9.0190    9.1670 C   0  0  0  0  0  3  0  0  0  0  0  0
    8.3230   -8.7750   10.5160 C   0  0  0  0  0  3  0  0  0  0  0  0
    7.4050   -9.2810   11.4320 C   0  0  0  0  0  3  0  0  0  0  0  0
    6.2420   -9.9800   11.0060 C   0  0  0  0  0  0  0  0  0  0  0  0
    6.9520  -10.1350    7.3400 C   0  0  0  0  0  0  0  0  0  0  0  0
    5.8610  -10.8840    6.9870 N   0  0  0  0  0  0  0  0  0  0  0  0
    7.8810   -9.9200    6.5800 O   0  0  0  0  0  0  0  0  0  0  0  0
    5.8010  -11.2250    6.0380 H   0  0  0  0  0  0  0  0  0  0  0  0
    5.1080  -11.0880    7.6290 H   0  0  0  0  0  0  0  0  0  0  0  0
  1  6  1  0  0  0  0
  2  3  1  0  0  0  0
  2  1  2  0  0  0  0
  3  4  2  0  0  0  0
  4  5  1  0  0  0  0
  5 20  1  0  0  0  0
  6  5  2  0  0  0  0
  7  9  1  0  0  0  0
  7  8  2  0  0  0  0
  9  1  1  0  0  0  0
 10  9  1  0  0  0  0
 11 12  1  0  0  0  0
 12 13  2  0  0  0  0
 14  7  1  0  0  0  0
 14 13  1  0  0  0  0
 15 14  2  0  0  0  0
 16 15  1  0  0  0  0
 16 11  2  0  0  0  0
 18 11  1  0  0  0  0
 18 17  1  0  0  0  0
 19 18  1  0  0  0  0
 21 22  1  0  0  0  0
 21 20  1  0  0  0  0
 23 21  1  0  0  0  0
 24 23  1  0  0  0  0
 25 24  2  0  0  0  0
 26 27  2  0  0  0  0
 26 25  1  0  0  0  0
 27 32  1  0  0  0  0
 28 29  2  0  0  0  0
 28 27  1  0  0  0  0
 29 30  1  0  0  0  0
 30 31  2  0  0  0  0
 32 31  1  0  0  0  0
 32 23  2  0  0  0  0
 33 28  1  0  0  0  0
 34 33  1  0  0  0  0
 34 37  1  0  0  0  0
 35 33  2  0  0  0  0
 36 34  1  0  0  0  0
M  END
>  <minimizedAffinity>
12.6263094

$$$$

 OpenBabel10152419103D

 37 40  0  0  0  0  0  0  0  0999 V2000
    8.4290  -14.1940   13.4020 C   0  0  0  0  0  0  0  0  0  0  0  0
    9.1200  -14.9100   12.4240 C   0  0  0  0  0  3  0  0  0  0  0  0
   10.2850  -14.3820   11.8760 C   0  0  0  0  0  3  0  0  0  0  0  0
   10.7770  -13.1600   12.3340 C   0  0  0  0  0  3  0  0  0  0  0  0
   10.1690  -12.4790   13.4000 C   0  0  0  0  0  0  0  0  0  0  0  0
    8.9890  -13.0220   13.9300 C   0  0  0  0  0  3  0  0  0  0  0  0
    5.9210  -14.3980   13.2820 C   0  0  0  0  0  0  0  0  0  0  0  0
    4.9060  -14.7190   13.8940 O   0  0  0  0  0  0  0  0  0  0  0  0
    7.1710  -14.6840   13.7930 N   0  0  0  0  0  0  0  0  0  0  0  0
    7.1460  -15.3910   14.5190 H   0  0  0  0  0  0  0  0  0  0  0  0
    5.6500  -12.4060    9.4540 C   0  0  0  0  0  0  0  0  0  0  0  0
    4.6830  -12.2290   10.4630 C   0  0  0  0  0  3  0  0  0  0  0  0
    4.7440  -12.9060   11.6900 C   0  0  0  0  0  3  0  0  0  0  0  0
    5.7930  -13.7820   11.9390 C   0  0  0  0  0  0  0  0  0  0  0  0
    6.7180  -14.0530   10.9300 C   0  0  0  0  0  3  0  0  0  0  0  0
    6.6490  -13.3600    9.7150 C   0  0  0  0  0  3  0  0  0  0  0  0
    4.3590  -11.3290    7.6290 C   0  0  0  0  0  1  0  0  0  0  0  0
    5.6220  -11.6770    8.2690 N   0  0  0  0  0  0  0  0  0  0  0  0
    6.8480  -11.4030    7.5290 C   0  0  0  0  0  1  0  0  0  0  0  0
   10.7160  -11.1600   13.9270 C   0  0  0  0  0  2  0  0  0  0  0  0
   10.3190  -10.0340   13.0970 N   0  0  0  0  0  0  0  0  0  0  0  0
   10.6270   -9.1110   13.3570 H   0  0  0  0  0  0  0  0  0  0  0  0
    9.8560  -10.2880   11.8140 C   0  0  0  0  0  0  0  0  0  0  0  0
   10.7890  -10.4050   10.8520 N   0  0  0  0  0  0  0  0  0  0  0  0
   10.3720  -10.3030    9.5930 C   0  0  0  0  0  3  0  0  0  0  0  0
    9.1290  -10.0030    9.2110 N   0  0  0  0  0  0  0  0  0  0  0  0
    8.1850   -9.9270   10.1680 C   0  0  0  0  0  0  0  0  0  0  0  0
    6.8670   -9.5720    9.8670 C   0  0  0  0  0  0  0  0  0  0  0  0
    5.8350   -9.5720   10.8140 C   0  0  0  0  0  3  0  0  0  0  0  0
    6.1250   -9.8790   12.1330 C   0  0  0  0  0  3  0  0  0  0  0  0
    7.4470  -10.1320   12.4900 C   0  0  0  0  0  3  0  0  0  0  0  0
    8.4860  -10.1490   11.5200 C   0  0  0  0  0  0  0  0  0  0  0  0
    6.5320   -9.0300    8.5370 C   0  0  0  0  0  0  0  0  0  0  0  0
    7.6090   -8.7910    7.7250 N   0  0  0  0  0  0  0  0  0  0  0  0
    5.3930   -8.7140    8.2360 O   0  0  0  0  0  0  0  0  0  0  0  0
    7.4430   -8.3840    6.8160 H   0  0  0  0  0  0  0  0  0  0  0  0
    8.5550   -9.0250    7.9910 H   0  0  0  0  0  0  0  0  0  0  0  0
  1  9  1  0  0  0  0
  1  6  1  0  0  0  0
  2  1  2  0  0  0  0
  3  4  2  0  0  0  0
  3  2  1  0  0  0  0
  4  5  1  0  0  0  0
  5 20  1  0  0  0  0
  5  6  2  0  0  0  0
  7  9  1  0  0  0  0
  7  8  2  0  0  0  0
  9 10  1  0  0  0  0
 11 16  2  0  0  0  0
 11 12  1  0  0  0  0
 12 13  2  0  0  0  0
 13 14  1  0  0  0  0
 14  7  1  0  0  0  0
 15 14  2  0  0  0  0
 16 15  1  0  0  0  0
 17 18  1  0  0  0  0
 18 11  1  0  0  0  0
 19 18  1  0  0  0  0
 21 22  1  0  0  0  0
 21 20  1  0  0  0  0
 23 21  1  0  0  0  0
 24 23  2  0  0  0  0
 25 24  1  0  0  0  0
 26 25  2  0  0  0  0
 26 27  1  0  0  0  0
 27 32  1  0  0  0  0
 28 27  2  0  0  0  0
 28 29  1  0  0  0  0
 29 30  2  0  0  0  0
 30 31  1  0  0  0  0
 32 23  1  0  0  0  0
 32 31  2  0  0  0  0
 33 28  1  0  0  0  0
 34 37  1  0  0  0  0
 34 33  1  0  0  0  0
 35 33  2  0  0  0  0
 36 34  1  0  0  0  0
M  END
>  <minimizedAffinity>
13.7565203

$$$$
