
 OpenBabel10152419103D

 37 40  0  0  0  0  0  0  0  0999 V2000
    8.4290  -14.1940   13.4020 C   0  0  0  0  0  0  0  0  0  0  0  0
    9.1200  -14.9100   12.4240 C   0  0  0  0  0  3  0  0  0  0  0  0
   10.2850  -14.3820   11.8760 C   0  0  0  0  0  3  0  0  0  0  0  0
   10.7770  -13.1600   12.3340 C   0  0  0  0  0  3  0  0  0  0  0  0
   10.1690  -12.4790   13.4000 C   0  0  0  0  0  0  0  0  0  0  0  0
    8.9890  -13.0220   13.9300 C   0  0  0  0  0  3  0  0  0  0  0  0
    5.9210  -14.3980   13.2820 C   0  0  0  0  0  0  0  0  0  0  0  0
    4.9060  -14.7190   13.8940 O   0  0  0  0  0  0  0  0  0  0  0  0
    7.1710  -14.6840   13.7930 N   0  0  0  0  0  0  0  0  0  0  0  0
    7.1460  -15.3910   14.5190 H   0  0  0  0  0  0  0  0  0  0  0  0
    5.6500  -12.4060    9.4540 C   0  0  0  0  0  0  0  0  0  0  0  0
    4.6830  -12.2290   10.4630 C   0  0  0  0  0  3  0  0  0  0  0  0
    4.7440  -12.9060   11.6900 C   0  0  0  0  0  3  0  0  0  0  0  0
    5.7930  -13.7820   11.9390 C   0  0  0  0  0  0  0  0  0  0  0  0
    6.7180  -14.0530   10.9300 C   0  0  0  0  0  3  0  0  0  0  0  0
    6.6490  -13.3600    9.7150 C   0  0  0  0  0  3  0  0  0  0  0  0
    4.3590  -11.3290    7.6290 C   0  0  0  0  0  1  0  0  0  0  0  0
    5.6220  -11.6770    8.2690 N   0  0  0  0  0  0  0  0  0  0  0  0
    6.8480  -11.4030    7.5290 C   0  0  0  0  0  1  0  0  0  0  0  0
   10.7160  -11.1600   13.9270 C   0  0  0  0  0  2  0  0  0  0  0  0
   10.3190  -10.0340   13.0970 N   0  0  0  0  0  0  0  0  0  0  0  0
   10.6270   -9.1110   13.3570 H   0  0  0  0  0  0  0  0  0  0  0  0
    9.8560  -10.2880   11.8140 C   0  0  0  0  0  0  0  0  0  0  0  0
   10.7890  -10.4050   10.8520 N   0  0  0  0  0  0  0  0  0  0  0  0
   10.3720  -10.3030    9.5930 C   0  0  0  0  0  3  0  0  0  0  0  0
    9.1290  -10.0030    9.2110 N   0  0  0  0  0  0  0  0  0  0  0  0
    8.1850   -9.9270   10.1680 C   0  0  0  0  0  0  0  0  0  0  0  0
    6.8670   -9.5720    9.8670 C   0  0  0  0  0  0  0  0  0  0  0  0
    5.8350   -9.5720   10.8140 C   0  0  0  0  0  3  0  0  0  0  0  0
    6.1250   -9.8790   12.1330 C   0  0  0  0  0  3  0  0  0  0  0  0
    7.4470  -10.1320   12.4900 C   0  0  0  0  0  3  0  0  0  0  0  0
    8.4860  -10.1490   11.5200 C   0  0  0  0  0  0  0  0  0  0  0  0
    6.5320   -9.0300    8.5370 C   0  0  0  0  0  0  0  0  0  0  0  0
    7.6090   -8.7910    7.7250 N   0  0  0  0  0  0  0  0  0  0  0  0
    5.3930   -8.7140    8.2360 O   0  0  0  0  0  0  0  0  0  0  0  0
    7.4430   -8.3840    6.8160 H   0  0  0  0  0  0  0  0  0  0  0  0
    8.5550   -9.0250    7.9910 H   0  0  0  0  0  0  0  0  0  0  0  0
  1  9  1  0  0  0  0
  1  6  1  0  0  0  0
  2  1  2  0  0  0  0
  3  4  2  0  0  0  0
  3  2  1  0  0  0  0
  4  5  1  0  0  0  0
  5 20  1  0  0  0  0
  5  6  2  0  0  0  0
  7  9  1  0  0  0  0
  7  8  2  0  0  0  0
  9 10  1  0  0  0  0
 11 16  2  0  0  0  0
 11 12  1  0  0  0  0
 12 13  2  0  0  0  0
 13 14  1  0  0  0  0
 14  7  1  0  0  0  0
 15 14  2  0  0  0  0
 16 15  1  0  0  0  0
 17 18  1  0  0  0  0
 18 11  1  0  0  0  0
 19 18  1  0  0  0  0
 21 22  1  0  0  0  0
 21 20  1  0  0  0  0
 23 21  1  0  0  0  0
 24 23  2  0  0  0  0
 25 24  1  0  0  0  0
 26 25  2  0  0  0  0
 26 27  1  0  0  0  0
 27 32  1  0  0  0  0
 28 27  2  0  0  0  0
 28 29  1  0  0  0  0
 29 30  2  0  0  0  0
 30 31  1  0  0  0  0
 32 23  1  0  0  0  0
 32 31  2  0  0  0  0
 33 28  1  0  0  0  0
 34 37  1  0  0  0  0
 34 33  1  0  0  0  0
 35 33  2  0  0  0  0
 36 34  1  0  0  0  0
M  END
>  <minimizedAffinity>
13.7565203

$$$$
