
 OpenBabel11232418543D

 40 46  0  0  1  0  0  0  0  0999 V2000
    7.3870   -1.7450   11.6570 C   0  0  0  0  0  0  0  0  0  0  0  0
    7.1440   -0.3660   11.5790 C   0  0  0  0  0  3  0  0  0  0  0  0
    6.5480    0.1950   10.4460 C   0  0  0  0  0  3  0  0  0  0  0  0
    6.2030   -0.6140    9.3680 C   0  0  0  0  0  3  0  0  0  0  0  0
    6.4690   -1.9790    9.4200 C   0  0  0  0  0  0  0  0  0  0  0  0
    7.0500   -2.5620   10.5620 C   0  0  0  0  0  0  0  0  0  0  0  0
    7.2150   -4.0070   10.5290 C   0  0  0  0  0  0  0  0  0  0  0  0
    7.4950   -4.8670   11.4820 N   0  0  0  0  0  0  0  0  0  0  0  0
    7.4760   -6.1230   10.9020 C   0  0  0  0  0  0  0  0  0  0  0  0
    7.1920   -6.0210    9.5430 C   0  0  0  0  0  0  0  0  0  0  0  0
    7.0260   -4.6680    9.3470 N   0  0  0  0  0  0  0  0  0  0  0  0
    6.7690   -3.9520    8.1140 C   0  0  0  0  0  2  0  0  0  0  0  0
    6.0690   -2.7150    8.3300 O   0  0  0  0  0  0  0  0  0  0  0  0
    7.0360   -6.9930    8.4720 C   0  0  0  0  0  0  0  0  0  0  0  0
    6.6650   -8.3110    8.7650 C   0  0  0  0  0  3  0  0  0  0  0  0
    6.5280   -9.2450    7.7370 C   0  0  0  0  0  3  0  0  0  0  0  0
    6.7610   -8.8670    6.4150 C   0  0  0  0  0  3  0  0  0  0  0  0
    7.1330   -7.5570    6.1180 C   0  0  0  0  0  3  0  0  0  0  0  0
    7.2730   -6.6210    7.1430 C   0  0  0  0  0  3  0  0  0  0  0  0
    7.7180   -7.3120   11.7180 C   0  0  0  0  0  0  0  0  0  0  0  0
    6.7450   -7.9390   12.4960 C   0  0  0  0  0  3  0  0  0  0  0  0
    7.0580   -9.0600   13.2800 C   0  0  0  0  0  3  0  0  0  0  0  0
    8.3520   -9.6230   13.3170 C   0  0  0  0  0  0  0  0  0  0  0  0
    9.3110   -8.9950   12.5020 C   0  0  0  0  0  3  0  0  0  0  0  0
    9.0030   -7.8680   11.7280 C   0  0  0  0  0  3  0  0  0  0  0  0
    8.6810  -10.9030   14.1980 C   0  0  1  0  0  0  0  0  0  0  0  0
    7.6630  -11.3730   15.2650 C   0  0  0  0  0  2  0  0  0  0  0  0
    7.7530  -12.8440   14.7370 C   0  0  1  0  0  0  0  0  0  0  0  0
    8.5660  -12.2900   13.5210 C   0  0  0  0  0  2  0  0  0  0  0  0
   10.0240  -10.6690   14.7810 N   0  0  0  0  0  4  0  0  0  0  0  0
   10.7270  -10.5150   14.0470 H   0  0  0  0  0  0  0  0  0  0  0  0
   10.0270   -9.8180   15.3600 H   0  0  0  0  0  0  0  0  0  0  0  0
   10.3550  -11.4430   15.3680 H   0  0  0  0  0  0  0  0  0  0  0  0
    8.4450  -13.8760   15.6370 C   0  0  0  0  0  3  0  0  0  0  0  0
    9.1170  -15.1500   15.1920 C   0  0  0  0  0  2  0  0  0  0  0  0
    9.9270  -14.0620   15.8320 C   0  0  0  0  0  2  0  0  0  0  0  0
    6.4570  -13.3560   14.3340 O   0  0  0  0  0  0  0  0  0  0  0  0
    6.0180  -12.6860   13.7820 H   0  0  0  0  0  0  0  0  0  0  0  0
    8.0390   -1.5900   13.9410 C   0  0  0  0  0  1  0  0  0  0  0  0
    7.9780   -2.3450   12.7370 O   0  0  0  0  0  0  0  0  0  0  0  0
  1 40  1  0  0  0  0
  2  1  1  0  0  0  0
  3  2  2  0  0  0  0
  4  5  2  0  0  0  0
  4  3  1  0  0  0  0
  5  6  1  0  0  0  0
  6  1  2  0  0  0  0
  7  6  1  0  0  0  0
  7  8  2  0  0  0  0
  9  8  1  0  0  0  0
  9 20  1  0  0  0  0
 10  9  2  0  0  0  0
 11 10  1  0  0  0  0
 11  7  1  0  0  0  0
 12 13  1  0  0  0  0
 12 11  1  0  0  0  0
 13  5  1  0  0  0  0
 14 15  1  0  0  0  0
 14 10  1  0  0  0  0
 16 15  2  0  0  0  0
 17 16  1  0  0  0  0
 18 17  2  0  0  0  0
 18 19  1  0  0  0  0
 19 14  2  0  0  0  0
 20 25  2  0  0  0  0
 20 21  1  0  0  0  0
 21 22  2  0  0  0  0
 22 23  1  0  0  0  0
 23 26  1  0  0  0  0
 24 23  2  0  0  0  0
 25 24  1  0  0  0  0
 26 30  1  1  0  0  0
 26 27  1  0  0  0  0
 28 37  1  6  0  0  0
 28 27  1  0  0  0  0
 28 34  1  0  0  0  0
 29 26  1  0  0  0  0
 29 28  1  0  0  0  0
 30 32  1  0  0  0  0
 30 33  1  0  0  0  0
 31 30  1  0  0  0  0
 34 36  1  0  0  0  0
 35 34  1  0  0  0  0
 35 36  1  0  0  0  0
 38 37  1  0  0  0  0
 40 39  1  0  0  0  0
M  END
>  <minimizedAffinity>
-11.3344374

$$$$
