
 OpenBabel11232418543D

 40 46  0  0  1  0  0  0  0  0999 V2000
    5.8470   -4.9530    6.3970 C   0  0  0  0  0  0  0  0  0  0  0  0
    5.5660   -4.7510    5.0370 C   0  0  0  0  0  3  0  0  0  0  0  0
    5.5960   -3.4680    4.4820 C   0  0  0  0  0  3  0  0  0  0  0  0
    5.8890   -2.3690    5.2830 C   0  0  0  0  0  3  0  0  0  0  0  0
    6.1360   -2.5540    6.6410 C   0  0  0  0  0  0  0  0  0  0  0  0
    6.1300   -3.8410    7.2100 C   0  0  0  0  0  0  0  0  0  0  0  0
    6.4730   -3.9170    8.6220 C   0  0  0  0  0  0  0  0  0  0  0  0
    6.7810   -4.9430    9.3820 N   0  0  0  0  0  0  0  0  0  0  0  0
    7.0720   -4.4350   10.6360 C   0  0  0  0  0  0  0  0  0  0  0  0
    6.9180   -3.0520   10.6420 C   0  0  0  0  0  0  0  0  0  0  0  0
    6.5450   -2.7610    9.3490 N   0  0  0  0  0  0  0  0  0  0  0  0
    6.1890   -1.4820    8.7710 C   0  0  0  0  0  2  0  0  0  0  0  0
    6.4500   -1.4240    7.3570 O   0  0  0  0  0  0  0  0  0  0  0  0
    7.0990   -2.0240   11.6550 C   0  0  0  0  0  0  0  0  0  0  0  0
    7.7240   -0.8140   11.3290 C   0  0  0  0  0  3  0  0  0  0  0  0
    7.9070    0.1660   12.3050 C   0  0  0  0  0  3  0  0  0  0  0  0
    7.4660   -0.0570   13.6090 C   0  0  0  0  0  3  0  0  0  0  0  0
    6.8450   -1.2600   13.9410 C   0  0  0  0  0  3  0  0  0  0  0  0
    6.6630   -2.2430   12.9680 C   0  0  0  0  0  3  0  0  0  0  0  0
    7.4910   -5.3320   11.7130 C   0  0  0  0  0  0  0  0  0  0  0  0
    6.6180   -6.1350   12.4470 C   0  0  0  0  0  3  0  0  0  0  0  0
    7.0880   -6.9480   13.4890 C   0  0  0  0  0  3  0  0  0  0  0  0
    8.4530   -7.0160   13.8430 C   0  0  0  0  0  0  0  0  0  0  0  0
    9.3200   -6.2240   13.0690 C   0  0  0  0  0  3  0  0  0  0  0  0
    8.8510   -5.4000   12.0370 C   0  0  0  0  0  3  0  0  0  0  0  0
    8.9660   -7.9580   15.0150 C   0  0  1  0  0  0  0  0  0  0  0  0
   10.3510   -8.6390   14.8910 C   0  0  0  0  0  2  0  0  0  0  0  0
   10.7360   -8.1700   16.3330 C   0  0  1  0  0  0  0  0  0  0  0  0
    9.4490   -7.2820   16.3200 C   0  0  0  0  0  2  0  0  0  0  0  0
    7.8850   -8.9430   15.2550 N   0  0  0  0  0  4  0  0  0  0  0  0
    7.0020   -8.4760   15.4950 H   0  0  0  0  0  0  0  0  0  0  0  0
    7.6940   -9.4910   14.4050 H   0  0  0  0  0  0  0  0  0  0  0  0
    8.0970   -9.6070   16.0080 H   0  0  0  0  0  0  0  0  0  0  0  0
   10.8390   -9.2480   17.4210 C   0  0  0  0  0  3  0  0  0  0  0  0
   11.6890  -10.4920   17.3780 C   0  0  0  0  0  2  0  0  0  0  0  0
   11.9600   -9.4370   18.4090 C   0  0  0  0  0  2  0  0  0  0  0  0
   11.9460   -7.3710   16.3390 O   0  0  0  0  0  0  0  0  0  0  0  0
   11.8810   -6.7050   15.6320 H   0  0  0  0  0  0  0  0  0  0  0  0
    6.4730   -7.2480    6.3100 C   0  0  0  0  0  1  0  0  0  0  0  0
    5.8210   -6.1860    6.9950 O   0  0  0  0  0  0  0  0  0  0  0  0
  1 40  1  0  0  0  0
  1  6  1  0  0  0  0
  2  1  2  0  0  0  0
  3  2  1  0  0  0  0
  3  4  2  0  0  0  0
  4  5  1  0  0  0  0
  5  6  2  0  0  0  0
  5 13  1  0  0  0  0
  6  7  1  0  0  0  0
  7 11  1  0  0  0  0
  7  8  2  0  0  0  0
  8  9  1  0  0  0  0
  9 10  2  0  0  0  0
  9 20  1  0  0  0  0
 10 14  1  0  0  0  0
 11 10  1  0  0  0  0
 12 11  1  0  0  0  0
 13 12  1  0  0  0  0
 14 19  1  0  0  0  0
 15 14  2  0  0  0  0
 15 16  1  0  0  0  0
 16 17  2  0  0  0  0
 17 18  1  0  0  0  0
 19 18  2  0  0  0  0
 20 25  2  0  0  0  0
 20 21  1  0  0  0  0
 21 22  2  0  0  0  0
 22 23  1  0  0  0  0
 23 26  1  0  0  0  0
 24 23  2  0  0  0  0
 25 24  1  0  0  0  0
 26 30  1  1  0  0  0
 26 29  1  0  0  0  0
 27 26  1  0  0  0  0
 27 28  1  0  0  0  0
 28 37  1  6  0  0  0
 28 34  1  0  0  0  0
 29 28  1  0  0  0  0
 30 31  1  0  0  0  0
 30 33  1  0  0  0  0
 32 30  1  0  0  0  0
 34 36  1  0  0  0  0
 35 34  1  0  0  0  0
 35 36  1  0  0  0  0
 38 37  1  0  0  0  0
 39 40  1  0  0  0  0
M  END
>  <minimizedAffinity>
-13.3018169

$$$$
