
 OpenBabel11232418543D

 40 46  0  0  1  0  0  0  0  0999 V2000
    5.8470   -4.9530    6.3970 C   0  0  0  0  0  0  0  0  0  0  0  0
    5.5660   -4.7510    5.0370 C   0  0  0  0  0  3  0  0  0  0  0  0
    5.5960   -3.4680    4.4820 C   0  0  0  0  0  3  0  0  0  0  0  0
    5.8890   -2.3690    5.2830 C   0  0  0  0  0  3  0  0  0  0  0  0
    6.1360   -2.5540    6.6410 C   0  0  0  0  0  0  0  0  0  0  0  0
    6.1300   -3.8410    7.2100 C   0  0  0  0  0  0  0  0  0  0  0  0
    6.4730   -3.9170    8.6220 C   0  0  0  0  0  0  0  0  0  0  0  0
    6.7810   -4.9430    9.3820 N   0  0  0  0  0  0  0  0  0  0  0  0
    7.0720   -4.4350   10.6360 C   0  0  0  0  0  0  0  0  0  0  0  0
    6.9180   -3.0520   10.6420 C   0  0  0  0  0  0  0  0  0  0  0  0
    6.5450   -2.7610    9.3490 N   0  0  0  0  0  0  0  0  0  0  0  0
    6.1890   -1.4820    8.7710 C   0  0  0  0  0  2  0  0  0  0  0  0
    6.4500   -1.4240    7.3570 O   0  0  0  0  0  0  0  0  0  0  0  0
    7.0990   -2.0240   11.6550 C   0  0  0  0  0  0  0  0  0  0  0  0
    7.7240   -0.8140   11.3290 C   0  0  0  0  0  3  0  0  0  0  0  0
    7.9070    0.1660   12.3050 C   0  0  0  0  0  3  0  0  0  0  0  0
    7.4660   -0.0570   13.6090 C   0  0  0  0  0  3  0  0  0  0  0  0
    6.8450   -1.2600   13.9410 C   0  0  0  0  0  3  0  0  0  0  0  0
    6.6630   -2.2430   12.9680 C   0  0  0  0  0  3  0  0  0  0  0  0
    7.4910   -5.3320   11.7130 C   0  0  0  0  0  0  0  0  0  0  0  0
    6.6180   -6.1350   12.4470 C   0  0  0  0  0  3  0  0  0  0  0  0
    7.0880   -6.9480   13.4890 C   0  0  0  0  0  3  0  0  0  0  0  0
    8.4530   -7.0160   13.8430 C   0  0  0  0  0  0  0  0  0  0  0  0
    9.3200   -6.2240   13.0690 C   0  0  0  0  0  3  0  0  0  0  0  0
    8.8510   -5.4000   12.0370 C   0  0  0  0  0  3  0  0  0  0  0  0
    8.9660   -7.9580   15.0150 C   0  0  1  0  0  0  0  0  0  0  0  0
   10.3510   -8.6390   14.8910 C   0  0  0  0  0  2  0  0  0  0  0  0
   10.7360   -8.1700   16.3330 C   0  0  1  0  0  0  0  0  0  0  0  0
    9.4490   -7.2820   16.3200 C   0  0  0  0  0  2  0  0  0  0  0  0
    7.8850   -8.9430   15.2550 N   0  0  0  0  0  4  0  0  0  0  0  0
    7.0020   -8.4760   15.4950 H   0  0  0  0  0  0  0  0  0  0  0  0
    7.6940   -9.4910   14.4050 H   0  0  0  0  0  0  0  0  0  0  0  0
    8.0970   -9.6070   16.0080 H   0  0  0  0  0  0  0  0  0  0  0  0
   10.8390   -9.2480   17.4210 C   0  0  0  0  0  3  0  0  0  0  0  0
   11.6890  -10.4920   17.3780 C   0  0  0  0  0  2  0  0  0  0  0  0
   11.9600   -9.4370   18.4090 C   0  0  0  0  0  2  0  0  0  0  0  0
   11.9460   -7.3710   16.3390 O   0  0  0  0  0  0  0  0  0  0  0  0
   11.8810   -6.7050   15.6320 H   0  0  0  0  0  0  0  0  0  0  0  0
    6.4730   -7.2480    6.3100 C   0  0  0  0  0  1  0  0  0  0  0  0
    5.8210   -6.1860    6.9950 O   0  0  0  0  0  0  0  0  0  0  0  0
  1 40  1  0  0  0  0
  1  6  1  0  0  0  0
  2  1  2  0  0  0  0
  3  2  1  0  0  0  0
  3  4  2  0  0  0  0
  4  5  1  0  0  0  0
  5  6  2  0  0  0  0
  5 13  1  0  0  0  0
  6  7  1  0  0  0  0
  7 11  1  0  0  0  0
  7  8  2  0  0  0  0
  8  9  1  0  0  0  0
  9 10  2  0  0  0  0
  9 20  1  0  0  0  0
 10 14  1  0  0  0  0
 11 10  1  0  0  0  0
 12 11  1  0  0  0  0
 13 12  1  0  0  0  0
 14 19  1  0  0  0  0
 15 14  2  0  0  0  0
 15 16  1  0  0  0  0
 16 17  2  0  0  0  0
 17 18  1  0  0  0  0
 19 18  2  0  0  0  0
 20 25  2  0  0  0  0
 20 21  1  0  0  0  0
 21 22  2  0  0  0  0
 22 23  1  0  0  0  0
 23 26  1  0  0  0  0
 24 23  2  0  0  0  0
 25 24  1  0  0  0  0
 26 30  1  1  0  0  0
 26 29  1  0  0  0  0
 27 26  1  0  0  0  0
 27 28  1  0  0  0  0
 28 37  1  6  0  0  0
 28 34  1  0  0  0  0
 29 28  1  0  0  0  0
 30 31  1  0  0  0  0
 30 33  1  0  0  0  0
 32 30  1  0  0  0  0
 34 36  1  0  0  0  0
 35 34  1  0  0  0  0
 35 36  1  0  0  0  0
 38 37  1  0  0  0  0
 39 40  1  0  0  0  0
M  END
>  <minimizedAffinity>
-13.3018169

$$$$

 OpenBabel11232418543D

 40 46  0  0  1  0  0  0  0  0999 V2000
    7.3660   -1.5570   11.2300 C   0  0  0  0  0  0  0  0  0  0  0  0
    7.0180   -0.2210   10.9810 C   0  0  0  0  0  3  0  0  0  0  0  0
    6.2700    0.1270    9.8520 C   0  0  0  0  0  3  0  0  0  0  0  0
    5.8750   -0.8540    8.9490 C   0  0  0  0  0  3  0  0  0  0  0  0
    6.2430   -2.1790    9.1680 C   0  0  0  0  0  0  0  0  0  0  0  0
    6.9780   -2.5480   10.3100 C   0  0  0  0  0  0  0  0  0  0  0  0
    7.2430   -3.9700   10.4690 C   0  0  0  0  0  0  0  0  0  0  0  0
    7.6800   -4.6580   11.4990 N   0  0  0  0  0  0  0  0  0  0  0  0
    7.6920   -5.9860   11.1130 C   0  0  0  0  0  0  0  0  0  0  0  0
    7.2640   -6.1080    9.7940 C   0  0  0  0  0  0  0  0  0  0  0  0
    6.9820   -4.8130    9.4240 N   0  0  0  0  0  0  0  0  0  0  0  0
    6.5490   -4.3080    8.1370 C   0  0  0  0  0  2  0  0  0  0  0  0
    5.7870   -3.0930    8.2480 O   0  0  0  0  0  0  0  0  0  0  0  0
    7.0700   -7.2390    8.9000 C   0  0  0  0  0  0  0  0  0  0  0  0
    6.4280   -8.3970    9.3560 C   0  0  0  0  0  3  0  0  0  0  0  0
    6.2540   -9.4850    8.4990 C   0  0  0  0  0  3  0  0  0  0  0  0
    6.7190   -9.4210    7.1860 C   0  0  0  0  0  3  0  0  0  0  0  0
    7.3600   -8.2710    6.7270 C   0  0  0  0  0  3  0  0  0  0  0  0
    7.5380   -7.1820    7.5810 C   0  0  0  0  0  3  0  0  0  0  0  0
    8.1010   -7.0220   12.0610 C   0  0  0  0  0  0  0  0  0  0  0  0
    9.2820   -7.7570   11.9560 C   0  0  0  0  0  3  0  0  0  0  0  0
    9.5940   -8.7600   12.8870 C   0  0  0  0  0  3  0  0  0  0  0  0
    8.7540   -9.0710   13.9780 C   0  0  0  0  0  0  0  0  0  0  0  0
    7.5850   -8.2970   14.0840 C   0  0  0  0  0  3  0  0  0  0  0  0
    7.2650   -7.3040   13.1480 C   0  0  0  0  0  3  0  0  0  0  0  0
    9.1360  -10.1980   15.0310 C   0  0  1  0  0  0  0  0  0  0  0  0
   10.5720  -10.2470   15.6050 C   0  0  0  0  0  2  0  0  0  0  0  0
   10.0110  -10.3590   17.0610 C   0  0  1  0  0  0  0  0  0  0  0  0
    8.5970  -10.0450   16.4740 C   0  0  0  0  0  2  0  0  0  0  0  0
    8.7420  -11.4870   14.4150 N   0  0  0  0  0  4  0  0  0  0  0  0
    7.7410  -11.5000   14.1830 H   0  0  0  0  0  0  0  0  0  0  0  0
    9.2400  -11.6350   13.5260 H   0  0  0  0  0  0  0  0  0  0  0  0
    8.9300  -12.3000   15.0130 H   0  0  0  0  0  0  0  0  0  0  0  0
   10.1920  -11.7000   17.7850 C   0  0  0  0  0  3  0  0  0  0  0  0
   11.3660  -12.6390   17.6620 C   0  0  0  0  0  2  0  0  0  0  0  0
   11.0720  -11.9780   18.9760 C   0  0  0  0  0  2  0  0  0  0  0  0
   10.4950   -9.2900   17.9130 O   0  0  0  0  0  0  0  0  0  0  0  0
   10.3950   -8.4460   17.4370 H   0  0  0  0  0  0  0  0  0  0  0  0
    7.7650   -1.3800   13.5700 C   0  0  0  0  0  1  0  0  0  0  0  0
    8.1060   -1.9510   12.3130 O   0  0  0  0  0  0  0  0  0  0  0  0
  1 40  1  0  0  0  0
  2  1  1  0  0  0  0
  3  2  2  0  0  0  0
  4  5  2  0  0  0  0
  4  3  1  0  0  0  0
  5  6  1  0  0  0  0
  6  7  1  0  0  0  0
  6  1  2  0  0  0  0
  7  8  2  0  0  0  0
  9  8  1  0  0  0  0
  9 20  1  0  0  0  0
 10  9  2  0  0  0  0
 11 10  1  0  0  0  0
 11  7  1  0  0  0  0
 12 13  1  0  0  0  0
 12 11  1  0  0  0  0
 13  5  1  0  0  0  0
 14 15  1  0  0  0  0
 14 10  1  0  0  0  0
 16 15  2  0  0  0  0
 17 16  1  0  0  0  0
 18 17  2  0  0  0  0
 18 19  1  0  0  0  0
 19 14  2  0  0  0  0
 20 25  1  0  0  0  0
 21 20  2  0  0  0  0
 21 22  1  0  0  0  0
 22 23  2  0  0  0  0
 23 24  1  0  0  0  0
 23 26  1  0  0  0  0
 25 24  2  0  0  0  0
 26 30  1  6  0  0  0
 26 27  1  0  0  0  0
 26 29  1  0  0  0  0
 27 28  1  0  0  0  0
 28 34  1  0  0  0  0
 28 37  1  1  0  0  0
 29 28  1  0  0  0  0
 30 33  1  0  0  0  0
 31 30  1  0  0  0  0
 32 30  1  0  0  0  0
 34 36  1  0  0  0  0
 35 34  1  0  0  0  0
 35 36  1  0  0  0  0
 38 37  1  0  0  0  0
 40 39  1  0  0  0  0
M  END
>  <minimizedAffinity>
-12.003871

$$$$

 OpenBabel11232418543D

 40 46  0  0  1  0  0  0  0  0999 V2000
    7.1730   -9.3820    4.4930 C   0  0  0  0  0  0  0  0  0  0  0  0
    7.2270   -9.7440    3.1380 C   0  0  0  0  0  3  0  0  0  0  0  0
    7.2500   -8.7700    2.1370 C   0  0  0  0  0  3  0  0  0  0  0  0
    7.2030   -7.4210    2.4750 C   0  0  0  0  0  3  0  0  0  0  0  0
    7.1150   -7.0510    3.8140 C   0  0  0  0  0  0  0  0  0  0  0  0
    7.1110   -8.0190    4.8350 C   0  0  0  0  0  0  0  0  0  0  0  0
    7.0890   -7.5110    6.1990 C   0  0  0  0  0  0  0  0  0  0  0  0
    7.3080   -8.1090    7.3470 N   0  0  0  0  0  0  0  0  0  0  0  0
    7.2110   -7.1370    8.3270 C   0  0  0  0  0  0  0  0  0  0  0  0
    6.9040   -5.9060    7.7530 C   0  0  0  0  0  0  0  0  0  0  0  0
    6.8420   -6.1830    6.4060 N   0  0  0  0  0  0  0  0  0  0  0  0
    6.5020   -5.2980    5.3100 C   0  0  0  0  0  2  0  0  0  0  0  0
    7.1050   -5.7000    4.0680 O   0  0  0  0  0  0  0  0  0  0  0  0
    6.7020   -4.5690    8.2890 C   0  0  0  0  0  0  0  0  0  0  0  0
    6.3920   -3.5050    7.4320 C   0  0  0  0  0  3  0  0  0  0  0  0
    6.2100   -2.2210    7.9470 C   0  0  0  0  0  3  0  0  0  0  0  0
    6.3360   -1.9940    9.3160 C   0  0  0  0  0  3  0  0  0  0  0  0
    6.6470   -3.0480   10.1740 C   0  0  0  0  0  3  0  0  0  0  0  0
    6.8310   -4.3330    9.6630 C   0  0  0  0  0  3  0  0  0  0  0  0
    7.4410   -7.4820    9.7290 C   0  0  0  0  0  0  0  0  0  0  0  0
    8.5770   -7.1150   10.4490 C   0  0  0  0  0  3  0  0  0  0  0  0
    8.7440   -7.5100   11.7860 C   0  0  0  0  0  3  0  0  0  0  0  0
    7.7810   -8.2760   12.4770 C   0  0  0  0  0  0  0  0  0  0  0  0
    6.6290   -8.6080   11.7430 C   0  0  0  0  0  3  0  0  0  0  0  0
    6.4660   -8.2270   10.4040 C   0  0  0  0  0  3  0  0  0  0  0  0
    7.9830   -8.6960   13.9960 C   0  0  1  0  0  0  0  0  0  0  0  0
    9.1800   -9.5970   14.3830 C   0  0  0  0  0  2  0  0  0  0  0  0
    9.5600   -8.6300   15.5530 C   0  0  1  0  0  0  0  0  0  0  0  0
    8.5130   -7.6210   14.9750 C   0  0  0  0  0  2  0  0  0  0  0  0
    6.6910   -9.2740   14.4380 N   0  0  0  0  0  4  0  0  0  0  0  0
    5.9220   -8.6010   14.3230 H   0  0  0  0  0  0  0  0  0  0  0  0
    6.4400  -10.0910   13.8640 H   0  0  0  0  0  0  0  0  0  0  0  0
    6.6920   -9.5750   15.4190 H   0  0  0  0  0  0  0  0  0  0  0  0
    9.3370   -9.1330   16.9850 C   0  0  0  0  0  3  0  0  0  0  0  0
    8.6530  -10.4140   17.3920 C   0  0  0  0  0  2  0  0  0  0  0  0
   10.1080  -10.2130   17.6980 C   0  0  0  0  0  2  0  0  0  0  0  0
   10.9170   -8.1340   15.4290 O   0  0  0  0  0  0  0  0  0  0  0  0
   11.0550   -7.8360   14.5120 H   0  0  0  0  0  0  0  0  0  0  0  0
    7.9300  -11.4650    5.3610 C   0  0  0  0  0  1  0  0  0  0  0  0
    7.1370  -10.2950    5.5140 O   0  0  0  0  0  0  0  0  0  0  0  0
  1  6  1  0  0  0  0
  1 40  1  0  0  0  0
  2  1  2  0  0  0  0
  3  4  2  0  0  0  0
  3  2  1  0  0  0  0
  4  5  1  0  0  0  0
  5 13  1  0  0  0  0
  5  6  2  0  0  0  0
  6  7  1  0  0  0  0
  7 11  1  0  0  0  0
  7  8  2  0  0  0  0
  8  9  1  0  0  0  0
  9 20  1  0  0  0  0
 10 14  1  0  0  0  0
 10  9  2  0  0  0  0
 11 10  1  0  0  0  0
 12 11  1  0  0  0  0
 13 12  1  0  0  0  0
 14 19  1  0  0  0  0
 15 16  1  0  0  0  0
 15 14  2  0  0  0  0
 16 17  2  0  0  0  0
 17 18  1  0  0  0  0
 19 18  2  0  0  0  0
 20 25  2  0  0  0  0
 20 21  1  0  0  0  0
 21 22  2  0  0  0  0
 22 23  1  0  0  0  0
 23 26  1  0  0  0  0
 24 23  2  0  0  0  0
 25 24  1  0  0  0  0
 26 27  1  0  0  0  0
 26 30  1  1  0  0  0
 26 29  1  0  0  0  0
 27 28  1  0  0  0  0
 28 37  1  6  0  0  0
 28 34  1  0  0  0  0
 29 28  1  0  0  0  0
 30 33  1  0  0  0  0
 31 30  1  0  0  0  0
 32 30  1  0  0  0  0
 34 35  1  0  0  0  0
 34 36  1  0  0  0  0
 35 36  1  0  0  0  0
 38 37  1  0  0  0  0
 39 40  1  0  0  0  0
M  END
>  <minimizedAffinity>
-11.7739344

$$$$

 OpenBabel11232418543D

 40 46  0  0  1  0  0  0  0  0999 V2000
    7.3870   -1.7450   11.6570 C   0  0  0  0  0  0  0  0  0  0  0  0
    7.1440   -0.3660   11.5790 C   0  0  0  0  0  3  0  0  0  0  0  0
    6.5480    0.1950   10.4460 C   0  0  0  0  0  3  0  0  0  0  0  0
    6.2030   -0.6140    9.3680 C   0  0  0  0  0  3  0  0  0  0  0  0
    6.4690   -1.9790    9.4200 C   0  0  0  0  0  0  0  0  0  0  0  0
    7.0500   -2.5620   10.5620 C   0  0  0  0  0  0  0  0  0  0  0  0
    7.2150   -4.0070   10.5290 C   0  0  0  0  0  0  0  0  0  0  0  0
    7.4950   -4.8670   11.4820 N   0  0  0  0  0  0  0  0  0  0  0  0
    7.4760   -6.1230   10.9020 C   0  0  0  0  0  0  0  0  0  0  0  0
    7.1920   -6.0210    9.5430 C   0  0  0  0  0  0  0  0  0  0  0  0
    7.0260   -4.6680    9.3470 N   0  0  0  0  0  0  0  0  0  0  0  0
    6.7690   -3.9520    8.1140 C   0  0  0  0  0  2  0  0  0  0  0  0
    6.0690   -2.7150    8.3300 O   0  0  0  0  0  0  0  0  0  0  0  0
    7.0360   -6.9930    8.4720 C   0  0  0  0  0  0  0  0  0  0  0  0
    6.6650   -8.3110    8.7650 C   0  0  0  0  0  3  0  0  0  0  0  0
    6.5280   -9.2450    7.7370 C   0  0  0  0  0  3  0  0  0  0  0  0
    6.7610   -8.8670    6.4150 C   0  0  0  0  0  3  0  0  0  0  0  0
    7.1330   -7.5570    6.1180 C   0  0  0  0  0  3  0  0  0  0  0  0
    7.2730   -6.6210    7.1430 C   0  0  0  0  0  3  0  0  0  0  0  0
    7.7180   -7.3120   11.7180 C   0  0  0  0  0  0  0  0  0  0  0  0
    6.7450   -7.9390   12.4960 C   0  0  0  0  0  3  0  0  0  0  0  0
    7.0580   -9.0600   13.2800 C   0  0  0  0  0  3  0  0  0  0  0  0
    8.3520   -9.6230   13.3170 C   0  0  0  0  0  0  0  0  0  0  0  0
    9.3110   -8.9950   12.5020 C   0  0  0  0  0  3  0  0  0  0  0  0
    9.0030   -7.8680   11.7280 C   0  0  0  0  0  3  0  0  0  0  0  0
    8.6810  -10.9030   14.1980 C   0  0  1  0  0  0  0  0  0  0  0  0
    7.6630  -11.3730   15.2650 C   0  0  0  0  0  2  0  0  0  0  0  0
    7.7530  -12.8440   14.7370 C   0  0  1  0  0  0  0  0  0  0  0  0
    8.5660  -12.2900   13.5210 C   0  0  0  0  0  2  0  0  0  0  0  0
   10.0240  -10.6690   14.7810 N   0  0  0  0  0  4  0  0  0  0  0  0
   10.7270  -10.5150   14.0470 H   0  0  0  0  0  0  0  0  0  0  0  0
   10.0270   -9.8180   15.3600 H   0  0  0  0  0  0  0  0  0  0  0  0
   10.3550  -11.4430   15.3680 H   0  0  0  0  0  0  0  0  0  0  0  0
    8.4450  -13.8760   15.6370 C   0  0  0  0  0  3  0  0  0  0  0  0
    9.1170  -15.1500   15.1920 C   0  0  0  0  0  2  0  0  0  0  0  0
    9.9270  -14.0620   15.8320 C   0  0  0  0  0  2  0  0  0  0  0  0
    6.4570  -13.3560   14.3340 O   0  0  0  0  0  0  0  0  0  0  0  0
    6.0180  -12.6860   13.7820 H   0  0  0  0  0  0  0  0  0  0  0  0
    8.0390   -1.5900   13.9410 C   0  0  0  0  0  1  0  0  0  0  0  0
    7.9780   -2.3450   12.7370 O   0  0  0  0  0  0  0  0  0  0  0  0
  1 40  1  0  0  0  0
  2  1  1  0  0  0  0
  3  2  2  0  0  0  0
  4  5  2  0  0  0  0
  4  3  1  0  0  0  0
  5  6  1  0  0  0  0
  6  1  2  0  0  0  0
  7  6  1  0  0  0  0
  7  8  2  0  0  0  0
  9  8  1  0  0  0  0
  9 20  1  0  0  0  0
 10  9  2  0  0  0  0
 11 10  1  0  0  0  0
 11  7  1  0  0  0  0
 12 13  1  0  0  0  0
 12 11  1  0  0  0  0
 13  5  1  0  0  0  0
 14 15  1  0  0  0  0
 14 10  1  0  0  0  0
 16 15  2  0  0  0  0
 17 16  1  0  0  0  0
 18 17  2  0  0  0  0
 18 19  1  0  0  0  0
 19 14  2  0  0  0  0
 20 25  2  0  0  0  0
 20 21  1  0  0  0  0
 21 22  2  0  0  0  0
 22 23  1  0  0  0  0
 23 26  1  0  0  0  0
 24 23  2  0  0  0  0
 25 24  1  0  0  0  0
 26 30  1  1  0  0  0
 26 27  1  0  0  0  0
 28 37  1  6  0  0  0
 28 27  1  0  0  0  0
 28 34  1  0  0  0  0
 29 26  1  0  0  0  0
 29 28  1  0  0  0  0
 30 32  1  0  0  0  0
 30 33  1  0  0  0  0
 31 30  1  0  0  0  0
 34 36  1  0  0  0  0
 35 34  1  0  0  0  0
 35 36  1  0  0  0  0
 38 37  1  0  0  0  0
 40 39  1  0  0  0  0
M  END
>  <minimizedAffinity>
-11.3344374

$$$$

 OpenBabel11232418543D

 40 46  0  0  1  0  0  0  0  0999 V2000
    7.5830  -15.5750   13.9320 C   0  0  0  0  0  0  0  0  0  0  0  0
    7.2790  -16.9400   14.0470 C   0  0  0  0  0  3  0  0  0  0  0  0
    7.7830  -17.7000   15.1060 C   0  0  0  0  0  3  0  0  0  0  0  0
    8.6120  -17.1090   16.0550 C   0  0  0  0  0  3  0  0  0  0  0  0
    8.9470  -15.7640   15.9330 C   0  0  0  0  0  0  0  0  0  0  0  0
    8.4310  -14.9800   14.8840 C   0  0  0  0  0  0  0  0  0  0  0  0
    8.7940  -13.5710   14.8990 C   0  0  0  0  0  0  0  0  0  0  0  0
    8.3130  -12.5480   14.2300 N   0  0  0  0  0  0  0  0  0  0  0  0
    8.9900  -11.4270   14.6780 C   0  0  0  0  0  0  0  0  0  0  0  0
    9.9280  -11.7860   15.6420 C   0  0  0  0  0  0  0  0  0  0  0  0
    9.7690  -13.1480   15.7590 N   0  0  0  0  0  0  0  0  0  0  0  0
   10.5150  -14.0850   16.5750 C   0  0  0  0  0  2  0  0  0  0  0  0
    9.7430  -15.2470   16.9270 O   0  0  0  0  0  0  0  0  0  0  0  0
   10.8840  -11.0370   16.4430 C   0  0  0  0  0  0  0  0  0  0  0  0
   10.4350  -10.1460   17.4260 C   0  0  0  0  0  3  0  0  0  0  0  0
   11.3530   -9.4200   18.1860 C   0  0  0  0  0  3  0  0  0  0  0  0
   12.7210   -9.5800   17.9680 C   0  0  0  0  0  3  0  0  0  0  0  0
   13.1740  -10.4630   16.9890 C   0  0  0  0  0  3  0  0  0  0  0  0
   12.2590  -11.1890   16.2260 C   0  0  0  0  0  3  0  0  0  0  0  0
    8.6570  -10.1070   14.1460 C   0  0  0  0  0  0  0  0  0  0  0  0
    7.3640   -9.5880   14.0910 C   0  0  0  0  0  3  0  0  0  0  0  0
    7.1160   -8.3230   13.5360 C   0  0  0  0  0  3  0  0  0  0  0  0
    8.1440   -7.5040   13.0220 C   0  0  0  0  0  0  0  0  0  0  0  0
    9.4440   -8.0320   13.1150 C   0  0  0  0  0  3  0  0  0  0  0  0
    9.6930   -9.3010   13.6560 C   0  0  0  0  0  3  0  0  0  0  0  0
    7.8420   -6.0670   12.4140 C   0  0  1  0  0  0  0  0  0  0  0  0
    7.0600   -5.0340   13.2600 C   0  0  0  0  0  2  0  0  0  0  0  0
    8.1290   -3.9350   12.9480 C   0  0  1  0  0  0  0  0  0  0  0  0
    9.0170   -5.0640   12.3280 C   0  0  0  0  0  2  0  0  0  0  0  0
    7.2030   -6.3030   11.0980 N   0  0  0  0  0  4  0  0  0  0  0  0
    7.8080   -6.8620   10.4830 H   0  0  0  0  0  0  0  0  0  0  0  0
    6.3330   -6.8430   11.2050 H   0  0  0  0  0  0  0  0  0  0  0  0
    6.9690   -5.4380   10.5970 H   0  0  0  0  0  0  0  0  0  0  0  0
    7.7080   -2.7820   12.0250 C   0  0  0  0  0  3  0  0  0  0  0  0
    6.7310   -1.6810   12.3500 C   0  0  0  0  0  2  0  0  0  0  0  0
    8.1710   -1.3500   12.0920 C   0  0  0  0  0  2  0  0  0  0  0  0
    8.7140   -3.3880   14.1560 O   0  0  0  0  0  0  0  0  0  0  0  0
    8.9580   -4.1250   14.7430 H   0  0  0  0  0  0  0  0  0  0  0  0
    6.2390  -15.3910   11.9750 C   0  0  0  0  0  1  0  0  0  0  0  0
    7.1250  -14.7870   12.9090 O   0  0  0  0  0  0  0  0  0  0  0  0
  1  2  2  0  0  0  0
  1  6  1  0  0  0  0
  2  3  1  0  0  0  0
  3  4  2  0  0  0  0
  5  4  1  0  0  0  0
  5 13  1  0  0  0  0
  6  7  1  0  0  0  0
  6  5  2  0  0  0  0
  7 11  1  0  0  0  0
  8  9  1  0  0  0  0
  8  7  2  0  0  0  0
  9 10  2  0  0  0  0
 10 11  1  0  0  0  0
 10 14  1  0  0  0  0
 11 12  1  0  0  0  0
 12 13  1  0  0  0  0
 14 15  1  0  0  0  0
 15 16  2  0  0  0  0
 17 16  1  0  0  0  0
 18 17  2  0  0  0  0
 19 14  2  0  0  0  0
 19 18  1  0  0  0  0
 20  9  1  0  0  0  0
 21 20  1  0  0  0  0
 22 21  2  0  0  0  0
 23 24  2  0  0  0  0
 23 22  1  0  0  0  0
 24 25  1  0  0  0  0
 25 20  2  0  0  0  0
 26 30  1  6  0  0  0
 26 23  1  0  0  0  0
 26 27  1  0  0  0  0
 28 27  1  0  0  0  0
 28 37  1  1  0  0  0
 29 26  1  0  0  0  0
 29 28  1  0  0  0  0
 30 32  1  0  0  0  0
 31 30  1  0  0  0  0
 33 30  1  0  0  0  0
 34 36  1  0  0  0  0
 34 35  1  0  0  0  0
 34 28  1  0  0  0  0
 36 35  1  0  0  0  0
 37 38  1  0  0  0  0
 39 40  1  0  0  0  0
 40  1  1  0  0  0  0
M  END
>  <minimizedAffinity>
-10.8086672

$$$$

 OpenBabel11232418543D

 40 46  0  0  1  0  0  0  0  0999 V2000
   10.0740   -9.3680   14.5450 C   0  0  0  0  0  0  0  0  0  0  0  0
   10.5380  -10.1320   15.6270 C   0  0  0  0  0  3  0  0  0  0  0  0
   10.5360   -9.6120   16.9250 C   0  0  0  0  0  3  0  0  0  0  0  0
   10.0850   -8.3170   17.1560 C   0  0  0  0  0  3  0  0  0  0  0  0
    9.6540   -7.5370   16.0860 C   0  0  0  0  0  0  0  0  0  0  0  0
    9.6310   -8.0530   14.7760 C   0  0  0  0  0  0  0  0  0  0  0  0
    9.0940   -7.1710   13.7510 C   0  0  0  0  0  0  0  0  0  0  0  0
    8.7220   -7.4100   12.5140 N   0  0  0  0  0  0  0  0  0  0  0  0
    8.2330   -6.2180   12.0090 C   0  0  0  0  0  0  0  0  0  0  0  0
    8.3280   -5.2150   12.9680 C   0  0  0  0  0  0  0  0  0  0  0  0
    8.8700   -5.8580   14.0580 N   0  0  0  0  0  0  0  0  0  0  0  0
    9.2520   -5.3070   15.3420 C   0  0  0  0  0  2  0  0  0  0  0  0
    9.1950   -6.2800   16.4000 O   0  0  0  0  0  0  0  0  0  0  0  0
    7.9620   -3.8070   12.9910 C   0  0  0  0  0  0  0  0  0  0  0  0
    8.8760   -2.8340   12.5680 C   0  0  0  0  0  3  0  0  0  0  0  0
    8.5270   -1.4830   12.6020 C   0  0  0  0  0  3  0  0  0  0  0  0
    7.2660   -1.0990   13.0570 C   0  0  0  0  0  3  0  0  0  0  0  0
    6.3530   -2.0630   13.4820 C   0  0  0  0  0  3  0  0  0  0  0  0
    6.6990   -3.4140   13.4520 C   0  0  0  0  0  3  0  0  0  0  0  0
    7.7020   -6.1610   10.6470 C   0  0  0  0  0  0  0  0  0  0  0  0
    7.7520   -7.2210    9.7420 C   0  0  0  0  0  3  0  0  0  0  0  0
    7.2490   -7.0820    8.4390 C   0  0  0  0  0  3  0  0  0  0  0  0
    6.6590   -5.8870    7.9760 C   0  0  0  0  0  0  0  0  0  0  0  0
    6.5900   -4.8410    8.9140 C   0  0  0  0  0  3  0  0  0  0  0  0
    7.1030   -4.9730   10.2110 C   0  0  0  0  0  3  0  0  0  0  0  0
    6.0800   -5.7580    6.5020 C   0  0  1  0  0  0  0  0  0  0  0  0
    4.8330   -4.8760    6.2510 C   0  0  0  0  0  2  0  0  0  0  0  0
    5.5460   -4.1690    5.0510 C   0  0  1  0  0  0  0  0  0  0  0  0
    6.8650   -4.8820    5.4970 C   0  0  0  0  0  2  0  0  0  0  0  0
    5.8860   -7.1430    6.0130 N   0  0  0  0  0  4  0  0  0  0  0  0
    6.7650   -7.6740    6.0360 H   0  0  0  0  0  0  0  0  0  0  0  0
    5.2300   -7.6560    6.6180 H   0  0  0  0  0  0  0  0  0  0  0  0
    5.5220   -7.1910    5.0540 H   0  0  0  0  0  0  0  0  0  0  0  0
    5.0230   -4.4720    3.6400 C   0  0  0  0  0  3  0  0  0  0  0  0
    3.5870   -4.4230    3.1840 C   0  0  0  0  0  2  0  0  0  0  0  0
    4.5900   -3.4740    2.5980 C   0  0  0  0  0  2  0  0  0  0  0  0
    5.6180   -2.7320    5.2330 O   0  0  0  0  0  0  0  0  0  0  0  0
    5.9310   -2.5500    6.1370 H   0  0  0  0  0  0  0  0  0  0  0  0
    9.0560  -10.7640   12.9080 C   0  0  0  0  0  1  0  0  0  0  0  0
   10.0650   -9.8230   13.2530 O   0  0  0  0  0  0  0  0  0  0  0  0
  1  6  2  0  0  0  0
  1  2  1  0  0  0  0
  2  3  2  0  0  0  0
  3  4  1  0  0  0  0
  5 13  1  0  0  0  0
  5  4  2  0  0  0  0
  6  5  1  0  0  0  0
  7 11  1  0  0  0  0
  7  6  1  0  0  0  0
  8  7  2  0  0  0  0
  9  8  1  0  0  0  0
  9 10  2  0  0  0  0
 10 14  1  0  0  0  0
 10 11  1  0  0  0  0
 11 12  1  0  0  0  0
 12 13  1  0  0  0  0
 14 19  1  0  0  0  0
 15 16  1  0  0  0  0
 15 14  2  0  0  0  0
 16 17  2  0  0  0  0
 17 18  1  0  0  0  0
 19 18  2  0  0  0  0
 20  9  1  0  0  0  0
 21 20  2  0  0  0  0
 22 21  1  0  0  0  0
 23 22  2  0  0  0  0
 23 24  1  0  0  0  0
 24 25  2  0  0  0  0
 25 20  1  0  0  0  0
 26 30  1  6  0  0  0
 26 23  1  0  0  0  0
 27 26  1  0  0  0  0
 28 37  1  1  0  0  0
 28 29  1  0  0  0  0
 28 27  1  0  0  0  0
 29 26  1  0  0  0  0
 30 31  1  0  0  0  0
 30 32  1  0  0  0  0
 33 30  1  0  0  0  0
 34 28  1  0  0  0  0
 35 34  1  0  0  0  0
 36 35  1  0  0  0  0
 36 34  1  0  0  0  0
 37 38  1  0  0  0  0
 39 40  1  0  0  0  0
 40  1  1  0  0  0  0
M  END
>  <minimizedAffinity>
-10.6038799

$$$$
