
 OpenBabel11232420503D

 39 44  0  0  1  0  0  0  0  0999 V2000
  -20.0960   21.7910   11.6300 C   0  0  0  0  0  0  0  0  0  0  0  0
  -20.5990   22.8890   12.2610 N   0  0  0  0  0  0  0  0  0  0  0  0
  -20.1590   24.1060   11.8780 C   0  0  0  0  0  0  0  0  0  0  0  0
  -20.7520   25.2390   12.5880 C   0  0  0  0  0  3  0  0  0  0  0  0
  -20.3900   26.4920   12.2870 C   0  0  0  0  0  3  0  0  0  0  0  0
  -19.4210   26.7270   11.2820 C   0  0  0  0  0  0  0  0  0  0  0  0
  -18.9210   27.8560   10.8370 N   0  0  0  0  0  0  0  0  0  0  0  0
  -18.0060   27.5570    9.8720 N   0  0  0  0  0  0  0  0  0  0  0  0
  -17.9510   26.2440    9.7310 C   0  0  0  0  0  0  0  0  0  0  0  0
  -18.8490   25.6530   10.6020 N   0  0  0  0  0  0  0  0  0  0  0  0
  -19.2120   24.3080   10.8760 C   0  0  0  0  0  0  0  0  0  0  0  0
  -18.7150   23.1840   10.2250 C   0  0  0  0  0  3  0  0  0  0  0  0
  -19.1530   21.8910   10.5880 C   0  0  0  0  0  0  0  0  0  0  0  0
  -18.6260   20.7370    9.8380 C   0  0  0  0  0  0  0  0  0  0  0  0
  -17.3280   20.7660    9.2970 C   0  0  0  0  0  3  0  0  0  0  0  0
  -16.8230   19.6770    8.5840 C   0  0  0  0  0  3  0  0  0  0  0  0
  -17.6110   18.5450    8.3930 C   0  0  0  0  0  3  0  0  0  0  0  0
  -18.9030   18.5010    8.9120 C   0  0  0  0  0  3  0  0  0  0  0  0
  -19.4080   19.5910    9.6260 C   0  0  0  0  0  3  0  0  0  0  0  0
  -21.7820   18.0970   13.2710 C   0  0  0  0  0  0  0  0  0  0  0  0
  -22.5520   19.2510   13.0310 C   0  0  0  0  0  3  0  0  0  0  0  0
  -22.0050   20.4260   12.4960 C   0  0  0  0  0  3  0  0  0  0  0  0
  -20.6480   20.5240   12.1650 C   0  0  0  0  0  0  0  0  0  0  0  0
  -19.8640   19.3880   12.3950 C   0  0  0  0  0  3  0  0  0  0  0  0
  -20.4190   18.2060   12.9090 C   0  0  0  0  0  3  0  0  0  0  0  0
  -22.0230   15.1130   16.9460 C   0  0  0  0  0  1  0  0  0  0  0  0
  -21.7520   16.1790   15.8950 C   0  0  2  0  0  0  0  0  0  0  0  0
  -23.0330   16.8460   15.3190 C   0  0  0  0  0  2  0  0  0  0  0  0
  -22.3990   16.7570   13.9040 C   0  0  2  0  0  0  0  0  0  0  0  0
  -21.4670   15.6380   14.4710 C   0  0  0  0  0  2  0  0  0  0  0  0
  -23.3390   16.1690   12.9140 N   0  0  0  0  0  4  0  0  0  0  0  0
  -22.8910   16.0950   11.9900 H   0  0  0  0  0  0  0  0  0  0  0  0
  -23.6660   15.2310   13.1740 H   0  0  0  0  0  0  0  0  0  0  0  0
  -24.1750   16.7540   12.7950 H   0  0  0  0  0  0  0  0  0  0  0  0
  -20.7740   17.1140   16.3860 O   0  0  0  0  0  0  0  0  0  0  0  0
  -20.0630   16.5910   16.8030 H   0  0  0  0  0  0  0  0  0  0  0  0
  -17.0430   25.5580    8.7930 C   0  0  0  0  0  3  0  0  0  0  0  0
  -16.3020   26.4480    8.0780 F   0  0  0  0  0  0  0  0  0  0  0  0
  -16.1580   24.7600    9.4500 F   0  0  0  0  0  0  0  0  0  0  0  0
  1 23  1  0  0  0  0
  1  2  1  0  0  0  0
  3  2  2  0  0  0  0
  3  4  1  0  0  0  0
  5  4  2  0  0  0  0
  6  5  1  0  0  0  0
  7  6  2  0  0  0  0
  8  7  1  0  0  0  0
  9  8  2  0  0  0  0
  9 10  1  0  0  0  0
 10 11  1  0  0  0  0
 10  6  1  0  0  0  0
 11  3  1  0  0  0  0
 12 13  1  0  0  0  0
 12 11  2  0  0  0  0
 13  1  2  0  0  0  0
 14 13  1  0  0  0  0
 15 14  2  0  0  0  0
 16 15  1  0  0  0  0
 17 16  2  0  0  0  0
 17 18  1  0  0  0  0
 18 19  2  0  0  0  0
 19 14  1  0  0  0  0
 20 29  1  0  0  0  0
 21 20  1  0  0  0  0
 22 21  2  0  0  0  0
 23 24  2  0  0  0  0
 23 22  1  0  0  0  0
 24 25  1  0  0  0  0
 25 20  2  0  0  0  0
 27 35  1  0  0  0  0
 27 26  1  1  0  0  0
 28 27  1  0  0  0  0
 29 31  1  6  0  0  0
 29 30  1  0  0  0  0
 29 28  1  0  0  0  0
 30 27  1  0  0  0  0
 31 33  1  0  0  0  0
 32 31  1  0  0  0  0
 34 31  1  0  0  0  0
 35 36  1  0  0  0  0
 37 39  1  0  0  0  0
 37  9  1  0  0  0  0
 38 37  1  0  0  0  0
M  END
>  <minimizedAffinity>
-10.8284369

$$$$
