
 OpenBabel11232420503D

 39 44  0  0  1  0  0  0  0  0999 V2000
  -21.1940   19.4020   12.8880 C   0  0  0  0  0  0  0  0  0  0  0  0
  -21.9270   19.4780   14.0350 N   0  0  0  0  0  0  0  0  0  0  0  0
  -22.3660   18.3300   14.5930 C   0  0  0  0  0  0  0  0  0  0  0  0
  -23.1320   18.4870   15.8280 C   0  0  0  0  0  3  0  0  0  0  0  0
  -23.6140   17.4130   16.4670 C   0  0  0  0  0  3  0  0  0  0  0  0
  -23.3890   16.1180   15.9440 C   0  0  0  0  0  0  0  0  0  0  0  0
  -23.7700   14.9460   16.3960 N   0  0  0  0  0  0  0  0  0  0  0  0
  -23.3180   13.9960   15.5290 N   0  0  0  0  0  0  0  0  0  0  0  0
  -22.6630   14.5930   14.5480 C   0  0  0  0  0  0  0  0  0  0  0  0
  -22.6620   15.9600   14.7660 N   0  0  0  0  0  0  0  0  0  0  0  0
  -22.1190   17.0660   14.0610 C   0  0  0  0  0  0  0  0  0  0  0  0
  -21.3570   16.9940   12.8990 C   0  0  0  0  0  3  0  0  0  0  0  0
  -20.8710   18.1690   12.2860 C   0  0  0  0  0  0  0  0  0  0  0  0
  -20.0330   18.0350   11.0800 C   0  0  0  0  0  0  0  0  0  0  0  0
  -19.2770   16.8700   10.8590 C   0  0  0  0  0  3  0  0  0  0  0  0
  -18.4800   16.7370    9.7200 C   0  0  0  0  0  3  0  0  0  0  0  0
  -18.4200   17.7700    8.7890 C   0  0  0  0  0  3  0  0  0  0  0  0
  -19.1530   18.9370    8.9950 C   0  0  0  0  0  3  0  0  0  0  0  0
  -19.9520   19.0690   10.1350 C   0  0  0  0  0  3  0  0  0  0  0  0
  -20.1020   23.3380   11.3090 C   0  0  0  0  0  0  0  0  0  0  0  0
  -21.4350   22.9390   11.5190 C   0  0  0  0  0  3  0  0  0  0  0  0
  -21.7750   21.6790   12.0340 C   0  0  0  0  0  3  0  0  0  0  0  0
  -20.7990   20.7340   12.3750 C   0  0  0  0  0  0  0  0  0  0  0  0
  -19.4670   21.1100   12.1740 C   0  0  0  0  0  3  0  0  0  0  0  0
  -19.1300   22.3790   11.6800 C   0  0  0  0  0  3  0  0  0  0  0  0
  -20.1860   28.0590   11.7180 C   0  0  0  0  0  1  0  0  0  0  0  0
  -20.3200   26.5460   11.7870 C   0  0  2  0  0  0  0  0  0  0  0  0
  -18.9770   25.7790   11.6260 C   0  0  0  0  0  2  0  0  0  0  0  0
  -19.7080   24.7690   10.6980 C   0  0  2  0  0  0  0  0  0  0  0  0
  -20.7930   25.8700   10.4750 C   0  0  0  0  0  2  0  0  0  0  0  0
  -18.9600   24.5410    9.4340 N   0  0  0  0  0  4  0  0  0  0  0  0
  -19.4730   23.8890    8.8240 H   0  0  0  0  0  0  0  0  0  0  0  0
  -18.7990   25.4020    8.8980 H   0  0  0  0  0  0  0  0  0  0  0  0
  -18.0390   24.1220    9.6110 H   0  0  0  0  0  0  0  0  0  0  0  0
  -21.0720   26.1730   12.9560 O   0  0  0  0  0  0  0  0  0  0  0  0
  -21.8400   26.7740   13.0060 H   0  0  0  0  0  0  0  0  0  0  0  0
  -22.0620   13.8750   13.4090 C   0  0  0  0  0  3  0  0  0  0  0  0
  -22.6460   14.2300   12.2320 F   0  0  0  0  0  0  0  0  0  0  0  0
  -20.7380   14.1600   13.2840 F   0  0  0  0  0  0  0  0  0  0  0  0
  1  2  1  0  0  0  0
  2  3  2  0  0  0  0
  3  4  1  0  0  0  0
  4  5  2  0  0  0  0
  6  7  2  0  0  0  0
  6  5  1  0  0  0  0
  8  7  1  0  0  0  0
  9 10  1  0  0  0  0
  9  8  2  0  0  0  0
 10  6  1  0  0  0  0
 11  3  1  0  0  0  0
 11 10  1  0  0  0  0
 12 11  2  0  0  0  0
 13  1  2  0  0  0  0
 13 12  1  0  0  0  0
 14 13  1  0  0  0  0
 15 14  1  0  0  0  0
 16 15  2  0  0  0  0
 17 18  2  0  0  0  0
 17 16  1  0  0  0  0
 18 19  1  0  0  0  0
 19 14  2  0  0  0  0
 20 21  2  0  0  0  0
 20 25  1  0  0  0  0
 21 22  1  0  0  0  0
 22 23  2  0  0  0  0
 23  1  1  0  0  0  0
 24 23  1  0  0  0  0
 25 24  2  0  0  0  0
 27 26  1  6  0  0  0
 27 35  1  0  0  0  0
 28 27  1  0  0  0  0
 29 31  1  6  0  0  0
 29 20  1  0  0  0  0
 29 28  1  0  0  0  0
 30 29  1  0  0  0  0
 30 27  1  0  0  0  0
 31 34  1  0  0  0  0
 32 31  1  0  0  0  0
 33 31  1  0  0  0  0
 35 36  1  0  0  0  0
 37  9  1  0  0  0  0
 38 37  1  0  0  0  0
 39 37  1  0  0  0  0
M  END
>  <minimizedAffinity>
-11.1906748

$$$$
