
 OpenBabel11232420503D

 39 44  0  0  1  0  0  0  0  0999 V2000
  -18.5620   21.8860   10.6020 C   0  0  0  0  0  0  0  0  0  0  0  0
  -18.8920   22.8540   11.5020 N   0  0  0  0  0  0  0  0  0  0  0  0
  -18.3750   24.0890   11.3350 C   0  0  0  0  0  0  0  0  0  0  0  0
  -18.7840   25.0800   12.3290 C   0  0  0  0  0  3  0  0  0  0  0  0
  -18.3320   26.3380   12.2570 C   0  0  0  0  0  3  0  0  0  0  0  0
  -17.4460   26.7140   11.2190 C   0  0  0  0  0  0  0  0  0  0  0  0
  -16.8840   27.8730   10.9660 N   0  0  0  0  0  0  0  0  0  0  0  0
  -16.0990   27.7240    9.8610 N   0  0  0  0  0  0  0  0  0  0  0  0
  -16.1860   26.4730    9.4430 C   0  0  0  0  0  0  0  0  0  0  0  0
  -17.0490   25.7750   10.2690 N   0  0  0  0  0  0  0  0  0  0  0  0
  -17.5130   24.4340   10.2950 C   0  0  0  0  0  0  0  0  0  0  0  0
  -17.1920   23.4450    9.3700 C   0  0  0  0  0  3  0  0  0  0  0  0
  -17.7180   22.1410    9.5030 C   0  0  0  0  0  0  0  0  0  0  0  0
  -17.3800   21.1420    8.4730 C   0  0  0  0  0  0  0  0  0  0  0  0
  -16.2930   20.2680    8.6510 C   0  0  0  0  0  3  0  0  0  0  0  0
  -15.9650   19.3210    7.6790 C   0  0  0  0  0  3  0  0  0  0  0  0
  -16.7150   19.2390    6.5080 C   0  0  0  0  0  3  0  0  0  0  0  0
  -17.7890   20.1030    6.3080 C   0  0  0  0  0  3  0  0  0  0  0  0
  -18.1170   21.0500    7.2820 C   0  0  0  0  0  3  0  0  0  0  0  0
  -20.3670   18.0310   11.6340 C   0  0  0  0  0  0  0  0  0  0  0  0
  -20.4880   19.1760   12.4440 C   0  0  0  0  0  3  0  0  0  0  0  0
  -19.9140   20.4090   12.1000 C   0  0  0  0  0  3  0  0  0  0  0  0
  -19.1800   20.5770   10.9200 C   0  0  0  0  0  0  0  0  0  0  0  0
  -19.0470   19.4520   10.0990 C   0  0  0  0  0  3  0  0  0  0  0  0
  -19.6420   18.2260   10.4350 C   0  0  0  0  0  3  0  0  0  0  0  0
  -20.9720   14.6630   14.9140 C   0  0  0  0  0  1  0  0  0  0  0  0
  -20.6080   15.8440   14.0260 C   0  0  2  0  0  0  0  0  0  0  0  0
  -21.8280   16.5290   13.3470 C   0  0  0  0  0  2  0  0  0  0  0  0
  -21.0020   16.6120   12.0330 C   0  0  2  0  0  0  0  0  0  0  0  0
  -20.1070   15.4680   12.6100 C   0  0  0  0  0  2  0  0  0  0  0  0
  -21.7700   16.1060   10.8660 N   0  0  0  0  0  4  0  0  0  0  0  0
  -21.1960   16.1450   10.0120 H   0  0  0  0  0  0  0  0  0  0  0  0
  -22.0850   15.1350   10.9800 H   0  0  0  0  0  0  0  0  0  0  0  0
  -22.6070   16.6730   10.6910 H   0  0  0  0  0  0  0  0  0  0  0  0
  -19.7510   16.7500   14.7430 O   0  0  0  0  0  0  0  0  0  0  0  0
  -19.0810   16.2080   15.2010 H   0  0  0  0  0  0  0  0  0  0  0  0
  -15.4420   25.9430    8.2850 C   0  0  0  0  0  3  0  0  0  0  0  0
  -14.9120   26.9460    7.5320 F   0  0  0  0  0  0  0  0  0  0  0  0
  -14.4000   25.1630    8.6770 F   0  0  0  0  0  0  0  0  0  0  0  0
  1 23  1  0  0  0  0
  1  2  1  0  0  0  0
  3  2  2  0  0  0  0
  3  4  1  0  0  0  0
  5  4  2  0  0  0  0
  6  5  1  0  0  0  0
  7  6  2  0  0  0  0
  8  7  1  0  0  0  0
  9  8  2  0  0  0  0
  9 10  1  0  0  0  0
 10 11  1  0  0  0  0
 10  6  1  0  0  0  0
 11  3  1  0  0  0  0
 12 13  1  0  0  0  0
 12 11  2  0  0  0  0
 13  1  2  0  0  0  0
 14 15  1  0  0  0  0
 14 13  1  0  0  0  0
 16 15  2  0  0  0  0
 17 16  1  0  0  0  0
 18 17  2  0  0  0  0
 18 19  1  0  0  0  0
 19 14  2  0  0  0  0
 20 29  1  0  0  0  0
 20 21  1  0  0  0  0
 22 21  2  0  0  0  0
 23 22  1  0  0  0  0
 24 25  1  0  0  0  0
 24 23  2  0  0  0  0
 25 20  2  0  0  0  0
 27 35  1  0  0  0  0
 27 26  1  1  0  0  0
 28 27  1  0  0  0  0
 29 31  1  6  0  0  0
 29 30  1  0  0  0  0
 29 28  1  0  0  0  0
 30 27  1  0  0  0  0
 31 33  1  0  0  0  0
 32 31  1  0  0  0  0
 34 31  1  0  0  0  0
 35 36  1  0  0  0  0
 37 39  1  0  0  0  0
 37  9  1  0  0  0  0
 38 37  1  0  0  0  0
M  END
>  <minimizedAffinity>
-11.4070091

$$$$
