
 OpenBabel11232420503D

 39 44  0  0  1  0  0  0  0  0999 V2000
  -19.3500   24.7960   11.1400 C   0  0  0  0  0  0  0  0  0  0  0  0
  -20.3610   24.1470   11.7840 N   0  0  0  0  0  0  0  0  0  0  0  0
  -20.4260   22.8030   11.6840 C   0  0  0  0  0  0  0  0  0  0  0  0
  -21.5260   22.1730   12.4130 C   0  0  0  0  0  3  0  0  0  0  0  0
  -21.6850   20.8440   12.3850 C   0  0  0  0  0  3  0  0  0  0  0  0
  -20.7890   20.0400   11.6400 C   0  0  0  0  0  0  0  0  0  0  0  0
  -20.7630   18.7380   11.4710 N   0  0  0  0  0  0  0  0  0  0  0  0
  -19.7120   18.4450   10.6540 N   0  0  0  0  0  0  0  0  0  0  0  0
  -19.1000   19.5700   10.3260 C   0  0  0  0  0  0  0  0  0  0  0  0
  -19.7390   20.6320   10.9410 N   0  0  0  0  0  0  0  0  0  0  0  0
  -19.5220   22.0350   10.9530 C   0  0  0  0  0  0  0  0  0  0  0  0
  -18.4830   22.7010   10.3110 C   0  0  0  0  0  3  0  0  0  0  0  0
  -18.3720   24.1070   10.3950 C   0  0  0  0  0  0  0  0  0  0  0  0
  -17.2290   24.7600    9.7310 C   0  0  0  0  0  0  0  0  0  0  0  0
  -16.8360   26.0590   10.0950 C   0  0  0  0  0  3  0  0  0  0  0  0
  -15.7560   26.6850    9.4680 C   0  0  0  0  0  3  0  0  0  0  0  0
  -15.0580   26.0230    8.4620 C   0  0  0  0  0  3  0  0  0  0  0  0
  -15.4390   24.7390    8.0790 C   0  0  0  0  0  3  0  0  0  0  0  0
  -16.5190   24.1130    8.7070 C   0  0  0  0  0  3  0  0  0  0  0  0
  -19.5440   29.1510   11.5630 C   0  0  0  0  0  0  0  0  0  0  0  0
  -20.3210   28.4350   10.6320 C   0  0  0  0  0  3  0  0  0  0  0  0
  -20.2590   27.0390   10.5110 C   0  0  0  0  0  3  0  0  0  0  0  0
  -19.4130   26.2660   11.3150 C   0  0  0  0  0  0  0  0  0  0  0  0
  -18.6310   26.9560   12.2480 C   0  0  0  0  0  3  0  0  0  0  0  0
  -18.7130   28.3510   12.3820 C   0  0  0  0  0  3  0  0  0  0  0  0
  -17.4160   33.3230   10.8350 C   0  0  0  0  0  1  0  0  0  0  0  0
  -17.8730   31.8820   11.0020 C   0  0  2  0  0  0  0  0  0  0  0  0
  -19.2850   31.5910   10.4210 C   0  0  0  0  0  2  0  0  0  0  0  0
  -19.5940   30.7500   11.6910 C   0  0  2  0  0  0  0  0  0  0  0  0
  -18.4420   31.5330   12.4000 C   0  0  0  0  0  2  0  0  0  0  0  0
  -20.8990   31.1240   12.2960 N   0  0  0  0  0  4  0  0  0  0  0  0
  -21.0720   30.5740   13.1490 H   0  0  0  0  0  0  0  0  0  0  0  0
  -20.9560   32.1160   12.5530 H   0  0  0  0  0  0  0  0  0  0  0  0
  -21.6790   30.9350   11.6550 H   0  0  0  0  0  0  0  0  0  0  0  0
  -16.8500   30.9860   10.5320 O   0  0  0  0  0  0  0  0  0  0  0  0
  -15.9990   31.3140   10.8830 H   0  0  0  0  0  0  0  0  0  0  0  0
  -17.9350   19.6360    9.4250 C   0  0  0  0  0  3  0  0  0  0  0  0
  -17.5240   18.3940    9.0500 F   0  0  0  0  0  0  0  0  0  0  0  0
  -18.2300   20.3080    8.2790 F   0  0  0  0  0  0  0  0  0  0  0  0
  1 23  1  0  0  0  0
  1  2  1  0  0  0  0
  3  2  2  0  0  0  0
  3  4  1  0  0  0  0
  5  4  2  0  0  0  0
  6  5  1  0  0  0  0
  7  6  2  0  0  0  0
  8  7  1  0  0  0  0
  9  8  2  0  0  0  0
  9 10  1  0  0  0  0
 10 11  1  0  0  0  0
 10  6  1  0  0  0  0
 11  3  1  0  0  0  0
 12 13  1  0  0  0  0
 12 11  2  0  0  0  0
 13  1  2  0  0  0  0
 14 15  1  0  0  0  0
 14 13  1  0  0  0  0
 16 15  2  0  0  0  0
 17 16  1  0  0  0  0
 18 17  2  0  0  0  0
 18 19  1  0  0  0  0
 19 14  2  0  0  0  0
 20 29  1  0  0  0  0
 20 25  1  0  0  0  0
 21 20  2  0  0  0  0
 22 21  1  0  0  0  0
 22 23  2  0  0  0  0
 23 24  1  0  0  0  0
 24 25  2  0  0  0  0
 27 26  1  6  0  0  0
 27 30  1  0  0  0  0
 28 27  1  0  0  0  0
 28 29  1  0  0  0  0
 29 31  1  1  0  0  0
 29 30  1  0  0  0  0
 31 33  1  0  0  0  0
 31 32  1  0  0  0  0
 34 31  1  0  0  0  0
 35 36  1  0  0  0  0
 35 27  1  0  0  0  0
 37  9  1  0  0  0  0
 38 37  1  0  0  0  0
 39 37  1  0  0  0  0
M  END
>  <minimizedAffinity>
-10.6543856

$$$$
