
 OpenBabel11232420503D

 39 44  0  0  1  0  0  0  0  0999 V2000
  -17.4940   30.8050   12.0370 C   0  0  0  0  0  0  0  0  0  0  0  0
  -16.5360   31.2710   11.1870 N   0  0  0  0  0  0  0  0  0  0  0  0
  -16.0320   32.5040   11.4020 C   0  0  0  0  0  0  0  0  0  0  0  0
  -14.9990   32.9320   10.4590 C   0  0  0  0  0  3  0  0  0  0  0  0
  -14.4280   34.1370   10.5810 C   0  0  0  0  0  3  0  0  0  0  0  0
  -14.8290   35.0090   11.6210 C   0  0  0  0  0  0  0  0  0  0  0  0
  -14.4150   36.2190   11.9170 N   0  0  0  0  0  0  0  0  0  0  0  0
  -15.1190   36.6480   13.0030 N   0  0  0  0  0  0  0  0  0  0  0  0
  -15.9630   35.6970   13.3650 C   0  0  0  0  0  0  0  0  0  0  0  0
  -15.8150   34.6100   12.5220 N   0  0  0  0  0  0  0  0  0  0  0  0
  -16.4380   33.3370   12.4430 C   0  0  0  0  0  0  0  0  0  0  0  0
  -17.4040   32.8500   13.3170 C   0  0  0  0  0  3  0  0  0  0  0  0
  -17.9530   31.5610   13.1350 C   0  0  0  0  0  0  0  0  0  0  0  0
  -18.9430   31.0770   14.1140 C   0  0  0  0  0  0  0  0  0  0  0  0
  -20.2600   30.7860   13.7170 C   0  0  0  0  0  3  0  0  0  0  0  0
  -21.2040   30.3300   14.6400 C   0  0  0  0  0  3  0  0  0  0  0  0
  -20.8460   30.1640   15.9750 C   0  0  0  0  0  3  0  0  0  0  0  0
  -19.5490   30.4560   16.3900 C   0  0  0  0  0  3  0  0  0  0  0  0
  -18.6050   30.9130   15.4660 C   0  0  0  0  0  3  0  0  0  0  0  0
  -18.8210   26.7710   10.9690 C   0  0  0  0  0  0  0  0  0  0  0  0
  -17.9130   27.0280   12.0140 C   0  0  0  0  0  3  0  0  0  0  0  0
  -17.5010   28.3250   12.3550 C   0  0  0  0  0  3  0  0  0  0  0  0
  -17.9730   29.4520   11.6710 C   0  0  0  0  0  0  0  0  0  0  0  0
  -18.8760   29.2200   10.6280 C   0  0  0  0  0  3  0  0  0  0  0  0
  -19.3030   27.9220   10.3050 C   0  0  0  0  0  3  0  0  0  0  0  0
  -17.6090   22.2680   10.1170 C   0  0  0  0  0  1  0  0  0  0  0  0
  -17.7450   23.7570   10.3960 C   0  0  2  0  0  0  0  0  0  0  0  0
  -18.8190   24.1100   11.4640 C   0  0  0  0  0  2  0  0  0  0  0  0
  -19.2780   25.2880   10.5600 C   0  0  2  0  0  0  0  0  0  0  0  0
  -18.5980   24.5410    9.3670 C   0  0  0  0  0  2  0  0  0  0  0  0
  -20.7510   25.2950   10.3700 N   0  0  0  0  0  4  0  0  0  0  0  0
  -21.0310   26.0670    9.7480 H   0  0  0  0  0  0  0  0  0  0  0  0
  -21.1110   24.4250    9.9600 H   0  0  0  0  0  0  0  0  0  0  0  0
  -21.2460   25.4340   11.2590 H   0  0  0  0  0  0  0  0  0  0  0  0
  -16.4500   24.3270   10.6570 O   0  0  0  0  0  0  0  0  0  0  0  0
  -15.8390   23.9700    9.9840 H   0  0  0  0  0  0  0  0  0  0  0  0
  -16.9110   35.8280   14.4870 C   0  0  0  0  0  3  0  0  0  0  0  0
  -16.5440   36.8270   15.3350 F   0  0  0  0  0  0  0  0  0  0  0  0
  -18.1620   36.1330   14.0490 F   0  0  0  0  0  0  0  0  0  0  0  0
  1 13  1  0  0  0  0
  2  3  1  0  0  0  0
  2  1  2  0  0  0  0
  3 11  2  0  0  0  0
  4  5  2  0  0  0  0
  4  3  1  0  0  0  0
  5  6  1  0  0  0  0
  6  7  2  0  0  0  0
  6 10  1  0  0  0  0
  7  8  1  0  0  0  0
  8  9  2  0  0  0  0
  9 37  1  0  0  0  0
 10  9  1  0  0  0  0
 11 10  1  0  0  0  0
 11 12  1  0  0  0  0
 13 12  2  0  0  0  0
 13 14  1  0  0  0  0
 14 19  1  0  0  0  0
 15 14  2  0  0  0  0
 15 16  1  0  0  0  0
 16 17  2  0  0  0  0
 17 18  1  0  0  0  0
 19 18  2  0  0  0  0
 20 21  1  0  0  0  0
 21 22  2  0  0  0  0
 23  1  1  0  0  0  0
 23 22  1  0  0  0  0
 24 23  2  0  0  0  0
 25 24  1  0  0  0  0
 25 20  2  0  0  0  0
 27 26  1  6  0  0  0
 27 35  1  0  0  0  0
 27 28  1  0  0  0  0
 29 31  1  6  0  0  0
 29 20  1  0  0  0  0
 29 28  1  0  0  0  0
 30 27  1  0  0  0  0
 30 29  1  0  0  0  0
 31 34  1  0  0  0  0
 32 31  1  0  0  0  0
 33 31  1  0  0  0  0
 36 35  1  0  0  0  0
 37 38  1  0  0  0  0
 39 37  1  0  0  0  0
M  END
>  <minimizedAffinity>
-10.5232019

$$$$
