
 OpenBabel11232420403D

 35 39  0  0  1  0  0  0  0  0999 V2000
  -17.6880   23.7430    9.0440 O   0  0  0  0  0  0  0  0  0  0  0  0
  -17.6890   27.1420   10.5610 C   0  0  0  0  0  0  0  0  0  0  0  0
  -16.3260   27.1670   10.8440 C   0  0  0  0  0  3  0  0  0  0  0  0
  -15.4740   26.1640   10.5360 N   0  0  0  0  0  0  0  0  0  0  0  0
  -15.9930   25.0920    9.9010 C   0  0  0  0  0  3  0  0  0  0  0  0
  -17.3400   24.9450    9.5860 C   0  0  0  0  0  0  0  0  0  0  0  0
  -18.1890   26.0010    9.9070 C   0  0  0  0  0  3  0  0  0  0  0  0
  -19.1410   30.3000   15.1770 C   0  0  0  0  0  1  0  0  0  0  0  0
  -19.7500   30.4690   13.8350 C   0  0  0  0  0  0  0  0  0  0  0  0
  -20.7080   31.3840   13.6420 N   0  0  0  0  0  0  0  0  0  0  0  0
  -21.0060   31.2730   12.3370 N   0  0  0  0  0  0  0  0  0  0  0  0
  -20.2940   30.3020   11.6820 C   0  0  0  0  0  0  0  0  0  0  0  0
  -20.3100   29.8740   10.3530 C   0  0  0  0  0  3  0  0  0  0  0  0
  -19.4360   28.8340   10.0070 C   0  0  0  0  0  3  0  0  0  0  0  0
  -18.5770   28.2430   10.9460 C   0  0  0  0  0  0  0  0  0  0  0  0
  -18.5820   28.7140   12.2740 C   0  0  0  0  0  3  0  0  0  0  0  0
  -19.4570   29.7530   12.6440 C   0  0  0  0  0  0  0  0  0  0  0  0
  -21.7110   31.8910   11.9510 H   0  0  0  0  0  0  0  0  0  0  0  0
  -18.1090   22.6610    9.8810 C   0  0  0  0  0  2  0  0  0  0  0  0
  -19.4700   22.1160    9.3970 C   0  0  1  0  0  3  0  0  0  0  0  0
  -20.4930   23.2210    9.3930 N   0  0  0  0  0  4  0  0  0  0  0  0
  -20.2630   23.9790    8.7380 H   0  0  0  0  0  0  0  0  0  0  0  0
  -21.4310   22.8680    9.1640 H   0  0  0  0  0  0  0  0  0  0  0  0
  -20.5540   23.6370   10.3350 H   0  0  0  0  0  0  0  0  0  0  0  0
  -19.3990   21.4980    7.9930 C   0  0  0  0  0  2  0  0  0  0  0  0
  -18.4050   20.3880    7.9200 C   0  0  0  0  0  0  0  0  0  0  0  0
  -18.4570   19.2110    8.6410 C   0  0  0  0  0  3  0  0  0  0  0  0
  -17.3730   18.4470    8.2990 N   0  0  0  0  0  0  0  0  0  0  0  0
  -16.6050   19.1080    7.3710 C   0  0  0  0  0  0  0  0  0  0  0  0
  -15.4160   18.7100    6.7490 C   0  0  0  0  0  3  0  0  0  0  0  0
  -14.8490   19.5820    5.8190 C   0  0  0  0  0  3  0  0  0  0  0  0
  -15.4510   20.8000    5.5200 C   0  0  0  0  0  3  0  0  0  0  0  0
  -16.6410   21.1840    6.1500 C   0  0  0  0  0  3  0  0  0  0  0  0
  -17.2320   20.3240    7.1000 C   0  0  0  0  0  0  0  0  0  0  0  0
  -17.1630   17.5250    8.6620 H   0  0  0  0  0  0  0  0  0  0  0  0
  1  6  1  0  0  0  0
  1 19  1  0  0  0  0
  2  3  1  0  0  0  0
  2 15  1  0  0  0  0
  4  3  2  0  0  0  0
  5  4  1  0  0  0  0
  6  5  2  0  0  0  0
  6  7  1  0  0  0  0
  7  2  2  0  0  0  0
  9  8  1  0  0  0  0
 10  9  2  0  0  0  0
 11 10  1  0  0  0  0
 12 11  1  0  0  0  0
 12 17  1  0  0  0  0
 13 12  2  0  0  0  0
 14 13  1  0  0  0  0
 14 15  2  0  0  0  0
 15 16  1  0  0  0  0
 16 17  2  0  0  0  0
 17  9  1  0  0  0  0
 18 11  1  0  0  0  0
 20 25  1  6  0  0  0
 20 19  1  0  0  0  0
 21 20  1  0  0  0  0
 21 24  1  0  0  0  0
 22 21  1  0  0  0  0
 23 21  1  0  0  0  0
 26 25  1  0  0  0  0
 26 27  2  0  0  0  0
 28 27  1  0  0  0  0
 28 35  1  0  0  0  0
 29 28  1  0  0  0  0
 30 29  2  0  0  0  0
 31 30  1  0  0  0  0
 32 31  2  0  0  0  0
 32 33  1  0  0  0  0
 33 34  2  0  0  0  0
 34 29  1  0  0  0  0
 34 26  1  0  0  0  0
M  END
>  <minimizedAffinity>
-10.423604

$$$$
