
 OpenBabel11232420403D

 35 39  0  0  1  0  0  0  0  0999 V2000
  -18.5830   19.4310    8.3450 O   0  0  0  0  0  0  0  0  0  0  0  0
  -20.0870   18.2640   11.5430 C   0  0  0  0  0  0  0  0  0  0  0  0
  -19.6670   16.9420   11.4180 C   0  0  0  0  0  3  0  0  0  0  0  0
  -18.9270   16.4810   10.3850 N   0  0  0  0  0  0  0  0  0  0  0  0
  -18.5710   17.3750    9.4380 C   0  0  0  0  0  3  0  0  0  0  0  0
  -18.9490   18.7140    9.4450 C   0  0  0  0  0  0  0  0  0  0  0  0
  -19.7010   19.1590   10.5290 C   0  0  0  0  0  3  0  0  0  0  0  0
  -21.0090   17.1230   17.1320 C   0  0  0  0  0  1  0  0  0  0  0  0
  -21.7540   18.1500   16.3650 C   0  0  0  0  0  0  0  0  0  0  0  0
  -22.7160   18.8660   16.9580 N   0  0  0  0  0  0  0  0  0  0  0  0
  -23.1510   19.6920   15.9910 N   0  0  0  0  0  0  0  0  0  0  0  0
  -22.5230   19.5190   14.7860 C   0  0  0  0  0  0  0  0  0  0  0  0
  -22.6840   20.1570   13.5540 C   0  0  0  0  0  3  0  0  0  0  0  0
  -21.8630   19.7290   12.5010 C   0  0  0  0  0  3  0  0  0  0  0  0
  -20.9160   18.7060   12.6670 C   0  0  0  0  0  0  0  0  0  0  0  0
  -20.7760   18.0970   13.9300 C   0  0  0  0  0  3  0  0  0  0  0  0
  -21.5960   18.5090   14.9990 C   0  0  0  0  0  0  0  0  0  0  0  0
  -23.8860   20.3520   16.2200 H   0  0  0  0  0  0  0  0  0  0  0  0
  -17.2110   19.5000    7.9430 C   0  0  0  0  0  2  0  0  0  0  0  0
  -16.6910   20.9480    8.0780 C   0  0  1  0  0  3  0  0  0  0  0  0
  -15.9680   21.3530    6.8210 N   0  0  0  0  0  4  0  0  0  0  0  0
  -16.5760   21.3660    5.9930 H   0  0  0  0  0  0  0  0  0  0  0  0
  -15.5310   22.2780    6.9170 H   0  0  0  0  0  0  0  0  0  0  0  0
  -15.2050   20.6830    6.6320 H   0  0  0  0  0  0  0  0  0  0  0  0
  -17.8130   21.9590    8.3550 C   0  0  0  0  0  2  0  0  0  0  0  0
  -17.8460   22.3820    9.7850 C   0  0  0  0  0  0  0  0  0  0  0  0
  -16.9910   21.9380   10.7760 C   0  0  0  0  0  3  0  0  0  0  0  0
  -17.3350   22.5540   11.9500 N   0  0  0  0  0  0  0  0  0  0  0  0
  -18.4090   23.3870   11.7480 C   0  0  0  0  0  0  0  0  0  0  0  0
  -19.0900   24.2030   12.6590 C   0  0  0  0  0  3  0  0  0  0  0  0
  -20.1490   24.9710   12.1730 C   0  0  0  0  0  3  0  0  0  0  0  0
  -20.5080   24.9260   10.8290 C   0  0  0  0  0  3  0  0  0  0  0  0
  -19.8170   24.1050    9.9300 C   0  0  0  0  0  3  0  0  0  0  0  0
  -18.7460   23.3130   10.3970 C   0  0  0  0  0  0  0  0  0  0  0  0
  -16.8690   22.4280   12.8400 H   0  0  0  0  0  0  0  0  0  0  0  0
  1  6  1  0  0  0  0
  2 15  1  0  0  0  0
  3  2  1  0  0  0  0
  4  3  2  0  0  0  0
  5  6  2  0  0  0  0
  5  4  1  0  0  0  0
  6  7  1  0  0  0  0
  7  2  2  0  0  0  0
  9 10  2  0  0  0  0
  9  8  1  0  0  0  0
 11 18  1  0  0  0  0
 11 10  1  0  0  0  0
 12 17  1  0  0  0  0
 12 11  1  0  0  0  0
 13 12  2  0  0  0  0
 14 15  2  0  0  0  0
 14 13  1  0  0  0  0
 15 16  1  0  0  0  0
 16 17  2  0  0  0  0
 17  9  1  0  0  0  0
 19  1  1  0  0  0  0
 20 19  1  6  0  0  0
 20 25  1  0  0  0  0
 21 23  1  0  0  0  0
 21 20  1  0  0  0  0
 22 21  1  0  0  0  0
 24 21  1  0  0  0  0
 25 26  1  0  0  0  0
 26 34  1  0  0  0  0
 26 27  2  0  0  0  0
 27 28  1  0  0  0  0
 28 35  1  0  0  0  0
 29 28  1  0  0  0  0
 29 30  1  0  0  0  0
 31 30  2  0  0  0  0
 32 31  1  0  0  0  0
 33 34  1  0  0  0  0
 33 32  2  0  0  0  0
 34 29  2  0  0  0  0
M  END
>  <minimizedAffinity>
-11.0035915

$$$$

 OpenBabel11232420403D

 35 39  0  0  1  0  0  0  0  0999 V2000
  -18.3090   20.1590    8.9230 O   0  0  0  0  0  0  0  0  0  0  0  0
  -20.2200   18.5940   11.7070 C   0  0  0  0  0  0  0  0  0  0  0  0
  -20.0180   17.2810   11.2910 C   0  0  0  0  0  3  0  0  0  0  0  0
  -19.2910   16.9380   10.2050 N   0  0  0  0  0  0  0  0  0  0  0  0
  -18.7210   17.9420    9.5060 C   0  0  0  0  0  3  0  0  0  0  0  0
  -18.8700   19.2910    9.8120 C   0  0  0  0  0  0  0  0  0  0  0  0
  -19.6160   19.6100   10.9430 C   0  0  0  0  0  3  0  0  0  0  0  0
  -20.9980   16.9870   17.2030 C   0  0  0  0  0  1  0  0  0  0  0  0
  -21.7950   18.0410   16.5290 C   0  0  0  0  0  0  0  0  0  0  0  0
  -22.7730   18.6700   17.1910 N   0  0  0  0  0  0  0  0  0  0  0  0
  -23.2560   19.5510   16.2990 N   0  0  0  0  0  0  0  0  0  0  0  0
  -22.6430   19.4970   15.0740 C   0  0  0  0  0  0  0  0  0  0  0  0
  -22.8500   20.2220   13.8990 C   0  0  0  0  0  3  0  0  0  0  0  0
  -22.0320   19.9100   12.8040 C   0  0  0  0  0  3  0  0  0  0  0  0
  -21.0450   18.9150   12.8750 C   0  0  0  0  0  0  0  0  0  0  0  0
  -20.8600   18.2160   14.0840 C   0  0  0  0  0  3  0  0  0  0  0  0
  -21.6750   18.5110   15.1940 C   0  0  0  0  0  0  0  0  0  0  0  0
  -24.0110   20.1630   16.5890 H   0  0  0  0  0  0  0  0  0  0  0  0
  -17.0860   20.8350    9.2370 C   0  0  0  0  0  2  0  0  0  0  0  0
  -17.3550   21.9770   10.2410 C   0  0  1  0  0  3  0  0  0  0  0  0
  -16.2930   21.9810   11.3090 N   0  0  0  0  0  4  0  0  0  0  0  0
  -15.3530   22.1680   10.9410 H   0  0  0  0  0  0  0  0  0  0  0  0
  -16.4970   22.6720   12.0430 H   0  0  0  0  0  0  0  0  0  0  0  0
  -16.2660   21.0590   11.7700 H   0  0  0  0  0  0  0  0  0  0  0  0
  -17.3950   23.3590    9.5730 C   0  0  0  0  0  2  0  0  0  0  0  0
  -18.6170   24.1270    9.9480 C   0  0  0  0  0  0  0  0  0  0  0  0
  -19.9190   23.7530    9.6780 C   0  0  0  0  0  3  0  0  0  0  0  0
  -20.7570   24.7120   10.1810 N   0  0  0  0  0  0  0  0  0  0  0  0
  -20.0260   25.7160   10.7690 C   0  0  0  0  0  0  0  0  0  0  0  0
  -20.4630   26.8860   11.4010 C   0  0  0  0  0  3  0  0  0  0  0  0
  -19.4910   27.7340   11.9340 C   0  0  0  0  0  3  0  0  0  0  0  0
  -18.1380   27.4210   11.8410 C   0  0  0  0  0  3  0  0  0  0  0  0
  -17.7170   26.2450   11.2060 C   0  0  0  0  0  3  0  0  0  0  0  0
  -18.6790   25.3740   10.6520 C   0  0  0  0  0  0  0  0  0  0  0  0
  -21.7690   24.6910   10.1390 H   0  0  0  0  0  0  0  0  0  0  0  0
  1 19  1  0  0  0  0
  1  6  1  0  0  0  0
  2 15  1  0  0  0  0
  3  2  1  0  0  0  0
  4  3  2  0  0  0  0
  5  6  2  0  0  0  0
  5  4  1  0  0  0  0
  6  7  1  0  0  0  0
  7  2  2  0  0  0  0
  9 10  2  0  0  0  0
  9  8  1  0  0  0  0
 11 18  1  0  0  0  0
 11 10  1  0  0  0  0
 12 17  1  0  0  0  0
 12 11  1  0  0  0  0
 13 12  2  0  0  0  0
 14 15  2  0  0  0  0
 14 13  1  0  0  0  0
 15 16  1  0  0  0  0
 16 17  2  0  0  0  0
 17  9  1  0  0  0  0
 20 19  1  6  0  0  0
 20 21  1  0  0  0  0
 21 24  1  0  0  0  0
 21 23  1  0  0  0  0
 22 21  1  0  0  0  0
 25 26  1  0  0  0  0
 25 20  1  0  0  0  0
 26 34  1  0  0  0  0
 27 26  2  0  0  0  0
 27 28  1  0  0  0  0
 28 29  1  0  0  0  0
 29 30  1  0  0  0  0
 30 31  2  0  0  0  0
 32 31  1  0  0  0  0
 33 32  2  0  0  0  0
 34 29  2  0  0  0  0
 34 33  1  0  0  0  0
 35 28  1  0  0  0  0
M  END
>  <minimizedAffinity>
-10.6632147

$$$$

 OpenBabel11232420403D

 35 39  0  0  1  0  0  0  0  0999 V2000
  -17.6880   23.7430    9.0440 O   0  0  0  0  0  0  0  0  0  0  0  0
  -17.6890   27.1420   10.5610 C   0  0  0  0  0  0  0  0  0  0  0  0
  -16.3260   27.1670   10.8440 C   0  0  0  0  0  3  0  0  0  0  0  0
  -15.4740   26.1640   10.5360 N   0  0  0  0  0  0  0  0  0  0  0  0
  -15.9930   25.0920    9.9010 C   0  0  0  0  0  3  0  0  0  0  0  0
  -17.3400   24.9450    9.5860 C   0  0  0  0  0  0  0  0  0  0  0  0
  -18.1890   26.0010    9.9070 C   0  0  0  0  0  3  0  0  0  0  0  0
  -19.1410   30.3000   15.1770 C   0  0  0  0  0  1  0  0  0  0  0  0
  -19.7500   30.4690   13.8350 C   0  0  0  0  0  0  0  0  0  0  0  0
  -20.7080   31.3840   13.6420 N   0  0  0  0  0  0  0  0  0  0  0  0
  -21.0060   31.2730   12.3370 N   0  0  0  0  0  0  0  0  0  0  0  0
  -20.2940   30.3020   11.6820 C   0  0  0  0  0  0  0  0  0  0  0  0
  -20.3100   29.8740   10.3530 C   0  0  0  0  0  3  0  0  0  0  0  0
  -19.4360   28.8340   10.0070 C   0  0  0  0  0  3  0  0  0  0  0  0
  -18.5770   28.2430   10.9460 C   0  0  0  0  0  0  0  0  0  0  0  0
  -18.5820   28.7140   12.2740 C   0  0  0  0  0  3  0  0  0  0  0  0
  -19.4570   29.7530   12.6440 C   0  0  0  0  0  0  0  0  0  0  0  0
  -21.7110   31.8910   11.9510 H   0  0  0  0  0  0  0  0  0  0  0  0
  -18.1090   22.6610    9.8810 C   0  0  0  0  0  2  0  0  0  0  0  0
  -19.4700   22.1160    9.3970 C   0  0  1  0  0  3  0  0  0  0  0  0
  -20.4930   23.2210    9.3930 N   0  0  0  0  0  4  0  0  0  0  0  0
  -20.2630   23.9790    8.7380 H   0  0  0  0  0  0  0  0  0  0  0  0
  -21.4310   22.8680    9.1640 H   0  0  0  0  0  0  0  0  0  0  0  0
  -20.5540   23.6370   10.3350 H   0  0  0  0  0  0  0  0  0  0  0  0
  -19.3990   21.4980    7.9930 C   0  0  0  0  0  2  0  0  0  0  0  0
  -18.4050   20.3880    7.9200 C   0  0  0  0  0  0  0  0  0  0  0  0
  -18.4570   19.2110    8.6410 C   0  0  0  0  0  3  0  0  0  0  0  0
  -17.3730   18.4470    8.2990 N   0  0  0  0  0  0  0  0  0  0  0  0
  -16.6050   19.1080    7.3710 C   0  0  0  0  0  0  0  0  0  0  0  0
  -15.4160   18.7100    6.7490 C   0  0  0  0  0  3  0  0  0  0  0  0
  -14.8490   19.5820    5.8190 C   0  0  0  0  0  3  0  0  0  0  0  0
  -15.4510   20.8000    5.5200 C   0  0  0  0  0  3  0  0  0  0  0  0
  -16.6410   21.1840    6.1500 C   0  0  0  0  0  3  0  0  0  0  0  0
  -17.2320   20.3240    7.1000 C   0  0  0  0  0  0  0  0  0  0  0  0
  -17.1630   17.5250    8.6620 H   0  0  0  0  0  0  0  0  0  0  0  0
  1  6  1  0  0  0  0
  1 19  1  0  0  0  0
  2  3  1  0  0  0  0
  2 15  1  0  0  0  0
  4  3  2  0  0  0  0
  5  4  1  0  0  0  0
  6  5  2  0  0  0  0
  6  7  1  0  0  0  0
  7  2  2  0  0  0  0
  9  8  1  0  0  0  0
 10  9  2  0  0  0  0
 11 10  1  0  0  0  0
 12 11  1  0  0  0  0
 12 17  1  0  0  0  0
 13 12  2  0  0  0  0
 14 13  1  0  0  0  0
 14 15  2  0  0  0  0
 15 16  1  0  0  0  0
 16 17  2  0  0  0  0
 17  9  1  0  0  0  0
 18 11  1  0  0  0  0
 20 25  1  6  0  0  0
 20 19  1  0  0  0  0
 21 20  1  0  0  0  0
 21 24  1  0  0  0  0
 22 21  1  0  0  0  0
 23 21  1  0  0  0  0
 26 25  1  0  0  0  0
 26 27  2  0  0  0  0
 28 27  1  0  0  0  0
 28 35  1  0  0  0  0
 29 28  1  0  0  0  0
 30 29  2  0  0  0  0
 31 30  1  0  0  0  0
 32 31  2  0  0  0  0
 32 33  1  0  0  0  0
 33 34  2  0  0  0  0
 34 29  1  0  0  0  0
 34 26  1  0  0  0  0
M  END
>  <minimizedAffinity>
-10.423604

$$$$

 OpenBabel11232420403D

 35 39  0  0  1  0  0  0  0  0999 V2000
  -19.7270   19.1180   12.2590 O   0  0  0  0  0  0  0  0  0  0  0  0
  -19.6520   22.7940   11.6850 C   0  0  0  0  0  0  0  0  0  0  0  0
  -21.0290   22.9780   11.7890 C   0  0  0  0  0  3  0  0  0  0  0  0
  -21.9040   21.9830   12.0550 N   0  0  0  0  0  0  0  0  0  0  0  0
  -21.3900   20.7490   12.2430 C   0  0  0  0  0  3  0  0  0  0  0  0
  -20.0370   20.4400   12.1430 C   0  0  0  0  0  0  0  0  0  0  0  0
  -19.1620   21.4910   11.8800 C   0  0  0  0  0  3  0  0  0  0  0  0
  -19.1560   28.5070   12.4070 C   0  0  0  0  0  1  0  0  0  0  0  0
  -18.1730   27.6790   11.6670 C   0  0  0  0  0  0  0  0  0  0  0  0
  -17.1020   28.2500   11.1040 N   0  0  0  0  0  0  0  0  0  0  0  0
  -16.4380   27.2220   10.5490 N   0  0  0  0  0  0  0  0  0  0  0  0
  -17.0540   26.0080   10.7110 C   0  0  0  0  0  0  0  0  0  0  0  0
  -16.7020   24.7240   10.2890 C   0  0  0  0  0  3  0  0  0  0  0  0
  -17.5730   23.6790   10.6300 C   0  0  0  0  0  3  0  0  0  0  0  0
  -18.7490   23.9030   11.3630 C   0  0  0  0  0  0  0  0  0  0  0  0
  -19.0600   25.2120   11.7810 C   0  0  0  0  0  3  0  0  0  0  0  0
  -18.2010   26.2760   11.4440 C   0  0  0  0  0  0  0  0  0  0  0  0
  -15.5670   27.4170   10.0690 H   0  0  0  0  0  0  0  0  0  0  0  0
  -20.1050   18.1890   11.2360 C   0  0  0  0  0  2  0  0  0  0  0  0
  -19.0490   18.1830   10.1100 C   0  0  1  0  0  3  0  0  0  0  0  0
  -18.5530   16.7790    9.8790 N   0  0  0  0  0  4  0  0  0  0  0  0
  -19.2900   16.1410    9.5550 H   0  0  0  0  0  0  0  0  0  0  0  0
  -17.7830   16.7570    9.1990 H   0  0  0  0  0  0  0  0  0  0  0  0
  -18.1810   16.3970   10.7620 H   0  0  0  0  0  0  0  0  0  0  0  0
  -19.5870   18.7450    8.7860 C   0  0  0  0  0  2  0  0  0  0  0  0
  -18.6960   19.8000    8.2230 C   0  0  0  0  0  0  0  0  0  0  0  0
  -18.9070   21.1630    8.3080 C   0  0  0  0  0  3  0  0  0  0  0  0
  -17.8740   21.8000    7.6740 N   0  0  0  0  0  0  0  0  0  0  0  0
  -16.9930   20.8770    7.1650 C   0  0  0  0  0  0  0  0  0  0  0  0
  -15.8090   21.0760    6.4460 C   0  0  0  0  0  3  0  0  0  0  0  0
  -15.0880   19.9440    6.0600 C   0  0  0  0  0  3  0  0  0  0  0  0
  -15.5340   18.6670    6.3860 C   0  0  0  0  0  3  0  0  0  0  0  0
  -16.7210   18.4840    7.1080 C   0  0  0  0  0  3  0  0  0  0  0  0
  -17.4720   19.6120    7.5030 C   0  0  0  0  0  0  0  0  0  0  0  0
  -17.7610   22.8030    7.5940 H   0  0  0  0  0  0  0  0  0  0  0  0
  2  3  2  0  0  0  0
  2  7  1  0  0  0  0
  3  4  1  0  0  0  0
  4  5  2  0  0  0  0
  6  5  1  0  0  0  0
  6  1  1  0  0  0  0
  7  6  2  0  0  0  0
  9  8  1  0  0  0  0
 10  9  2  0  0  0  0
 11 12  1  0  0  0  0
 11 10  1  0  0  0  0
 12 17  1  0  0  0  0
 13 14  1  0  0  0  0
 13 12  2  0  0  0  0
 14 15  2  0  0  0  0
 15  2  1  0  0  0  0
 15 16  1  0  0  0  0
 17  9  1  0  0  0  0
 17 16  2  0  0  0  0
 18 11  1  0  0  0  0
 19  1  1  0  0  0  0
 20 25  1  6  0  0  0
 20 19  1  0  0  0  0
 21 20  1  0  0  0  0
 21 24  1  0  0  0  0
 22 21  1  0  0  0  0
 23 21  1  0  0  0  0
 26 27  2  0  0  0  0
 26 25  1  0  0  0  0
 28 27  1  0  0  0  0
 29 34  1  0  0  0  0
 29 28  1  0  0  0  0
 30 29  2  0  0  0  0
 31 32  2  0  0  0  0
 31 30  1  0  0  0  0
 32 33  1  0  0  0  0
 33 34  2  0  0  0  0
 34 26  1  0  0  0  0
 35 28  1  0  0  0  0
M  END
>  <minimizedAffinity>
-10.1222229

$$$$

 OpenBabel11232420403D

 35 39  0  0  1  0  0  0  0  0999 V2000
  -18.4710   21.6170    7.9690 O   0  0  0  0  0  0  0  0  0  0  0  0
  -19.0070   18.5250    9.9700 C   0  0  0  0  0  0  0  0  0  0  0  0
  -18.2420   17.6970    9.1530 C   0  0  0  0  0  3  0  0  0  0  0  0
  -17.5820   18.1260    8.0540 N   0  0  0  0  0  0  0  0  0  0  0  0
  -17.6700   19.4400    7.7590 C   0  0  0  0  0  3  0  0  0  0  0  0
  -18.4190   20.3570    8.4880 C   0  0  0  0  0  0  0  0  0  0  0  0
  -19.0780   19.8860    9.6210 C   0  0  0  0  0  3  0  0  0  0  0  0
  -22.7800   20.2170   14.0070 C   0  0  0  0  0  1  0  0  0  0  0  0
  -22.2000   18.8540   13.9370 C   0  0  0  0  0  0  0  0  0  0  0  0
  -22.5300   17.9360   14.8530 N   0  0  0  0  0  0  0  0  0  0  0  0
  -21.8480   16.8410   14.4770 N   0  0  0  0  0  0  0  0  0  0  0  0
  -21.0680   17.0240   13.3650 C   0  0  0  0  0  0  0  0  0  0  0  0
  -20.2190   16.1580   12.6730 C   0  0  0  0  0  3  0  0  0  0  0  0
  -19.5560   16.6760   11.5510 C   0  0  0  0  0  3  0  0  0  0  0  0
  -19.7300   18.0040   11.1340 C   0  0  0  0  0  0  0  0  0  0  0  0
  -20.6070   18.8410   11.8530 C   0  0  0  0  0  3  0  0  0  0  0  0
  -21.2790   18.3420   12.9850 C   0  0  0  0  0  0  0  0  0  0  0  0
  -21.9570   15.9960   15.0270 H   0  0  0  0  0  0  0  0  0  0  0  0
  -18.4000   22.7620    8.8260 C   0  0  0  0  0  2  0  0  0  0  0  0
  -17.0350   22.8000    9.5470 C   0  0  1  0  0  3  0  0  0  0  0  0
  -16.2770   24.0370    9.1460 N   0  0  0  0  0  4  0  0  0  0  0  0
  -16.7480   24.9060    9.4250 H   0  0  0  0  0  0  0  0  0  0  0  0
  -15.3270   24.0430    9.5380 H   0  0  0  0  0  0  0  0  0  0  0  0
  -16.1740   24.0590    8.1190 H   0  0  0  0  0  0  0  0  0  0  0  0
  -17.1690   22.7730   11.0770 C   0  0  0  0  0  2  0  0  0  0  0  0
  -18.4590   23.3630   11.5360 C   0  0  0  0  0  0  0  0  0  0  0  0
  -19.5690   22.6520   11.9500 C   0  0  0  0  0  3  0  0  0  0  0  0
  -20.5500   23.5430   12.2940 N   0  0  0  0  0  0  0  0  0  0  0  0
  -20.1050   24.8290   12.1050 C   0  0  0  0  0  0  0  0  0  0  0  0
  -20.7660   26.0440   12.3210 C   0  0  0  0  0  3  0  0  0  0  0  0
  -20.0620   27.2200   12.0590 C   0  0  0  0  0  3  0  0  0  0  0  0
  -18.7480   27.1800   11.6020 C   0  0  0  0  0  3  0  0  0  0  0  0
  -18.0990   25.9570   11.3910 C   0  0  0  0  0  3  0  0  0  0  0  0
  -18.7920   24.7530   11.6420 C   0  0  0  0  0  0  0  0  0  0  0  0
  -21.4690   23.3020   12.6470 H   0  0  0  0  0  0  0  0  0  0  0  0
  1  6  1  0  0  0  0
  1 19  1  0  0  0  0
  2 15  1  0  0  0  0
  3  2  2  0  0  0  0
  4  3  1  0  0  0  0
  5  4  2  0  0  0  0
  5  6  1  0  0  0  0
  6  7  2  0  0  0  0
  7  2  1  0  0  0  0
  9  8  1  0  0  0  0
  9 10  2  0  0  0  0
 11 10  1  0  0  0  0
 11 18  1  0  0  0  0
 12 11  1  0  0  0  0
 13 12  2  0  0  0  0
 14 13  1  0  0  0  0
 15 14  2  0  0  0  0
 15 16  1  0  0  0  0
 16 17  2  0  0  0  0
 17 12  1  0  0  0  0
 17  9  1  0  0  0  0
 20 19  1  6  0  0  0
 20 25  1  0  0  0  0
 21 22  1  0  0  0  0
 21 23  1  0  0  0  0
 21 20  1  0  0  0  0
 24 21  1  0  0  0  0
 25 26  1  0  0  0  0
 26 34  1  0  0  0  0
 26 27  2  0  0  0  0
 27 28  1  0  0  0  0
 28 35  1  0  0  0  0
 29 28  1  0  0  0  0
 29 30  1  0  0  0  0
 31 30  2  0  0  0  0
 32 31  1  0  0  0  0
 33 32  2  0  0  0  0
 33 34  1  0  0  0  0
 34 29  2  0  0  0  0
M  END
>  <minimizedAffinity>
-10.0207253

$$$$

 OpenBabel11232420403D

 35 39  0  0  1  0  0  0  0  0999 V2000
  -19.0390   17.1990   10.0480 O   0  0  0  0  0  0  0  0  0  0  0  0
  -18.0470   20.5840    8.8620 C   0  0  0  0  0  0  0  0  0  0  0  0
  -17.0760   20.1390    7.9690 C   0  0  0  0  0  3  0  0  0  0  0  0
  -16.7930   18.8350    7.7530 N   0  0  0  0  0  0  0  0  0  0  0  0
  -17.5170   17.9280    8.4430 C   0  0  0  0  0  3  0  0  0  0  0  0
  -18.4950   18.2530    9.3760 C   0  0  0  0  0  0  0  0  0  0  0  0
  -18.7710   19.6050    9.5660 C   0  0  0  0  0  3  0  0  0  0  0  0
  -15.2060   25.6060    9.2010 C   0  0  0  0  0  1  0  0  0  0  0  0
  -16.6720   25.4710    9.3830 C   0  0  0  0  0  0  0  0  0  0  0  0
  -17.4160   26.5480    9.6610 N   0  0  0  0  0  0  0  0  0  0  0  0
  -18.6680   26.0670    9.7410 N   0  0  0  0  0  0  0  0  0  0  0  0
  -18.7590   24.7130    9.5490 C   0  0  0  0  0  0  0  0  0  0  0  0
  -19.8530   23.8450    9.5580 C   0  0  0  0  0  3  0  0  0  0  0  0
  -19.5920   22.4880    9.3210 C   0  0  0  0  0  3  0  0  0  0  0  0
  -18.2930   22.0120    9.0840 C   0  0  0  0  0  0  0  0  0  0  0  0
  -17.2190   22.9240    9.0710 C   0  0  0  0  0  3  0  0  0  0  0  0
  -17.4590   24.2910    9.3110 C   0  0  0  0  0  0  0  0  0  0  0  0
  -19.4210   26.7190    9.9320 H   0  0  0  0  0  0  0  0  0  0  0  0
  -20.4150   17.2170   10.4430 C   0  0  0  0  0  2  0  0  0  0  0  0
  -20.5230   17.2340   11.9830 C   0  0  1  0  0  3  0  0  0  0  0  0
  -19.5700   16.2290   12.5750 N   0  0  0  0  0  4  0  0  0  0  0  0
  -18.5850   16.4430   12.3770 H   0  0  0  0  0  0  0  0  0  0  0  0
  -19.6860   16.1510   13.5940 H   0  0  0  0  0  0  0  0  0  0  0  0
  -19.7680   15.2950   12.1830 H   0  0  0  0  0  0  0  0  0  0  0  0
  -20.2280   18.6150   12.5870 C   0  0  0  0  0  2  0  0  0  0  0  0
  -21.2720   19.0330   13.5660 C   0  0  0  0  0  0  0  0  0  0  0  0
  -22.2570   19.9750   13.3410 C   0  0  0  0  0  3  0  0  0  0  0  0
  -23.0210   20.0800   14.4730 N   0  0  0  0  0  0  0  0  0  0  0  0
  -22.5470   19.2290   15.4410 C   0  0  0  0  0  0  0  0  0  0  0  0
  -23.0130   19.0090   16.7430 C   0  0  0  0  0  3  0  0  0  0  0  0
  -22.3450   18.0600   17.5180 C   0  0  0  0  0  3  0  0  0  0  0  0
  -21.2580   17.3560   17.0080 C   0  0  0  0  0  3  0  0  0  0  0  0
  -20.8040   17.5860   15.7020 C   0  0  0  0  0  3  0  0  0  0  0  0
  -21.4580   18.5460   14.9010 C   0  0  0  0  0  0  0  0  0  0  0  0
  -23.8250   20.6860   14.5880 H   0  0  0  0  0  0  0  0  0  0  0  0
  1 19  1  0  0  0  0
  2 15  1  0  0  0  0
  2  7  1  0  0  0  0
  3  2  2  0  0  0  0
  4  3  1  0  0  0  0
  4  5  2  0  0  0  0
  5  6  1  0  0  0  0
  6  7  2  0  0  0  0
  6  1  1  0  0  0  0
  8  9  1  0  0  0  0
  9 10  2  0  0  0  0
 10 11  1  0  0  0  0
 11 18  1  0  0  0  0
 12 13  1  0  0  0  0
 12 11  1  0  0  0  0
 14 13  2  0  0  0  0
 15 14  1  0  0  0  0
 16 15  2  0  0  0  0
 16 17  1  0  0  0  0
 17  9  1  0  0  0  0
 17 12  2  0  0  0  0
 20 19  1  6  0  0  0
 20 21  1  0  0  0  0
 20 25  1  0  0  0  0
 21 23  1  0  0  0  0
 22 21  1  0  0  0  0
 24 21  1  0  0  0  0
 25 26  1  0  0  0  0
 26 34  1  0  0  0  0
 27 26  2  0  0  0  0
 27 28  1  0  0  0  0
 28 35  1  0  0  0  0
 28 29  1  0  0  0  0
 29 30  1  0  0  0  0
 30 31  2  0  0  0  0
 32 31  1  0  0  0  0
 33 32  2  0  0  0  0
 34 29  2  0  0  0  0
 34 33  1  0  0  0  0
M  END
>  <minimizedAffinity>
-9.90521717

$$$$

 OpenBabel11232420403D

 35 39  0  0  1  0  0  0  0  0999 V2000
  -18.5350   23.8420    9.3170 O   0  0  0  0  0  0  0  0  0  0  0  0
  -20.2140   21.1360   11.2420 C   0  0  0  0  0  0  0  0  0  0  0  0
  -21.1750   21.9570   11.8260 C   0  0  0  0  0  3  0  0  0  0  0  0
  -21.2790   23.2830   11.5840 N   0  0  0  0  0  0  0  0  0  0  0  0
  -20.4020   23.8180   10.7090 C   0  0  0  0  0  3  0  0  0  0  0  0
  -19.3870   23.1030   10.0810 C   0  0  0  0  0  0  0  0  0  0  0  0
  -19.3140   21.7370   10.3440 C   0  0  0  0  0  3  0  0  0  0  0  0
  -20.9600   17.4990   15.6710 C   0  0  0  0  0  1  0  0  0  0  0  0
  -20.5140   17.0770   14.3210 C   0  0  0  0  0  0  0  0  0  0  0  0
  -20.2400   15.7900   14.0750 N   0  0  0  0  0  0  0  0  0  0  0  0
  -19.8910   15.7730   12.7770 N   0  0  0  0  0  0  0  0  0  0  0  0
  -19.9040   17.0060   12.1800 C   0  0  0  0  0  0  0  0  0  0  0  0
  -19.6060   17.4110   10.8770 C   0  0  0  0  0  3  0  0  0  0  0  0
  -19.7240   18.7780   10.5910 C   0  0  0  0  0  3  0  0  0  0  0  0
  -20.1220   19.7090   11.5640 C   0  0  0  0  0  0  0  0  0  0  0  0
  -20.4270   19.2560   12.8630 C   0  0  0  0  0  3  0  0  0  0  0  0
  -20.3110   17.8870   13.1720 C   0  0  0  0  0  0  0  0  0  0  0  0
  -19.6520   14.8820   12.3570 H   0  0  0  0  0  0  0  0  0  0  0  0
  -17.1250   23.8190    9.5670 C   0  0  0  0  0  2  0  0  0  0  0  0
  -16.6820   25.1410   10.2280 C   0  0  1  0  0  3  0  0  0  0  0  0
  -15.1940   25.3170   10.0770 N   0  0  0  0  0  4  0  0  0  0  0  0
  -14.8960   25.3980    9.0980 H   0  0  0  0  0  0  0  0  0  0  0  0
  -14.8570   26.1430   10.5880 H   0  0  0  0  0  0  0  0  0  0  0  0
  -14.7090   24.5010   10.4800 H   0  0  0  0  0  0  0  0  0  0  0  0
  -17.3910   26.3690    9.6370 C   0  0  0  0  0  2  0  0  0  0  0  0
  -18.0510   27.1950   10.6890 C   0  0  0  0  0  0  0  0  0  0  0  0
  -19.3970   27.1810   10.9990 C   0  0  0  0  0  3  0  0  0  0  0  0
  -19.6160   28.0710   12.0170 N   0  0  0  0  0  0  0  0  0  0  0  0
  -18.4350   28.6760   12.3740 C   0  0  0  0  0  0  0  0  0  0  0  0
  -18.1900   29.6440   13.3550 C   0  0  0  0  0  3  0  0  0  0  0  0
  -16.8730   30.0780   13.5210 C   0  0  0  0  0  3  0  0  0  0  0  0
  -15.8450   29.5590   12.7400 C   0  0  0  0  0  3  0  0  0  0  0  0
  -16.1070   28.5890   11.7630 C   0  0  0  0  0  3  0  0  0  0  0  0
  -17.4300   28.1390   11.5700 C   0  0  0  0  0  0  0  0  0  0  0  0
  -20.5090   28.2570   12.4550 H   0  0  0  0  0  0  0  0  0  0  0  0
  1 19  1  0  0  0  0
  1  6  1  0  0  0  0
  2 15  1  0  0  0  0
  2  3  1  0  0  0  0
  4  3  2  0  0  0  0
  5  4  1  0  0  0  0
  6  7  1  0  0  0  0
  6  5  2  0  0  0  0
  7  2  2  0  0  0  0
  9  8  1  0  0  0  0
 10  9  2  0  0  0  0
 11 10  1  0  0  0  0
 12 11  1  0  0  0  0
 12 17  1  0  0  0  0
 13 12  2  0  0  0  0
 14 13  1  0  0  0  0
 14 15  2  0  0  0  0
 15 16  1  0  0  0  0
 16 17  2  0  0  0  0
 17  9  1  0  0  0  0
 18 11  1  0  0  0  0
 20 19  1  6  0  0  0
 21 20  1  0  0  0  0
 21 24  1  0  0  0  0
 21 23  1  0  0  0  0
 22 21  1  0  0  0  0
 25 20  1  0  0  0  0
 25 26  1  0  0  0  0
 26 27  2  0  0  0  0
 26 34  1  0  0  0  0
 27 28  1  0  0  0  0
 28 29  1  0  0  0  0
 28 35  1  0  0  0  0
 29 30  1  0  0  0  0
 30 31  2  0  0  0  0
 32 31  1  0  0  0  0
 33 32  2  0  0  0  0
 34 33  1  0  0  0  0
 34 29  2  0  0  0  0
M  END
>  <minimizedAffinity>
-9.8521347

$$$$

 OpenBabel11232420403D

 35 39  0  0  1  0  0  0  0  0999 V2000
  -18.1400   22.2480    8.3560 O   0  0  0  0  0  0  0  0  0  0  0  0
  -18.9140   18.9260    9.8460 C   0  0  0  0  0  0  0  0  0  0  0  0
  -18.2730   18.1800    8.8610 C   0  0  0  0  0  3  0  0  0  0  0  0
  -17.6160   18.7240    7.8120 N   0  0  0  0  0  0  0  0  0  0  0  0
  -17.5780   20.0720    7.7440 C   0  0  0  0  0  3  0  0  0  0  0  0
  -18.1990   20.9190    8.6560 C   0  0  0  0  0  0  0  0  0  0  0  0
  -18.8570   20.3270    9.7300 C   0  0  0  0  0  3  0  0  0  0  0  0
  -22.7480   20.1740   13.9860 C   0  0  0  0  0  1  0  0  0  0  0  0
  -22.1490   18.8310   13.7920 C   0  0  0  0  0  0  0  0  0  0  0  0
  -22.4740   17.8250   14.6120 N   0  0  0  0  0  0  0  0  0  0  0  0
  -21.7730   16.7800   14.1400 N   0  0  0  0  0  0  0  0  0  0  0  0
  -20.9860   17.0790   13.0590 C   0  0  0  0  0  0  0  0  0  0  0  0
  -20.1180   16.2950   12.2950 C   0  0  0  0  0  3  0  0  0  0  0  0
  -19.4520   16.9270   11.2360 C   0  0  0  0  0  3  0  0  0  0  0  0
  -19.6410   18.2870   10.9460 C   0  0  0  0  0  0  0  0  0  0  0  0
  -20.5360   19.0390   11.7330 C   0  0  0  0  0  3  0  0  0  0  0  0
  -21.2110   18.4250   12.8050 C   0  0  0  0  0  0  0  0  0  0  0  0
  -21.8750   15.8850   14.6050 H   0  0  0  0  0  0  0  0  0  0  0  0
  -17.5720   23.1800    9.2830 C   0  0  0  0  0  2  0  0  0  0  0  0
  -18.5550   24.3450    9.5310 C   0  0  1  0  0  3  0  0  0  0  0  0
  -19.9600   23.9070    9.2140 N   0  0  0  0  0  4  0  0  0  0  0  0
  -20.2920   23.1470    9.8210 H   0  0  0  0  0  0  0  0  0  0  0  0
  -20.6250   24.6890    9.2800 H   0  0  0  0  0  0  0  0  0  0  0  0
  -20.0020   23.5640    8.2410 H   0  0  0  0  0  0  0  0  0  0  0  0
  -18.5090   24.8650   10.9750 C   0  0  0  0  0  2  0  0  0  0  0  0
  -17.9270   26.2360   11.0580 C   0  0  0  0  0  0  0  0  0  0  0  0
  -16.6590   26.5990   10.6480 C   0  0  0  0  0  3  0  0  0  0  0  0
  -16.4960   27.9390   10.8840 N   0  0  0  0  0  0  0  0  0  0  0  0
  -17.6340   28.4580   11.4530 C   0  0  0  0  0  0  0  0  0  0  0  0
  -17.9090   29.7680   11.8610 C   0  0  0  0  0  3  0  0  0  0  0  0
  -19.1710   30.0260   12.3990 C   0  0  0  0  0  3  0  0  0  0  0  0
  -20.1190   29.0140   12.5190 C   0  0  0  0  0  3  0  0  0  0  0  0
  -19.8290   27.7080   12.1050 C   0  0  0  0  0  3  0  0  0  0  0  0
  -18.5570   27.4190   11.5640 C   0  0  0  0  0  0  0  0  0  0  0  0
  -15.6670   28.4780   10.6680 H   0  0  0  0  0  0  0  0  0  0  0  0
  1  6  1  0  0  0  0
  1 19  1  0  0  0  0
  2 15  1  0  0  0  0
  3  2  2  0  0  0  0
  4  3  1  0  0  0  0
  5  4  2  0  0  0  0
  5  6  1  0  0  0  0
  6  7  2  0  0  0  0
  7  2  1  0  0  0  0
  9  8  1  0  0  0  0
  9 10  2  0  0  0  0
 11 18  1  0  0  0  0
 11 10  1  0  0  0  0
 12 11  1  0  0  0  0
 13 12  2  0  0  0  0
 14 13  1  0  0  0  0
 15 14  2  0  0  0  0
 15 16  1  0  0  0  0
 16 17  2  0  0  0  0
 17 12  1  0  0  0  0
 17  9  1  0  0  0  0
 20 19  1  1  0  0  0
 20 25  1  0  0  0  0
 21 23  1  0  0  0  0
 21 20  1  0  0  0  0
 21 22  1  0  0  0  0
 24 21  1  0  0  0  0
 25 26  1  0  0  0  0
 26 34  1  0  0  0  0
 27 28  1  0  0  0  0
 27 26  2  0  0  0  0
 28 29  1  0  0  0  0
 29 34  2  0  0  0  0
 29 30  1  0  0  0  0
 30 31  2  0  0  0  0
 31 32  1  0  0  0  0
 33 32  2  0  0  0  0
 34 33  1  0  0  0  0
 35 28  1  0  0  0  0
M  END
>  <minimizedAffinity>
-9.85011864

$$$$

 OpenBabel11232420403D

 35 39  0  0  1  0  0  0  0  0999 V2000
  -18.0780   25.5830   11.6760 O   0  0  0  0  0  0  0  0  0  0  0  0
  -19.5440   22.2820   10.7790 C   0  0  0  0  0  0  0  0  0  0  0  0
  -20.8460   22.6030   11.1520 C   0  0  0  0  0  3  0  0  0  0  0  0
  -21.2160   23.8120   11.6300 N   0  0  0  0  0  0  0  0  0  0  0  0
  -20.2540   24.7530   11.7270 C   0  0  0  0  0  3  0  0  0  0  0  0
  -18.9170   24.5430   11.4060 C   0  0  0  0  0  0  0  0  0  0  0  0
  -18.5720   23.2900   10.9060 C   0  0  0  0  0  3  0  0  0  0  0  0
  -20.4220   16.7070   12.0210 C   0  0  0  0  0  1  0  0  0  0  0  0
  -19.5770   17.1800   10.8980 C   0  0  0  0  0  0  0  0  0  0  0  0
  -18.9490   16.2980   10.1120 N   0  0  0  0  0  0  0  0  0  0  0  0
  -18.3060   17.0630    9.2130 N   0  0  0  0  0  0  0  0  0  0  0  0
  -18.4750   18.4090    9.4040 C   0  0  0  0  0  0  0  0  0  0  0  0
  -17.9810   19.5150    8.7100 C   0  0  0  0  0  3  0  0  0  0  0  0
  -18.3540   20.7830    9.1790 C   0  0  0  0  0  3  0  0  0  0  0  0
  -19.1880   20.9440   10.2960 C   0  0  0  0  0  0  0  0  0  0  0  0
  -19.6760   19.8010   10.9600 C   0  0  0  0  0  3  0  0  0  0  0  0
  -19.3080   18.5190   10.5080 C   0  0  0  0  0  0  0  0  0  0  0  0
  -17.7630   16.6010    8.4910 H   0  0  0  0  0  0  0  0  0  0  0  0
  -18.4820   26.9320   11.4160 C   0  0  0  0  0  2  0  0  0  0  0  0
  -17.3310   27.9040   11.7540 C   0  0  1  0  0  3  0  0  0  0  0  0
  -16.3240   27.9160   10.6350 N   0  0  0  0  0  4  0  0  0  0  0  0
  -16.7110   28.2620    9.7490 H   0  0  0  0  0  0  0  0  0  0  0  0
  -15.5000   28.4830   10.8730 H   0  0  0  0  0  0  0  0  0  0  0  0
  -15.9840   26.9560   10.4680 H   0  0  0  0  0  0  0  0  0  0  0  0
  -17.8180   29.3390   12.0020 C   0  0  0  0  0  2  0  0  0  0  0  0
  -17.9150   29.6540   13.4560 C   0  0  0  0  0  0  0  0  0  0  0  0
  -16.8590   29.6850   14.3460 C   0  0  0  0  0  3  0  0  0  0  0  0
  -17.3460   30.0140   15.5830 N   0  0  0  0  0  0  0  0  0  0  0  0
  -18.7070   30.1910   15.5210 C   0  0  0  0  0  0  0  0  0  0  0  0
  -19.6110   30.5280   16.5360 C   0  0  0  0  0  3  0  0  0  0  0  0
  -20.9560   30.6620   16.1860 C   0  0  0  0  0  3  0  0  0  0  0  0
  -21.3760   30.4710   14.8730 C   0  0  0  0  0  3  0  0  0  0  0  0
  -20.4600   30.1350   13.8690 C   0  0  0  0  0  3  0  0  0  0  0  0
  -19.0950   29.9860   14.1970 C   0  0  0  0  0  0  0  0  0  0  0  0
  -16.7940   30.1230   16.4250 H   0  0  0  0  0  0  0  0  0  0  0  0
  2  7  2  0  0  0  0
  2  3  1  0  0  0  0
  3  4  2  0  0  0  0
  4  5  1  0  0  0  0
  6  1  1  0  0  0  0
  6  5  2  0  0  0  0
  7  6  1  0  0  0  0
  9  8  1  0  0  0  0
 10  9  2  0  0  0  0
 11 12  1  0  0  0  0
 11 10  1  0  0  0  0
 12 17  1  0  0  0  0
 13 14  1  0  0  0  0
 13 12  2  0  0  0  0
 14 15  2  0  0  0  0
 15  2  1  0  0  0  0
 15 16  1  0  0  0  0
 17  9  1  0  0  0  0
 17 16  2  0  0  0  0
 18 11  1  0  0  0  0
 19  1  1  0  0  0  0
 20 19  1  6  0  0  0
 20 25  1  0  0  0  0
 21 23  1  0  0  0  0
 21 20  1  0  0  0  0
 22 21  1  0  0  0  0
 24 21  1  0  0  0  0
 25 26  1  0  0  0  0
 26 34  1  0  0  0  0
 26 27  2  0  0  0  0
 27 28  1  0  0  0  0
 28 35  1  0  0  0  0
 29 28  1  0  0  0  0
 29 30  1  0  0  0  0
 31 30  2  0  0  0  0
 32 31  1  0  0  0  0
 33 34  1  0  0  0  0
 33 32  2  0  0  0  0
 34 29  2  0  0  0  0
M  END
>  <minimizedAffinity>
-9.75530815

$$$$
