
 OpenBabel11232420403D

 35 39  0  0  1  0  0  0  0  0999 V2000
  -18.5830   19.4310    8.3450 O   0  0  0  0  0  0  0  0  0  0  0  0
  -20.0870   18.2640   11.5430 C   0  0  0  0  0  0  0  0  0  0  0  0
  -19.6670   16.9420   11.4180 C   0  0  0  0  0  3  0  0  0  0  0  0
  -18.9270   16.4810   10.3850 N   0  0  0  0  0  0  0  0  0  0  0  0
  -18.5710   17.3750    9.4380 C   0  0  0  0  0  3  0  0  0  0  0  0
  -18.9490   18.7140    9.4450 C   0  0  0  0  0  0  0  0  0  0  0  0
  -19.7010   19.1590   10.5290 C   0  0  0  0  0  3  0  0  0  0  0  0
  -21.0090   17.1230   17.1320 C   0  0  0  0  0  1  0  0  0  0  0  0
  -21.7540   18.1500   16.3650 C   0  0  0  0  0  0  0  0  0  0  0  0
  -22.7160   18.8660   16.9580 N   0  0  0  0  0  0  0  0  0  0  0  0
  -23.1510   19.6920   15.9910 N   0  0  0  0  0  0  0  0  0  0  0  0
  -22.5230   19.5190   14.7860 C   0  0  0  0  0  0  0  0  0  0  0  0
  -22.6840   20.1570   13.5540 C   0  0  0  0  0  3  0  0  0  0  0  0
  -21.8630   19.7290   12.5010 C   0  0  0  0  0  3  0  0  0  0  0  0
  -20.9160   18.7060   12.6670 C   0  0  0  0  0  0  0  0  0  0  0  0
  -20.7760   18.0970   13.9300 C   0  0  0  0  0  3  0  0  0  0  0  0
  -21.5960   18.5090   14.9990 C   0  0  0  0  0  0  0  0  0  0  0  0
  -23.8860   20.3520   16.2200 H   0  0  0  0  0  0  0  0  0  0  0  0
  -17.2110   19.5000    7.9430 C   0  0  0  0  0  2  0  0  0  0  0  0
  -16.6910   20.9480    8.0780 C   0  0  1  0  0  3  0  0  0  0  0  0
  -15.9680   21.3530    6.8210 N   0  0  0  0  0  4  0  0  0  0  0  0
  -16.5760   21.3660    5.9930 H   0  0  0  0  0  0  0  0  0  0  0  0
  -15.5310   22.2780    6.9170 H   0  0  0  0  0  0  0  0  0  0  0  0
  -15.2050   20.6830    6.6320 H   0  0  0  0  0  0  0  0  0  0  0  0
  -17.8130   21.9590    8.3550 C   0  0  0  0  0  2  0  0  0  0  0  0
  -17.8460   22.3820    9.7850 C   0  0  0  0  0  0  0  0  0  0  0  0
  -16.9910   21.9380   10.7760 C   0  0  0  0  0  3  0  0  0  0  0  0
  -17.3350   22.5540   11.9500 N   0  0  0  0  0  0  0  0  0  0  0  0
  -18.4090   23.3870   11.7480 C   0  0  0  0  0  0  0  0  0  0  0  0
  -19.0900   24.2030   12.6590 C   0  0  0  0  0  3  0  0  0  0  0  0
  -20.1490   24.9710   12.1730 C   0  0  0  0  0  3  0  0  0  0  0  0
  -20.5080   24.9260   10.8290 C   0  0  0  0  0  3  0  0  0  0  0  0
  -19.8170   24.1050    9.9300 C   0  0  0  0  0  3  0  0  0  0  0  0
  -18.7460   23.3130   10.3970 C   0  0  0  0  0  0  0  0  0  0  0  0
  -16.8690   22.4280   12.8400 H   0  0  0  0  0  0  0  0  0  0  0  0
  1  6  1  0  0  0  0
  2 15  1  0  0  0  0
  3  2  1  0  0  0  0
  4  3  2  0  0  0  0
  5  6  2  0  0  0  0
  5  4  1  0  0  0  0
  6  7  1  0  0  0  0
  7  2  2  0  0  0  0
  9 10  2  0  0  0  0
  9  8  1  0  0  0  0
 11 18  1  0  0  0  0
 11 10  1  0  0  0  0
 12 17  1  0  0  0  0
 12 11  1  0  0  0  0
 13 12  2  0  0  0  0
 14 15  2  0  0  0  0
 14 13  1  0  0  0  0
 15 16  1  0  0  0  0
 16 17  2  0  0  0  0
 17  9  1  0  0  0  0
 19  1  1  0  0  0  0
 20 19  1  6  0  0  0
 20 25  1  0  0  0  0
 21 23  1  0  0  0  0
 21 20  1  0  0  0  0
 22 21  1  0  0  0  0
 24 21  1  0  0  0  0
 25 26  1  0  0  0  0
 26 34  1  0  0  0  0
 26 27  2  0  0  0  0
 27 28  1  0  0  0  0
 28 35  1  0  0  0  0
 29 28  1  0  0  0  0
 29 30  1  0  0  0  0
 31 30  2  0  0  0  0
 32 31  1  0  0  0  0
 33 34  1  0  0  0  0
 33 32  2  0  0  0  0
 34 29  2  0  0  0  0
M  END
>  <minimizedAffinity>
-11.0035915

$$$$
