
 OpenBabel11232420403D

 35 39  0  0  1  0  0  0  0  0999 V2000
  -18.4710   21.6170    7.9690 O   0  0  0  0  0  0  0  0  0  0  0  0
  -19.0070   18.5250    9.9700 C   0  0  0  0  0  0  0  0  0  0  0  0
  -18.2420   17.6970    9.1530 C   0  0  0  0  0  3  0  0  0  0  0  0
  -17.5820   18.1260    8.0540 N   0  0  0  0  0  0  0  0  0  0  0  0
  -17.6700   19.4400    7.7590 C   0  0  0  0  0  3  0  0  0  0  0  0
  -18.4190   20.3570    8.4880 C   0  0  0  0  0  0  0  0  0  0  0  0
  -19.0780   19.8860    9.6210 C   0  0  0  0  0  3  0  0  0  0  0  0
  -22.7800   20.2170   14.0070 C   0  0  0  0  0  1  0  0  0  0  0  0
  -22.2000   18.8540   13.9370 C   0  0  0  0  0  0  0  0  0  0  0  0
  -22.5300   17.9360   14.8530 N   0  0  0  0  0  0  0  0  0  0  0  0
  -21.8480   16.8410   14.4770 N   0  0  0  0  0  0  0  0  0  0  0  0
  -21.0680   17.0240   13.3650 C   0  0  0  0  0  0  0  0  0  0  0  0
  -20.2190   16.1580   12.6730 C   0  0  0  0  0  3  0  0  0  0  0  0
  -19.5560   16.6760   11.5510 C   0  0  0  0  0  3  0  0  0  0  0  0
  -19.7300   18.0040   11.1340 C   0  0  0  0  0  0  0  0  0  0  0  0
  -20.6070   18.8410   11.8530 C   0  0  0  0  0  3  0  0  0  0  0  0
  -21.2790   18.3420   12.9850 C   0  0  0  0  0  0  0  0  0  0  0  0
  -21.9570   15.9960   15.0270 H   0  0  0  0  0  0  0  0  0  0  0  0
  -18.4000   22.7620    8.8260 C   0  0  0  0  0  2  0  0  0  0  0  0
  -17.0350   22.8000    9.5470 C   0  0  1  0  0  3  0  0  0  0  0  0
  -16.2770   24.0370    9.1460 N   0  0  0  0  0  4  0  0  0  0  0  0
  -16.7480   24.9060    9.4250 H   0  0  0  0  0  0  0  0  0  0  0  0
  -15.3270   24.0430    9.5380 H   0  0  0  0  0  0  0  0  0  0  0  0
  -16.1740   24.0590    8.1190 H   0  0  0  0  0  0  0  0  0  0  0  0
  -17.1690   22.7730   11.0770 C   0  0  0  0  0  2  0  0  0  0  0  0
  -18.4590   23.3630   11.5360 C   0  0  0  0  0  0  0  0  0  0  0  0
  -19.5690   22.6520   11.9500 C   0  0  0  0  0  3  0  0  0  0  0  0
  -20.5500   23.5430   12.2940 N   0  0  0  0  0  0  0  0  0  0  0  0
  -20.1050   24.8290   12.1050 C   0  0  0  0  0  0  0  0  0  0  0  0
  -20.7660   26.0440   12.3210 C   0  0  0  0  0  3  0  0  0  0  0  0
  -20.0620   27.2200   12.0590 C   0  0  0  0  0  3  0  0  0  0  0  0
  -18.7480   27.1800   11.6020 C   0  0  0  0  0  3  0  0  0  0  0  0
  -18.0990   25.9570   11.3910 C   0  0  0  0  0  3  0  0  0  0  0  0
  -18.7920   24.7530   11.6420 C   0  0  0  0  0  0  0  0  0  0  0  0
  -21.4690   23.3020   12.6470 H   0  0  0  0  0  0  0  0  0  0  0  0
  1  6  1  0  0  0  0
  1 19  1  0  0  0  0
  2 15  1  0  0  0  0
  3  2  2  0  0  0  0
  4  3  1  0  0  0  0
  5  4  2  0  0  0  0
  5  6  1  0  0  0  0
  6  7  2  0  0  0  0
  7  2  1  0  0  0  0
  9  8  1  0  0  0  0
  9 10  2  0  0  0  0
 11 10  1  0  0  0  0
 11 18  1  0  0  0  0
 12 11  1  0  0  0  0
 13 12  2  0  0  0  0
 14 13  1  0  0  0  0
 15 14  2  0  0  0  0
 15 16  1  0  0  0  0
 16 17  2  0  0  0  0
 17 12  1  0  0  0  0
 17  9  1  0  0  0  0
 20 19  1  6  0  0  0
 20 25  1  0  0  0  0
 21 22  1  0  0  0  0
 21 23  1  0  0  0  0
 21 20  1  0  0  0  0
 24 21  1  0  0  0  0
 25 26  1  0  0  0  0
 26 34  1  0  0  0  0
 26 27  2  0  0  0  0
 27 28  1  0  0  0  0
 28 35  1  0  0  0  0
 29 28  1  0  0  0  0
 29 30  1  0  0  0  0
 31 30  2  0  0  0  0
 32 31  1  0  0  0  0
 33 32  2  0  0  0  0
 33 34  1  0  0  0  0
 34 29  2  0  0  0  0
M  END
>  <minimizedAffinity>
-10.0207253

$$$$
