
 OpenBabel11232419293D

 38 42  0  0  1  0  0  0  0  0999 V2000
   37.3150   43.9490   19.6390 C   0  0  2  0  0  3  0  0  0  0  0  0
   38.2680   44.5320   18.9280 N   0  0  0  0  0  2  0  0  0  0  0  0
   37.6580   45.3620   18.0250 C   0  0  2  0  0  3  0  0  0  0  0  0
   36.3010   45.1660   18.0770 C   0  0  0  0  0  2  0  0  0  0  0  0
   36.1070   44.1690   19.0100 N   0  0  0  0  0  0  0  0  0  0  0  0
   38.3890   46.2510   17.1370 C   0  0  0  0  0  0  0  0  0  0  0  0
   39.6660   46.7380   17.4580 C   0  0  0  0  0  3  0  0  0  0  0  0
   40.3380   47.5980   16.5840 C   0  0  0  0  0  3  0  0  0  0  0  0
   39.7380   47.9750   15.3870 C   0  0  0  0  0  0  0  0  0  0  0  0
   40.3990   48.8080   14.5700 F   0  0  0  0  0  0  0  0  0  0  0  0
   38.4760   47.4960   15.0500 C   0  0  0  0  0  0  0  0  0  0  0  0
   37.7230   47.9640   13.5740 Cl  0  0  0  0  0  0  0  0  0  0  0  0
   37.8040   46.6340   15.9190 C   0  0  0  0  0  3  0  0  0  0  0  0
   38.1960   42.9610   23.7640 N   0  0  0  0  0  0  0  0  0  0  0  0
   39.3150   43.2450   22.8660 C   0  0  0  0  0  2  0  0  0  0  0  0
   38.8530   43.9590   21.5950 C   0  0  0  0  0  2  0  0  0  0  0  0
   37.6570   43.2410   20.9360 C   0  0  1  0  0  3  0  0  0  0  0  0
   36.5440   43.0260   21.9600 C   0  0  0  0  0  2  0  0  0  0  0  0
   37.0630   42.2580   23.1800 C   0  0  0  0  0  2  0  0  0  0  0  0
   37.4650   43.5920   25.9950 C   0  0  0  0  0  0  0  0  0  0  0  0
   37.1810   44.6530   26.8490 C   0  0  0  0  0  0  0  0  0  0  0  0
   36.8080   44.4670   28.1660 N   0  0  0  0  0  0  0  0  0  0  0  0
   37.3150   45.9330   26.4900 N   0  0  0  0  0  0  0  0  0  0  0  0
   37.7430   46.1550   25.2460 C   0  0  0  0  0  3  0  0  0  0  0  0
   38.0170   45.2230   24.3290 N   0  0  0  0  0  0  0  0  0  0  0  0
   37.8900   43.9410   24.7090 C   0  0  0  0  0  0  0  0  0  0  0  0
   36.6870   45.3450   28.6600 H   0  0  0  0  0  0  0  0  0  0  0  0
   36.1540   43.7340   28.3920 H   0  0  0  0  0  0  0  0  0  0  0  0
   38.7760   41.7080   27.0170 C   0  0  0  0  0  1  0  0  0  0  0  0
   37.4290   42.1610   26.4710 C   0  0  0  0  0  2  0  0  0  0  0  0
   34.8570   43.4480   19.0840 C   0  0  0  0  0  2  0  0  0  0  0  0
   34.6730   42.4200   17.9510 C   0  0  0  0  0  2  0  0  0  0  0  0
   33.3420   42.5350   17.2290 N   0  0  0  0  0  4  0  0  0  0  0  0
   33.1850   43.7510   16.3110 C   0  0  0  0  0  2  0  0  0  0  0  0
   31.8500   44.3700   16.6940 C   0  0  0  0  0  2  0  0  0  0  0  0
   31.0810   43.2410   17.3460 C   0  0  0  0  0  2  0  0  0  0  0  0
   32.1480   42.5500   18.1630 C   0  0  0  0  0  2  0  0  0  0  0  0
   33.2200   41.7100   16.6280 H   0  0  0  0  0  0  0  0  0  0  0  0
  1  2  1  1  0  0  0
  1 17  1  0  0  0  0
  3  6  1  6  0  0  0
  3  4  1  0  0  0  0
  3  2  1  0  0  0  0
  4  5  1  0  0  0  0
  5 31  1  0  0  0  0
  5  1  1  0  0  0  0
  6  7  1  0  0  0  0
  8  7  2  0  0  0  0
  9  8  1  0  0  0  0
 10  9  1  0  0  0  0
 11  9  2  0  0  0  0
 11 13  1  0  0  0  0
 12 11  1  0  0  0  0
 13  6  2  0  0  0  0
 14 26  1  0  0  0  0
 15 14  1  0  0  0  0
 16 15  1  0  0  0  0
 17 16  1  1  0  0  0
 17 18  1  0  0  0  0
 18 19  1  0  0  0  0
 19 14  1  0  0  0  0
 20 30  1  0  0  0  0
 20 21  1  0  0  0  0
 21 22  1  0  0  0  0
 22 28  1  0  0  0  0
 22 27  1  0  0  0  0
 23 21  2  0  0  0  0
 24 23  1  0  0  0  0
 25 26  1  0  0  0  0
 25 24  2  0  0  0  0
 26 20  2  0  0  0  0
 30 29  1  0  0  0  0
 32 31  1  0  0  0  0
 33 32  1  0  0  0  0
 33 37  1  0  0  0  0
 34 35  1  0  0  0  0
 34 33  1  0  0  0  0
 35 36  1  0  0  0  0
 36 37  1  0  0  0  0
 38 33  1  0  0  0  0
M  END
>  <minimizedAffinity>
-10.3049574

$$$$
