
 OpenBabel11232419293D

 38 42  0  0  1  0  0  0  0  0999 V2000
   36.0550   43.1420   20.1060 C   0  0  2  0  0  3  0  0  0  0  0  0
   36.4610   42.6340   21.2590 N   0  0  0  0  0  2  0  0  0  0  0  0
   37.4790   43.4240   21.7230 C   0  0  2  0  0  3  0  0  0  0  0  0
   37.8080   44.3450   20.7600 C   0  0  0  0  0  2  0  0  0  0  0  0
   36.9880   44.0670   19.6860 N   0  0  0  0  0  0  0  0  0  0  0  0
   38.1100   43.2370   23.0180 C   0  0  0  0  0  0  0  0  0  0  0  0
   39.4840   43.4460   23.2130 C   0  0  0  0  0  3  0  0  0  0  0  0
   40.0610   43.2500   24.4730 C   0  0  0  0  0  3  0  0  0  0  0  0
   39.2670   42.8450   25.5410 C   0  0  0  0  0  0  0  0  0  0  0  0
   39.8450   42.6550   26.7350 F   0  0  0  0  0  0  0  0  0  0  0  0
   37.9020   42.6410   25.3660 C   0  0  0  0  0  0  0  0  0  0  0  0
   36.9140   42.1320   26.6810 Cl  0  0  0  0  0  0  0  0  0  0  0  0
   37.3230   42.8400   24.1110 C   0  0  0  0  0  3  0  0  0  0  0  0
   32.3510   42.8940   17.8720 N   0  0  0  0  0  0  0  0  0  0  0  0
   32.3050   43.4280   19.2330 C   0  0  0  0  0  2  0  0  0  0  0  0
   33.6930   43.8310   19.7300 C   0  0  0  0  0  2  0  0  0  0  0  0
   34.7300   42.7100   19.5080 C   0  0  1  0  0  3  0  0  0  0  0  0
   34.7070   42.2540   18.0500 C   0  0  0  0  0  2  0  0  0  0  0  0
   33.2990   41.8140   17.6360 C   0  0  0  0  0  2  0  0  0  0  0  0
   30.9420   44.0520   16.2660 C   0  0  0  0  0  0  0  0  0  0  0  0
   30.9110   44.9840   15.2330 C   0  0  0  0  0  0  0  0  0  0  0  0
   29.7380   45.3700   14.6140 N   0  0  0  0  0  0  0  0  0  0  0  0
   31.9980   45.6340   14.8060 N   0  0  0  0  0  0  0  0  0  0  0  0
   33.1420   45.3430   15.4260 C   0  0  0  0  0  3  0  0  0  0  0  0
   33.3010   44.4480   16.4060 N   0  0  0  0  0  0  0  0  0  0  0  0
   32.1970   43.8130   16.8340 C   0  0  0  0  0  0  0  0  0  0  0  0
   29.8880   46.0920   13.9190 H   0  0  0  0  0  0  0  0  0  0  0  0
   29.0500   44.6700   14.3900 H   0  0  0  0  0  0  0  0  0  0  0  0
   29.3530   42.1100   16.1390 C   0  0  0  0  0  1  0  0  0  0  0  0
   29.6790   43.4350   16.8120 C   0  0  0  0  0  2  0  0  0  0  0  0
   37.2790   44.5870   18.3690 C   0  0  0  0  0  2  0  0  0  0  0  0
   38.6020   45.3720   18.2980 C   0  0  0  0  0  2  0  0  0  0  0  0
   38.6270   46.4340   17.2130 N   0  0  0  0  0  4  0  0  0  0  0  0
   38.1950   45.9720   15.8180 C   0  0  0  0  0  2  0  0  0  0  0  0
   39.2840   46.4660   14.8790 C   0  0  0  0  0  2  0  0  0  0  0  0
   39.9390   47.6100   15.6240 C   0  0  0  0  0  2  0  0  0  0  0  0
   39.9840   47.0900   17.0430 C   0  0  0  0  0  2  0  0  0  0  0  0
   37.9800   47.1900   17.4740 H   0  0  0  0  0  0  0  0  0  0  0  0
  1  2  1  1  0  0  0
  2  3  1  0  0  0  0
  3  6  1  6  0  0  0
  4  3  1  0  0  0  0
  5  1  1  0  0  0  0
  5  4  1  0  0  0  0
  6  7  2  0  0  0  0
  6 13  1  0  0  0  0
  7  8  1  0  0  0  0
  8  9  2  0  0  0  0
  9 10  1  0  0  0  0
 11  9  1  0  0  0  0
 11 12  1  0  0  0  0
 13 11  2  0  0  0  0
 14 15  1  0  0  0  0
 15 16  1  0  0  0  0
 17 18  1  6  0  0  0
 17 16  1  0  0  0  0
 17  1  1  0  0  0  0
 19 14  1  0  0  0  0
 19 18  1  0  0  0  0
 20 30  1  0  0  0  0
 20 26  1  0  0  0  0
 21 20  2  0  0  0  0
 22 21  1  0  0  0  0
 23 21  1  0  0  0  0
 23 24  2  0  0  0  0
 24 25  1  0  0  0  0
 25 26  2  0  0  0  0
 26 14  1  0  0  0  0
 27 22  1  0  0  0  0
 28 22  1  0  0  0  0
 29 30  1  0  0  0  0
 31  5  1  0  0  0  0
 32 31  1  0  0  0  0
 33 38  1  0  0  0  0
 33 32  1  0  0  0  0
 34 33  1  0  0  0  0
 35 36  1  0  0  0  0
 35 34  1  0  0  0  0
 36 37  1  0  0  0  0
 37 33  1  0  0  0  0
M  END
>  <minimizedAffinity>
-9.95411396

$$$$
