
 OpenBabel11232419293D

 38 42  0  0  1  0  0  0  0  0999 V2000
   36.1000   43.9920   18.9030 C   0  0  2  0  0  3  0  0  0  0  0  0
   36.4140   44.9070   18.0000 N   0  0  0  0  0  2  0  0  0  0  0  0
   37.7480   45.1840   18.1410 C   0  0  2  0  0  3  0  0  0  0  0  0
   38.2260   44.5410   19.2550 C   0  0  0  0  0  2  0  0  0  0  0  0
   37.1380   43.8970   19.8060 N   0  0  0  0  0  0  0  0  0  0  0  0
   38.4790   46.0710   17.2520 C   0  0  0  0  0  0  0  0  0  0  0  0
   39.6980   46.6590   17.6250 C   0  0  0  0  0  3  0  0  0  0  0  0
   40.3720   47.5150   16.7460 C   0  0  0  0  0  3  0  0  0  0  0  0
   39.8320   47.7850   15.4940 C   0  0  0  0  0  0  0  0  0  0  0  0
   40.4920   48.6150   14.6740 F   0  0  0  0  0  0  0  0  0  0  0  0
   38.6280   47.2040   15.1060 C   0  0  0  0  0  0  0  0  0  0  0  0
   37.9480   47.5400   13.5600 Cl  0  0  0  0  0  0  0  0  0  0  0  0
   37.9550   46.3470   15.9790 C   0  0  0  0  0  3  0  0  0  0  0  0
   32.0260   42.7520   18.1010 N   0  0  0  0  0  0  0  0  0  0  0  0
   32.3330   43.3170   19.4150 C   0  0  0  0  0  2  0  0  0  0  0  0
   33.6650   44.0670   19.4120 C   0  0  0  0  0  2  0  0  0  0  0  0
   34.7960   43.2250   18.7880 C   0  0  1  0  0  3  0  0  0  0  0  0
   34.3750   42.7140   17.4110 C   0  0  0  0  0  2  0  0  0  0  0  0
   33.0630   41.9270   17.4970 C   0  0  0  0  0  2  0  0  0  0  0  0
   30.0040   43.2110   16.8330 C   0  0  0  0  0  0  0  0  0  0  0  0
   29.3790   44.0890   15.9540 C   0  0  0  0  0  0  0  0  0  0  0  0
   28.0780   43.9110   15.5230 N   0  0  0  0  0  0  0  0  0  0  0  0
   29.9550   45.2120   15.5130 N   0  0  0  0  0  0  0  0  0  0  0  0
   31.1860   45.4580   15.9620 C   0  0  0  0  0  3  0  0  0  0  0  0
   31.8970   44.6790   16.7810 N   0  0  0  0  0  0  0  0  0  0  0  0
   31.2990   43.5610   17.2270 C   0  0  0  0  0  0  0  0  0  0  0  0
   27.7620   44.6670   14.9260 H   0  0  0  0  0  0  0  0  0  0  0  0
   27.7680   42.9850   15.2740 H   0  0  0  0  0  0  0  0  0  0  0  0
   29.4410   40.7780   16.5570 C   0  0  0  0  0  1  0  0  0  0  0  0
   29.2770   42.0240   17.4150 C   0  0  0  0  0  2  0  0  0  0  0  0
   37.1680   43.4110   21.1670 C   0  0  0  0  0  2  0  0  0  0  0  0
   37.8260   44.3920   22.1540 C   0  0  0  0  0  2  0  0  0  0  0  0
   38.0780   43.8020   23.5300 N   0  0  0  0  0  4  0  0  0  0  0  0
   37.3370   42.4980   23.8410 C   0  0  0  0  0  2  0  0  0  0  0  0
   36.6880   42.7210   25.1980 C   0  0  0  0  0  2  0  0  0  0  0  0
   37.5030   43.8290   25.8320 C   0  0  0  0  0  2  0  0  0  0  0  0
   37.7560   44.7550   24.6640 C   0  0  0  0  0  2  0  0  0  0  0  0
   39.0790   43.5860   23.6200 H   0  0  0  0  0  0  0  0  0  0  0  0
  1  2  1  6  0  0  0
  1  5  1  0  0  0  0
  2  3  1  0  0  0  0
  3  6  1  1  0  0  0
  3  4  1  0  0  0  0
  4  5  1  0  0  0  0
  5 31  1  0  0  0  0
  6  7  1  0  0  0  0
  8  7  2  0  0  0  0
  9  8  1  0  0  0  0
 10  9  1  0  0  0  0
 11  9  2  0  0  0  0
 11 13  1  0  0  0  0
 12 11  1  0  0  0  0
 13  6  2  0  0  0  0
 14 15  1  0  0  0  0
 16 15  1  0  0  0  0
 17 18  1  6  0  0  0
 17  1  1  0  0  0  0
 17 16  1  0  0  0  0
 18 19  1  0  0  0  0
 19 14  1  0  0  0  0
 20 26  1  0  0  0  0
 20 30  1  0  0  0  0
 21 20  2  0  0  0  0
 22 21  1  0  0  0  0
 23 21  1  0  0  0  0
 23 24  2  0  0  0  0
 24 25  1  0  0  0  0
 25 26  2  0  0  0  0
 26 14  1  0  0  0  0
 27 22  1  0  0  0  0
 28 22  1  0  0  0  0
 29 30  1  0  0  0  0
 31 32  1  0  0  0  0
 32 33  1  0  0  0  0
 33 38  1  0  0  0  0
 33 34  1  0  0  0  0
 33 37  1  0  0  0  0
 34 35  1  0  0  0  0
 35 36  1  0  0  0  0
 37 36  1  0  0  0  0
M  END
>  <minimizedAffinity>
-11.152545

$$$$
