
 OpenBabel11232419293D

 38 42  0  0  1  0  0  0  0  0999 V2000
   36.3460   44.3880   18.4470 C   0  0  2  0  0  3  0  0  0  0  0  0
   36.5570   43.8610   19.6420 N   0  0  0  0  0  2  0  0  0  0  0  0
   37.7850   44.2910   20.0720 C   0  0  2  0  0  3  0  0  0  0  0  0
   38.4050   44.9700   19.0540 C   0  0  0  0  0  2  0  0  0  0  0  0
   37.5370   44.9070   17.9840 N   0  0  0  0  0  0  0  0  0  0  0  0
   38.3170   44.0000   21.3930 C   0  0  0  0  0  0  0  0  0  0  0  0
   39.6420   44.3030   21.7440 C   0  0  0  0  0  3  0  0  0  0  0  0
   40.1240   44.0020   23.0220 C   0  0  0  0  0  3  0  0  0  0  0  0
   39.2860   43.3980   23.9530 C   0  0  0  0  0  0  0  0  0  0  0  0
   39.7740   43.1110   25.1680 F   0  0  0  0  0  0  0  0  0  0  0  0
   37.9670   43.0970   23.6230 C   0  0  0  0  0  0  0  0  0  0  0  0
   36.9260   42.3420   24.7670 Cl  0  0  0  0  0  0  0  0  0  0  0  0
   37.4820   43.4000   22.3490 C   0  0  0  0  0  3  0  0  0  0  0  0
   32.3710   43.3240   17.0890 N   0  0  0  0  0  0  0  0  0  0  0  0
   33.4820   43.2040   16.1440 C   0  0  0  0  0  2  0  0  0  0  0  0
   34.8340   43.2140   16.8560 C   0  0  0  0  0  2  0  0  0  0  0  0
   34.9520   44.3880   17.8500 C   0  0  1  0  0  3  0  0  0  0  0  0
   33.7560   44.3940   18.8010 C   0  0  0  0  0  2  0  0  0  0  0  0
   32.4370   44.4410   18.0220 C   0  0  0  0  0  2  0  0  0  0  0  0
   30.5840   41.6820   17.2040 C   0  0  0  0  0  0  0  0  0  0  0  0
   30.1630   40.4860   17.7780 C   0  0  0  0  0  0  0  0  0  0  0  0
   28.9650   39.8830   17.4460 N   0  0  0  0  0  0  0  0  0  0  0  0
   30.9120   39.7870   18.6360 N   0  0  0  0  0  0  0  0  0  0  0  0
   32.1080   40.2990   18.9270 C   0  0  0  0  0  3  0  0  0  0  0  0
   32.6070   41.4490   18.4660 N   0  0  0  0  0  0  0  0  0  0  0  0
   31.8480   42.1330   17.5930 C   0  0  0  0  0  0  0  0  0  0  0  0
   28.8370   38.9950   17.9180 H   0  0  0  0  0  0  0  0  0  0  0  0
   28.1430   40.4550   17.3400 H   0  0  0  0  0  0  0  0  0  0  0  0
   28.7390   43.3230   16.7360 C   0  0  0  0  0  1  0  0  0  0  0  0
   29.7720   42.3770   16.1400 C   0  0  0  0  0  2  0  0  0  0  0  0
   37.9850   45.1960   16.6400 C   0  0  0  0  0  2  0  0  0  0  0  0
   37.8440   46.6800   16.2520 C   0  0  0  0  0  2  0  0  0  0  0  0
   36.9830   46.9140   15.0230 N   0  0  0  0  0  4  0  0  0  0  0  0
   36.3440   45.6640   14.4110 C   0  0  0  0  0  2  0  0  0  0  0  0
   36.6600   45.7410   12.9250 C   0  0  0  0  0  2  0  0  0  0  0  0
   36.9320   47.2080   12.6700 C   0  0  0  0  0  2  0  0  0  0  0  0
   37.7190   47.6110   13.8960 C   0  0  0  0  0  2  0  0  0  0  0  0
   36.2040   47.5340   15.2780 H   0  0  0  0  0  0  0  0  0  0  0  0
  1  2  1  1  0  0  0
  2  3  1  0  0  0  0
  3  6  1  6  0  0  0
  4  3  1  0  0  0  0
  5  1  1  0  0  0  0
  5  4  1  0  0  0  0
  6  7  2  0  0  0  0
  6 13  1  0  0  0  0
  7  8  1  0  0  0  0
  8  9  2  0  0  0  0
  9 10  1  0  0  0  0
 11  9  1  0  0  0  0
 11 12  1  0  0  0  0
 13 11  2  0  0  0  0
 14 26  1  0  0  0  0
 14 19  1  0  0  0  0
 15 16  1  0  0  0  0
 15 14  1  0  0  0  0
 17 16  1  1  0  0  0
 17  1  1  0  0  0  0
 17 18  1  0  0  0  0
 19 18  1  0  0  0  0
 20 26  2  0  0  0  0
 20 21  1  0  0  0  0
 21 23  2  0  0  0  0
 22 21  1  0  0  0  0
 22 27  1  0  0  0  0
 23 24  1  0  0  0  0
 25 24  2  0  0  0  0
 26 25  1  0  0  0  0
 28 22  1  0  0  0  0
 30 29  1  0  0  0  0
 30 20  1  0  0  0  0
 31  5  1  0  0  0  0
 32 31  1  0  0  0  0
 33 38  1  0  0  0  0
 33 32  1  0  0  0  0
 34 33  1  0  0  0  0
 35 34  1  0  0  0  0
 36 35  1  0  0  0  0
 36 37  1  0  0  0  0
 37 33  1  0  0  0  0
M  END
>  <minimizedAffinity>
-9.9506197

$$$$
