
 OpenBabel11232419293D

 38 42  0  0  1  0  0  0  0  0999 V2000
   36.9200   44.3150   19.4450 C   0  0  2  0  0  3  0  0  0  0  0  0
   36.5260   43.8260   20.6110 N   0  0  0  0  0  2  0  0  0  0  0  0
   37.5400   44.0340   21.5090 C   0  0  2  0  0  3  0  0  0  0  0  0
   38.6370   44.5190   20.8440 C   0  0  0  0  0  2  0  0  0  0  0  0
   38.2750   44.5650   19.5140 N   0  0  0  0  0  0  0  0  0  0  0  0
   37.4300   43.7200   22.9240 C   0  0  0  0  0  0  0  0  0  0  0  0
   36.9940   42.4650   23.3760 C   0  0  0  0  0  3  0  0  0  0  0  0
   36.8930   42.1990   24.7450 C   0  0  0  0  0  3  0  0  0  0  0  0
   37.2290   43.1850   25.6680 C   0  0  0  0  0  0  0  0  0  0  0  0
   37.1150   42.9080   26.9740 F   0  0  0  0  0  0  0  0  0  0  0  0
   37.6700   44.4320   25.2360 C   0  0  0  0  0  0  0  0  0  0  0  0
   38.0800   45.6600   26.3710 Cl  0  0  0  0  0  0  0  0  0  0  0  0
   37.7750   44.6990   23.8700 C   0  0  0  0  0  3  0  0  0  0  0  0
   33.6010   44.0380   16.6740 N   0  0  0  0  0  0  0  0  0  0  0  0
   34.8910   43.4820   16.2680 C   0  0  0  0  0  2  0  0  0  0  0  0
   35.8240   43.2850   17.4620 C   0  0  0  0  0  2  0  0  0  0  0  0
   35.9110   44.5510   18.3380 C   0  0  1  0  0  3  0  0  0  0  0  0
   34.5090   45.0220   18.7240 C   0  0  0  0  0  2  0  0  0  0  0  0
   33.6470   45.2510   17.4780 C   0  0  0  0  0  2  0  0  0  0  0  0
   31.3590   43.1540   16.3630 C   0  0  0  0  0  0  0  0  0  0  0  0
   30.4380   42.1960   16.7780 C   0  0  0  0  0  0  0  0  0  0  0  0
   29.1900   42.0640   16.1990 N   0  0  0  0  0  0  0  0  0  0  0  0
   30.7090   41.2830   17.7160 N   0  0  0  0  0  0  0  0  0  0  0  0
   31.9300   41.3310   18.2500 C   0  0  0  0  0  3  0  0  0  0  0  0
   32.8840   42.2180   17.9570 N   0  0  0  0  0  0  0  0  0  0  0  0
   32.6010   43.1220   17.0030 C   0  0  0  0  0  0  0  0  0  0  0  0
   28.6670   41.2870   16.5850 H   0  0  0  0  0  0  0  0  0  0  0  0
   28.6630   42.8930   15.9780 H   0  0  0  0  0  0  0  0  0  0  0  0
   30.3730   45.3590   15.6690 C   0  0  0  0  0  1  0  0  0  0  0  0
   31.0680   44.0840   15.2120 C   0  0  0  0  0  2  0  0  0  0  0  0
   39.2700   44.6840   18.4730 C   0  0  0  0  0  2  0  0  0  0  0  0
   39.8110   46.1160   18.3010 C   0  0  0  0  0  2  0  0  0  0  0  0
   39.1970   46.8680   17.1340 N   0  0  0  0  0  4  0  0  0  0  0  0
   38.4640   46.0090   16.0990 C   0  0  0  0  0  2  0  0  0  0  0  0
   39.0120   46.4540   14.7520 C   0  0  0  0  0  2  0  0  0  0  0  0
   39.5540   47.8450   15.0010 C   0  0  0  0  0  2  0  0  0  0  0  0
   40.2000   47.7030   16.3610 C   0  0  0  0  0  2  0  0  0  0  0  0
   38.4990   47.5310   17.4970 H   0  0  0  0  0  0  0  0  0  0  0  0
  1  5  1  0  0  0  0
  1  2  1  1  0  0  0
  2  3  1  0  0  0  0
  3  6  1  6  0  0  0
  4  3  1  0  0  0  0
  5  4  1  0  0  0  0
  6  7  2  0  0  0  0
  6 13  1  0  0  0  0
  7  8  1  0  0  0  0
  8  9  2  0  0  0  0
  9 10  1  0  0  0  0
 11  9  1  0  0  0  0
 11 12  1  0  0  0  0
 13 11  2  0  0  0  0
 14 26  1  0  0  0  0
 14 19  1  0  0  0  0
 15 14  1  0  0  0  0
 15 16  1  0  0  0  0
 17 16  1  1  0  0  0
 17 18  1  0  0  0  0
 17  1  1  0  0  0  0
 19 18  1  0  0  0  0
 20 21  2  0  0  0  0
 20 26  1  0  0  0  0
 21 23  1  0  0  0  0
 22 27  1  0  0  0  0
 22 21  1  0  0  0  0
 23 24  2  0  0  0  0
 25 24  1  0  0  0  0
 26 25  2  0  0  0  0
 28 22  1  0  0  0  0
 30 29  1  0  0  0  0
 30 20  1  0  0  0  0
 31  5  1  0  0  0  0
 32 31  1  0  0  0  0
 33 38  1  0  0  0  0
 33 32  1  0  0  0  0
 34 33  1  0  0  0  0
 35 36  1  0  0  0  0
 35 34  1  0  0  0  0
 36 37  1  0  0  0  0
 37 33  1  0  0  0  0
M  END
>  <minimizedAffinity>
-10.5517464

$$$$
