
 OpenBabel11232419293D

 38 42  0  0  1  0  0  0  0  0999 V2000
   36.6230   44.0230   19.6030 C   0  0  2  0  0  3  0  0  0  0  0  0
   35.3040   43.9160   19.5710 N   0  0  0  0  0  2  0  0  0  0  0  0
   34.9000   44.1820   18.2900 C   0  0  2  0  0  3  0  0  0  0  0  0
   35.9770   44.6140   17.5580 C   0  0  0  0  0  2  0  0  0  0  0  0
   37.0380   44.6370   18.4390 N   0  0  0  0  0  0  0  0  0  0  0  0
   33.5210   44.0610   17.8450 C   0  0  0  0  0  0  0  0  0  0  0  0
   32.6010   43.2260   18.4970 C   0  0  0  0  0  3  0  0  0  0  0  0
   31.2830   43.1260   18.0380 C   0  0  0  0  0  3  0  0  0  0  0  0
   30.8800   43.8610   16.9280 C   0  0  0  0  0  0  0  0  0  0  0  0
   29.6150   43.7420   16.5020 F   0  0  0  0  0  0  0  0  0  0  0  0
   31.7790   44.7000   16.2750 C   0  0  0  0  0  0  0  0  0  0  0  0
   31.2900   45.6060   14.8950 Cl  0  0  0  0  0  0  0  0  0  0  0  0
   33.0940   44.8030   16.7330 C   0  0  0  0  0  3  0  0  0  0  0  0
   38.5270   43.3690   23.4400 N   0  0  0  0  0  0  0  0  0  0  0  0
   39.3130   43.9880   22.3730 C   0  0  0  0  0  2  0  0  0  0  0  0
   38.4230   44.5190   21.2490 C   0  0  0  0  0  2  0  0  0  0  0  0
   37.4050   43.4610   20.7750 C   0  0  1  0  0  3  0  0  0  0  0  0
   36.6260   42.9080   21.9680 C   0  0  0  0  0  2  0  0  0  0  0  0
   37.5770   42.3440   23.0280 C   0  0  0  0  0  2  0  0  0  0  0  0
   37.7930   43.6830   25.7350 C   0  0  0  0  0  0  0  0  0  0  0  0
   37.3900   44.6090   26.6910 C   0  0  0  0  0  0  0  0  0  0  0  0
   37.0960   44.2540   27.9940 N   0  0  0  0  0  0  0  0  0  0  0  0
   37.3250   45.9230   26.4510 N   0  0  0  0  0  0  0  0  0  0  0  0
   37.6710   46.3150   25.2250 C   0  0  0  0  0  3  0  0  0  0  0  0
   38.0440   45.5200   24.2180 N   0  0  0  0  0  0  0  0  0  0  0  0
   38.1170   44.2040   24.4790 C   0  0  0  0  0  0  0  0  0  0  0  0
   36.8680   45.0560   28.5700 H   0  0  0  0  0  0  0  0  0  0  0  0
   36.5640   43.4160   28.1640 H   0  0  0  0  0  0  0  0  0  0  0  0
   39.3170   41.9680   26.7620 C   0  0  0  0  0  1  0  0  0  0  0  0
   37.9820   42.2250   26.0770 C   0  0  0  0  0  2  0  0  0  0  0  0
   38.2480   45.3660   18.1330 C   0  0  0  0  0  2  0  0  0  0  0  0
   38.2550   45.9780   16.7200 C   0  0  0  0  0  2  0  0  0  0  0  0
   38.9190   47.3420   16.6450 N   0  0  0  0  0  4  0  0  0  0  0  0
   38.9870   47.9740   15.2520 C   0  0  0  0  0  2  0  0  0  0  0  0
   40.4340   48.4130   15.0830 C   0  0  0  0  0  2  0  0  0  0  0  0
   40.9580   48.5450   16.4970 C   0  0  0  0  0  2  0  0  0  0  0  0
   40.3350   47.3530   17.1880 C   0  0  0  0  0  2  0  0  0  0  0  0
   38.3880   48.0010   17.2290 H   0  0  0  0  0  0  0  0  0  0  0  0
  1  2  1  6  0  0  0
  1 17  1  0  0  0  0
  3  6  1  1  0  0  0
  3  2  1  0  0  0  0
  4  3  1  0  0  0  0
  4  5  1  0  0  0  0
  5  1  1  0  0  0  0
  6  7  1  0  0  0  0
  8  7  2  0  0  0  0
  9  8  1  0  0  0  0
 10  9  1  0  0  0  0
 11 13  1  0  0  0  0
 11  9  2  0  0  0  0
 12 11  1  0  0  0  0
 13  6  2  0  0  0  0
 14 26  1  0  0  0  0
 15 14  1  0  0  0  0
 16 15  1  0  0  0  0
 17 16  1  1  0  0  0
 17 18  1  0  0  0  0
 18 19  1  0  0  0  0
 19 14  1  0  0  0  0
 20 30  1  0  0  0  0
 20 21  1  0  0  0  0
 21 22  1  0  0  0  0
 22 28  1  0  0  0  0
 22 27  1  0  0  0  0
 23 21  2  0  0  0  0
 24 23  1  0  0  0  0
 25 26  1  0  0  0  0
 25 24  2  0  0  0  0
 26 20  2  0  0  0  0
 30 29  1  0  0  0  0
 31  5  1  0  0  0  0
 32 31  1  0  0  0  0
 33 32  1  0  0  0  0
 33 37  1  0  0  0  0
 33 38  1  0  0  0  0
 34 33  1  0  0  0  0
 35 34  1  0  0  0  0
 35 36  1  0  0  0  0
 36 37  1  0  0  0  0
M  END
>  <minimizedAffinity>
-9.82359409

$$$$
