
 OpenBabel10152418273D

 38 41  0  0  0  0  0  0  0  0999 V2000
    1.0100  -11.2080  -24.0770 C   0  0  0  0  0  0  0  0  0  0  0  0
    0.2220  -12.0370  -24.8800 C   0  0  0  0  0  3  0  0  0  0  0  0
   -1.1670  -11.9560  -24.8200 C   0  0  0  0  0  3  0  0  0  0  0  0
   -1.7870  -11.0590  -23.9430 C   0  0  0  0  0  3  0  0  0  0  0  0
   -1.0240  -10.2620  -23.0910 C   0  0  0  0  0  0  0  0  0  0  0  0
    0.3750  -10.3360  -23.1760 C   0  0  0  0  0  3  0  0  0  0  0  0
   -1.5470   -9.3200  -22.1860 N   0  0  0  0  0  0  0  0  0  0  0  0
   -1.5040   -7.9490  -22.1240 C   0  0  0  0  0  0  0  0  0  0  0  0
   -1.8010   -7.3800  -21.0740 O   0  0  0  0  0  0  0  0  0  0  0  0
   -1.9980   -9.7010  -21.3610 H   0  0  0  0  0  0  0  0  0  0  0  0
   -1.1910   -7.1140  -23.2890 C   0  0  0  0  0  0  0  0  0  0  0  0
   -0.3460   -6.0070  -23.2140 C   0  0  0  0  0  3  0  0  0  0  0  0
   -0.0620   -5.2900  -24.3770 C   0  0  0  0  0  3  0  0  0  0  0  0
   -0.6220   -5.7000  -25.5930 C   0  0  0  0  0  0  0  0  0  0  0  0
   -1.4210   -6.8040  -25.6740 N   0  0  0  0  0  0  0  0  0  0  0  0
   -1.6730   -7.4910  -24.5320 C   0  0  0  0  0  3  0  0  0  0  0  0
   -0.2920   -4.9260  -26.8660 C   0  0  0  0  0  0  0  0  0  0  0  0
   -0.7240   -5.5600  -27.9930 F   0  0  0  0  0  0  0  0  0  0  0  0
   -0.8300   -3.6740  -26.9050 F   0  0  0  0  0  0  0  0  0  0  0  0
    1.0520   -4.7480  -27.0420 F   0  0  0  0  0  0  0  0  0  0  0  0
    2.5160  -11.2540  -24.1740 C   0  0  0  0  0  2  0  0  0  0  0  0
    4.2710   -9.0530  -29.5830 C   0  0  0  0  0  0  0  0  0  0  0  0
    4.9510  -10.1740  -30.0820 C   0  0  0  0  0  3  0  0  0  0  0  0
    4.9740  -11.3430  -29.3400 C   0  0  0  0  0  3  0  0  0  0  0  0
    4.3180  -11.3750  -28.1120 C   0  0  0  0  0  3  0  0  0  0  0  0
    3.6190  -10.2430  -27.6090 C   0  0  0  0  0  0  0  0  0  0  0  0
    2.9420  -10.2150  -26.3720 C   0  0  0  0  0  0  0  0  0  0  0  0
    2.9360  -11.3420  -25.5570 N   0  0  0  0  0  0  0  0  0  0  0  0
    2.3320   -9.1070  -25.9210 N   0  0  0  0  0  0  0  0  0  0  0  0
    2.3590   -8.0360  -26.7170 C   0  0  0  0  0  3  0  0  0  0  0  0
    2.9400   -7.9650  -27.9160 N   0  0  0  0  0  0  0  0  0  0  0  0
    3.5950   -9.0520  -28.3560 C   0  0  0  0  0  0  0  0  0  0  0  0
    2.7390  -12.2160  -26.0240 H   0  0  0  0  0  0  0  0  0  0  0  0
    4.7260   -6.6990  -29.7300 N   0  0  0  0  0  0  0  0  0  0  0  0
    4.3240   -7.8240  -30.3930 C   0  0  0  0  0  0  0  0  0  0  0  0
    3.9650   -7.8020  -31.5620 O   0  0  0  0  0  0  0  0  0  0  0  0
    4.7680   -5.8370  -30.2580 H   0  0  0  0  0  0  0  0  0  0  0  0
    5.0410   -6.7020  -28.7710 H   0  0  0  0  0  0  0  0  0  0  0  0
  1  6  1  0  0  0  0
  2  3  1  0  0  0  0
  2  1  2  0  0  0  0
  3  4  2  0  0  0  0
  4  5  1  0  0  0  0
  5  7  1  0  0  0  0
  6  5  2  0  0  0  0
  7  8  1  0  0  0  0
  7 10  1  0  0  0  0
  8  9  2  0  0  0  0
 11 12  1  0  0  0  0
 11  8  1  0  0  0  0
 13 12  2  0  0  0  0
 14 13  1  0  0  0  0
 15 14  2  0  0  0  0
 15 16  1  0  0  0  0
 16 11  2  0  0  0  0
 17 14  1  0  0  0  0
 18 17  1  0  0  0  0
 19 17  1  0  0  0  0
 20 17  1  0  0  0  0
 21  1  1  0  0  0  0
 22 32  1  0  0  0  0
 23 22  2  0  0  0  0
 23 24  1  0  0  0  0
 24 25  2  0  0  0  0
 25 26  1  0  0  0  0
 26 27  1  0  0  0  0
 27 29  2  0  0  0  0
 27 28  1  0  0  0  0
 28 21  1  0  0  0  0
 30 29  1  0  0  0  0
 31 30  2  0  0  0  0
 32 31  1  0  0  0  0
 32 26  2  0  0  0  0
 33 28  1  0  0  0  0
 34 38  1  0  0  0  0
 35 34  1  0  0  0  0
 35 22  1  0  0  0  0
 36 35  2  0  0  0  0
 37 34  1  0  0  0  0
M  END
>  <minimizedAffinity>
-8.3406477

$$$$
