
 OpenBabel10152418273D

 38 41  0  0  0  0  0  0  0  0999 V2000
    2.8690   -9.5130  -27.4000 C   0  0  0  0  0  0  0  0  0  0  0  0
    4.2490   -9.4680  -27.1790 C   0  0  0  0  0  3  0  0  0  0  0  0
    4.9740   -8.3280  -27.5130 C   0  0  0  0  0  3  0  0  0  0  0  0
    4.3360   -7.2250  -28.0900 C   0  0  0  0  0  3  0  0  0  0  0  0
    2.9700   -7.2670  -28.3730 C   0  0  0  0  0  0  0  0  0  0  0  0
    2.2450   -8.4130  -28.0110 C   0  0  0  0  0  3  0  0  0  0  0  0
    2.2320   -6.2110  -28.9360 N   0  0  0  0  0  0  0  0  0  0  0  0
    1.1290   -5.5050  -28.5190 C   0  0  0  0  0  0  0  0  0  0  0  0
    0.5080   -4.8180  -29.3300 O   0  0  0  0  0  0  0  0  0  0  0  0
    2.5010   -5.9320  -29.8730 H   0  0  0  0  0  0  0  0  0  0  0  0
    0.6960   -5.4690  -27.1180 C   0  0  0  0  0  0  0  0  0  0  0  0
   -0.3200   -4.6280  -26.6680 C   0  0  0  0  0  3  0  0  0  0  0  0
   -0.7060   -4.6850  -25.3280 C   0  0  0  0  0  3  0  0  0  0  0  0
   -0.0720   -5.5900  -24.4670 C   0  0  0  0  0  0  0  0  0  0  0  0
    0.8990   -6.4390  -24.9140 N   0  0  0  0  0  0  0  0  0  0  0  0
    1.2480   -6.3730  -26.2230 C   0  0  0  0  0  3  0  0  0  0  0  0
   -0.5100   -5.6650  -23.0080 C   0  0  0  0  0  0  0  0  0  0  0  0
   -1.8090   -5.2930  -22.8280 F   0  0  0  0  0  0  0  0  0  0  0  0
   -0.3930   -6.9090  -22.4610 F   0  0  0  0  0  0  0  0  0  0  0  0
    0.2190   -4.8420  -22.1950 F   0  0  0  0  0  0  0  0  0  0  0  0
    2.0680  -10.7260  -26.9920 C   0  0  0  0  0  2  0  0  0  0  0  0
   -1.8770   -9.8610  -22.4240 C   0  0  0  0  0  0  0  0  0  0  0  0
   -2.6930   -8.8780  -23.0020 C   0  0  0  0  0  3  0  0  0  0  0  0
   -2.4550   -8.4770  -24.3070 C   0  0  0  0  0  3  0  0  0  0  0  0
   -1.4070   -9.0630  -25.0120 C   0  0  0  0  0  3  0  0  0  0  0  0
   -0.5860  -10.0680  -24.4300 C   0  0  0  0  0  0  0  0  0  0  0  0
    0.4910  -10.6920  -25.0940 C   0  0  0  0  0  0  0  0  0  0  0  0
    0.8080  -10.3300  -26.3990 N   0  0  0  0  0  0  0  0  0  0  0  0
    1.2650  -11.6060  -24.4860 N   0  0  0  0  0  0  0  0  0  0  0  0
    0.9460  -11.9300  -23.2320 C   0  0  0  0  0  3  0  0  0  0  0  0
   -0.0680  -11.4270  -22.5250 N   0  0  0  0  0  0  0  0  0  0  0  0
   -0.8200  -10.4760  -23.1060 C   0  0  0  0  0  0  0  0  0  0  0  0
    0.0250  -10.2560  -27.0330 H   0  0  0  0  0  0  0  0  0  0  0  0
   -1.4660   -9.4730  -20.0880 N   0  0  0  0  0  0  0  0  0  0  0  0
   -2.1460  -10.2100  -21.0180 C   0  0  0  0  0  0  0  0  0  0  0  0
   -2.8750  -11.1420  -20.7100 O   0  0  0  0  0  0  0  0  0  0  0  0
   -1.6260   -9.6930  -19.1140 H   0  0  0  0  0  0  0  0  0  0  0  0
   -0.8740   -8.6910  -20.3250 H   0  0  0  0  0  0  0  0  0  0  0  0
  1  2  1  0  0  0  0
  1 21  1  0  0  0  0
  3  2  2  0  0  0  0
  4  3  1  0  0  0  0
  5  4  2  0  0  0  0
  5  6  1  0  0  0  0
  6  1  2  0  0  0  0
  7  8  1  0  0  0  0
  7  5  1  0  0  0  0
  8 11  1  0  0  0  0
  9  8  2  0  0  0  0
 10  7  1  0  0  0  0
 11 12  2  0  0  0  0
 11 16  1  0  0  0  0
 12 13  1  0  0  0  0
 13 14  2  0  0  0  0
 14 17  1  0  0  0  0
 15 14  1  0  0  0  0
 16 15  2  0  0  0  0
 17 18  1  0  0  0  0
 17 19  1  0  0  0  0
 17 20  1  0  0  0  0
 21 28  1  0  0  0  0
 22 35  1  0  0  0  0
 23 22  1  0  0  0  0
 24 23  2  0  0  0  0
 25 26  2  0  0  0  0
 25 24  1  0  0  0  0
 26 32  1  0  0  0  0
 27 29  2  0  0  0  0
 27 26  1  0  0  0  0
 28 27  1  0  0  0  0
 29 30  1  0  0  0  0
 30 31  2  0  0  0  0
 32 31  1  0  0  0  0
 32 22  2  0  0  0  0
 33 28  1  0  0  0  0
 34 37  1  0  0  0  0
 35 36  2  0  0  0  0
 35 34  1  0  0  0  0
 38 34  1  0  0  0  0
M  END
>  <minimizedAffinity>
-6.54402542

$$$$
