
 OpenBabel11232420353D

 42 48  0  0  1  0  0  0  0  0999 V2000
   -5.6970   -7.0220   12.9330 C   0  0  0  0  0  0  0  0  0  0  0  0
   -4.3620   -6.8910   13.2880 N   0  0  0  0  0  0  0  0  0  0  0  0
   -4.3210   -5.9400   14.1910 C   0  0  0  0  0  0  0  0  0  0  0  0
   -5.5540   -5.3860   14.3680 N   0  0  0  0  0  0  0  0  0  0  0  0
   -6.4770   -6.1230   13.6590 C   0  0  0  0  0  0  0  0  0  0  0  0
   -5.7840   -4.3500   15.3600 C   0  0  0  0  0  2  0  0  0  0  0  0
   -4.5950   -3.5910   15.6730 O   0  0  0  0  0  0  0  0  0  0  0  0
   -3.4330   -4.3160   15.7600 C   0  0  0  0  0  0  0  0  0  0  0  0
   -2.4270   -3.8290   16.5870 C   0  0  0  0  0  3  0  0  0  0  0  0
   -1.2390   -4.5540   16.7290 C   0  0  0  0  0  3  0  0  0  0  0  0
   -1.0400   -5.7520   16.0250 C   0  0  0  0  0  0  0  0  0  0  0  0
   -2.0360   -6.1970   15.1450 C   0  0  0  0  0  3  0  0  0  0  0  0
   -3.2290   -5.4840   15.0190 C   0  0  0  0  0  0  0  0  0  0  0  0
    0.1590   -6.5470   16.2160 C   0  0  0  0  0  0  0  0  0  0  0  0
    0.5490   -7.7860   15.6580 C   0  0  0  0  0  3  0  0  0  0  0  0
    1.7120   -8.2280   16.1440 N   0  0  0  0  0  0  0  0  0  0  0  0
    2.0750   -7.2710   17.0130 N   0  0  0  0  0  0  0  0  0  0  0  0
    1.1750   -6.2460   17.0980 C   0  0  0  0  0  3  0  0  0  0  0  0
    2.9430   -7.3870   17.5240 H   0  0  0  0  0  0  0  0  0  0  0  0
   -7.0390  -10.1950   10.2660 C   0  0  0  0  0  0  0  0  0  0  0  0
   -6.7070  -10.4050   11.6220 C   0  0  0  0  0  3  0  0  0  0  0  0
   -6.2670   -9.3690   12.4600 C   0  0  0  0  0  3  0  0  0  0  0  0
   -6.1040   -8.0620   11.9880 C   0  0  0  0  0  0  0  0  0  0  0  0
   -6.3520   -7.8430   10.6360 C   0  0  0  0  0  3  0  0  0  0  0  0
   -6.8120   -8.8810    9.8050 C   0  0  0  0  0  3  0  0  0  0  0  0
   -6.6600  -14.4810    8.2130 C   0  0  0  0  0  1  0  0  0  0  0  0
   -6.5000  -13.1890    9.0000 C   0  0  1  0  0  0  0  0  0  0  0  0
   -6.7500  -11.9140    8.1550 C   0  0  0  0  0  2  0  0  0  0  0  0
   -7.6260  -11.3480    9.3130 C   0  0  1  0  0  0  0  0  0  0  0  0
   -7.7170  -12.7940    9.8760 C   0  0  0  0  0  2  0  0  0  0  0  0
   -8.9340  -10.8960    8.7670 N   0  0  0  0  0  4  0  0  0  0  0  0
   -9.6550  -10.8570    9.4980 H   0  0  0  0  0  0  0  0  0  0  0  0
   -8.8490   -9.9490    8.3710 H   0  0  0  0  0  0  0  0  0  0  0  0
   -9.2940  -11.5050    8.0230 H   0  0  0  0  0  0  0  0  0  0  0  0
   -5.2360  -13.1930    9.6870 O   0  0  0  0  0  0  0  0  0  0  0  0
   -5.1810  -14.0370   10.1740 H   0  0  0  0  0  0  0  0  0  0  0  0
   -7.9100   -5.9560   13.8470 C   0  0  0  0  0  0  0  0  0  0  0  0
   -8.5920   -4.8790   13.2730 C   0  0  0  0  0  3  0  0  0  0  0  0
   -9.9620   -4.7240   13.4920 C   0  0  0  0  0  3  0  0  0  0  0  0
  -10.6540   -5.6430   14.2810 C   0  0  0  0  0  3  0  0  0  0  0  0
   -9.9800   -6.7190   14.8560 C   0  0  0  0  0  3  0  0  0  0  0  0
   -8.6100   -6.8740   14.6410 C   0  0  0  0  0  3  0  0  0  0  0  0
  1  2  1  0  0  0  0
  1  5  2  0  0  0  0
  2  3  2  0  0  0  0
  3  4  1  0  0  0  0
  3 13  1  0  0  0  0
  4  6  1  0  0  0  0
  5 37  1  0  0  0  0
  5  4  1  0  0  0  0
  6  7  1  0  0  0  0
  7  8  1  0  0  0  0
  8  9  1  0  0  0  0
  9 10  2  0  0  0  0
 11 14  1  0  0  0  0
 11 10  1  0  0  0  0
 12 11  2  0  0  0  0
 13 12  1  0  0  0  0
 13  8  2  0  0  0  0
 14 18  2  0  0  0  0
 15 16  2  0  0  0  0
 15 14  1  0  0  0  0
 16 17  1  0  0  0  0
 17 18  1  0  0  0  0
 17 19  1  0  0  0  0
 20 21  1  0  0  0  0
 21 22  2  0  0  0  0
 23 22  1  0  0  0  0
 23  1  1  0  0  0  0
 24 23  2  0  0  0  0
 25 20  2  0  0  0  0
 25 24  1  0  0  0  0
 27 26  1  6  0  0  0
 27 35  1  0  0  0  0
 27 30  1  0  0  0  0
 28 27  1  0  0  0  0
 28 29  1  0  0  0  0
 29 31  1  6  0  0  0
 29 30  1  0  0  0  0
 29 20  1  0  0  0  0
 31 32  1  0  0  0  0
 33 31  1  0  0  0  0
 34 31  1  0  0  0  0
 35 36  1  0  0  0  0
 37 42  1  0  0  0  0
 38 39  1  0  0  0  0
 38 37  2  0  0  0  0
 39 40  2  0  0  0  0
 40 41  1  0  0  0  0
 42 41  2  0  0  0  0
M  END
>  <minimizedAffinity>
-5.74306965

$$$$
