
 OpenBabel11232420353D

 42 48  0  0  1  0  0  0  0  0999 V2000
   -5.5620   -6.5210   12.9750 C   0  0  0  0  0  0  0  0  0  0  0  0
   -4.2070   -6.6680   13.2370 N   0  0  0  0  0  0  0  0  0  0  0  0
   -3.9330   -5.8190   14.2000 C   0  0  0  0  0  0  0  0  0  0  0  0
   -5.0270   -5.0640   14.5070 N   0  0  0  0  0  0  0  0  0  0  0  0
   -6.1140   -5.5580   13.8190 C   0  0  0  0  0  0  0  0  0  0  0  0
   -4.9980   -4.0910   15.5840 C   0  0  0  0  0  2  0  0  0  0  0  0
   -3.6700   -3.5910   15.8610 O   0  0  0  0  0  0  0  0  0  0  0  0
   -2.6630   -4.5220   15.8090 C   0  0  0  0  0  0  0  0  0  0  0  0
   -1.5350   -4.2990   16.5910 C   0  0  0  0  0  3  0  0  0  0  0  0
   -0.4980   -5.2390   16.5930 C   0  0  0  0  0  3  0  0  0  0  0  0
   -0.5720   -6.3900   15.7920 C   0  0  0  0  0  0  0  0  0  0  0  0
   -1.6850   -6.5700   14.9600 C   0  0  0  0  0  3  0  0  0  0  0  0
   -2.7280   -5.6420   14.9750 C   0  0  0  0  0  0  0  0  0  0  0  0
    0.4640   -7.4040   15.8370 C   0  0  0  0  0  0  0  0  0  0  0  0
    0.7650   -8.4620   14.9490 C   0  0  0  0  0  3  0  0  0  0  0  0
    1.7690   -9.2310   15.3810 N   0  0  0  0  0  0  0  0  0  0  0  0
    2.1180   -8.6640   16.5480 N   0  0  0  0  0  0  0  0  0  0  0  0
    1.3630   -7.5730   16.8690 C   0  0  0  0  0  3  0  0  0  0  0  0
    2.8740   -9.0830   17.0800 H   0  0  0  0  0  0  0  0  0  0  0  0
   -7.6360   -9.1600   10.1980 C   0  0  0  0  0  0  0  0  0  0  0  0
   -7.2680   -9.5410   11.5060 C   0  0  0  0  0  3  0  0  0  0  0  0
   -6.5910   -8.6760   12.3800 C   0  0  0  0  0  3  0  0  0  0  0  0
   -6.2140   -7.3860   11.9920 C   0  0  0  0  0  0  0  0  0  0  0  0
   -6.4990   -7.0130   10.6810 C   0  0  0  0  0  3  0  0  0  0  0  0
   -7.1960   -7.8760    9.8160 C   0  0  0  0  0  3  0  0  0  0  0  0
  -11.8060  -10.5450    8.3450 C   0  0  0  0  0  1  0  0  0  0  0  0
  -10.6550   -9.8930    9.0960 C   0  0  1  0  0  0  0  0  0  0  0  0
   -9.6980  -10.9100    9.7680 C   0  0  0  0  0  2  0  0  0  0  0  0
   -8.4870  -10.1020    9.2120 C   0  0  1  0  0  0  0  0  0  0  0  0
   -9.4680   -9.4270    8.2130 C   0  0  0  0  0  2  0  0  0  0  0  0
   -7.5550  -11.0280    8.5140 N   0  0  0  0  0  4  0  0  0  0  0  0
   -6.9580  -10.5280    7.8440 H   0  0  0  0  0  0  0  0  0  0  0  0
   -6.9320  -11.4890    9.1930 H   0  0  0  0  0  0  0  0  0  0  0  0
   -8.0370  -11.7690    7.9910 H   0  0  0  0  0  0  0  0  0  0  0  0
  -11.1670   -8.8940    9.9960 O   0  0  0  0  0  0  0  0  0  0  0  0
  -11.7590   -8.3190    9.4740 H   0  0  0  0  0  0  0  0  0  0  0  0
   -7.4760   -5.1470   14.1240 C   0  0  0  0  0  0  0  0  0  0  0  0
   -8.1960   -5.7500   15.1600 C   0  0  0  0  0  3  0  0  0  0  0  0
   -9.5110   -5.3580   15.4140 C   0  0  0  0  0  3  0  0  0  0  0  0
  -10.1100   -4.3660   14.6390 C   0  0  0  0  0  3  0  0  0  0  0  0
   -9.3970   -3.7610   13.6050 C   0  0  0  0  0  3  0  0  0  0  0  0
   -8.0840   -4.1530   13.3460 C   0  0  0  0  0  3  0  0  0  0  0  0
  1  2  1  0  0  0  0
  1  5  2  0  0  0  0
  2  3  2  0  0  0  0
  3  4  1  0  0  0  0
  3 13  1  0  0  0  0
  4  6  1  0  0  0  0
  5 37  1  0  0  0  0
  5  4  1  0  0  0  0
  6  7  1  0  0  0  0
  8  7  1  0  0  0  0
  8  9  1  0  0  0  0
  9 10  2  0  0  0  0
 11 14  1  0  0  0  0
 11 10  1  0  0  0  0
 12 13  1  0  0  0  0
 12 11  2  0  0  0  0
 13  8  2  0  0  0  0
 14 18  2  0  0  0  0
 15 16  2  0  0  0  0
 15 14  1  0  0  0  0
 16 17  1  0  0  0  0
 17 18  1  0  0  0  0
 17 19  1  0  0  0  0
 20 21  1  0  0  0  0
 21 22  2  0  0  0  0
 23 22  1  0  0  0  0
 23  1  1  0  0  0  0
 24 23  2  0  0  0  0
 25 20  2  0  0  0  0
 25 24  1  0  0  0  0
 27 26  1  6  0  0  0
 27 28  1  0  0  0  0
 27 35  1  0  0  0  0
 29 31  1  6  0  0  0
 29 28  1  0  0  0  0
 29 20  1  0  0  0  0
 30 27  1  0  0  0  0
 30 29  1  0  0  0  0
 31 33  1  0  0  0  0
 32 31  1  0  0  0  0
 34 31  1  0  0  0  0
 36 35  1  0  0  0  0
 37 38  1  0  0  0  0
 38 39  2  0  0  0  0
 40 39  1  0  0  0  0
 41 40  2  0  0  0  0
 42 41  1  0  0  0  0
 42 37  2  0  0  0  0
M  END
>  <minimizedAffinity>
-5.74192142

$$$$
