
 OpenBabel11232420353D

 42 48  0  0  1  0  0  0  0  0999 V2000
   -5.4950   -9.0070   12.1630 C   0  0  0  0  0  0  0  0  0  0  0  0
   -5.9380  -10.3220   12.1340 N   0  0  0  0  0  0  0  0  0  0  0  0
   -6.9430  -10.3450   11.2900 C   0  0  0  0  0  0  0  0  0  0  0  0
   -7.2300   -9.0890   10.8440 N   0  0  0  0  0  0  0  0  0  0  0  0
   -6.2580   -8.2240   11.2990 C   0  0  0  0  0  0  0  0  0  0  0  0
   -8.2660   -8.8550    9.8530 C   0  0  0  0  0  2  0  0  0  0  0  0
   -9.2860   -9.8800    9.8460 O   0  0  0  0  0  0  0  0  0  0  0  0
   -8.8370  -11.1650   10.0150 C   0  0  0  0  0  0  0  0  0  0  0  0
   -9.5920  -12.1920    9.4590 C   0  0  0  0  0  3  0  0  0  0  0  0
   -9.1530  -13.5150    9.5800 C   0  0  0  0  0  3  0  0  0  0  0  0
   -7.9750  -13.8200   10.2800 C   0  0  0  0  0  0  0  0  0  0  0  0
   -7.2590  -12.7820   10.8900 C   0  0  0  0  0  3  0  0  0  0  0  0
   -7.6860  -11.4600   10.7520 C   0  0  0  0  0  0  0  0  0  0  0  0
   -7.4750  -15.1800   10.3540 C   0  0  0  0  0  0  0  0  0  0  0  0
   -6.4860  -15.7610   11.1810 C   0  0  0  0  0  3  0  0  0  0  0  0
   -6.2610  -17.0460   10.8930 N   0  0  0  0  0  0  0  0  0  0  0  0
   -7.1090  -17.2950    9.8820 N   0  0  0  0  0  0  0  0  0  0  0  0
   -7.8520  -16.2080    9.5170 C   0  0  0  0  0  3  0  0  0  0  0  0
   -7.1190  -18.2260    9.4800 H   0  0  0  0  0  0  0  0  0  0  0  0
   -1.9560   -8.1440   14.5520 C   0  0  0  0  0  0  0  0  0  0  0  0
   -2.8810   -9.1620   14.8700 C   0  0  0  0  0  3  0  0  0  0  0  0
   -4.0200   -9.4150   14.0900 C   0  0  0  0  0  3  0  0  0  0  0  0
   -4.3220   -8.6480   12.9600 C   0  0  0  0  0  0  0  0  0  0  0  0
   -3.4660   -7.5900   12.6680 C   0  0  0  0  0  3  0  0  0  0  0  0
   -2.3150   -7.3530   13.4410 C   0  0  0  0  0  3  0  0  0  0  0  0
    2.1140   -9.7520   16.4460 C   0  0  0  0  0  1  0  0  0  0  0  0
    0.7830   -9.5400   15.7390 C   0  0  1  0  0  0  0  0  0  0  0  0
   -0.2660   -8.7970   16.6060 C   0  0  0  0  0  2  0  0  0  0  0  0
   -0.6010   -7.8940   15.3800 C   0  0  1  0  0  0  0  0  0  0  0  0
    0.7440   -8.3480   14.7480 C   0  0  0  0  0  2  0  0  0  0  0  0
   -0.5510   -6.4650   15.7920 N   0  0  0  0  0  4  0  0  0  0  0  0
   -0.4070   -5.8450   14.9860 H   0  0  0  0  0  0  0  0  0  0  0  0
   -1.4380   -6.1880   16.2370 H   0  0  0  0  0  0  0  0  0  0  0  0
    0.2010   -6.2640   16.4620 H   0  0  0  0  0  0  0  0  0  0  0  0
    0.3150  -10.7890   15.2020 O   0  0  0  0  0  0  0  0  0  0  0  0
    1.0510  -11.1710   14.6880 H   0  0  0  0  0  0  0  0  0  0  0  0
   -6.1270   -6.8690   10.7850 C   0  0  0  0  0  0  0  0  0  0  0  0
   -5.7190   -6.6330    9.4700 C   0  0  0  0  0  3  0  0  0  0  0  0
   -5.5720   -5.3230    9.0090 C   0  0  0  0  0  3  0  0  0  0  0  0
   -5.8320   -4.2480    9.8590 C   0  0  0  0  0  3  0  0  0  0  0  0
   -6.2400   -4.4770   11.1720 C   0  0  0  0  0  3  0  0  0  0  0  0
   -6.3840   -5.7850   11.6350 C   0  0  0  0  0  3  0  0  0  0  0  0
  1 23  1  0  0  0  0
  2  1  1  0  0  0  0
  3  2  2  0  0  0  0
  4  3  1  0  0  0  0
  4  5  1  0  0  0  0
  5  1  2  0  0  0  0
  6  4  1  0  0  0  0
  7  6  1  0  0  0  0
  7  8  1  0  0  0  0
  8 13  1  0  0  0  0
  9 10  1  0  0  0  0
  9  8  2  0  0  0  0
 10 11  2  0  0  0  0
 11 14  1  0  0  0  0
 11 12  1  0  0  0  0
 13 12  2  0  0  0  0
 13  3  1  0  0  0  0
 14 15  1  0  0  0  0
 16 15  2  0  0  0  0
 17 16  1  0  0  0  0
 18 17  1  0  0  0  0
 18 14  2  0  0  0  0
 19 17  1  0  0  0  0
 20 21  1  0  0  0  0
 20 29  1  0  0  0  0
 22 21  2  0  0  0  0
 23 22  1  0  0  0  0
 24 23  2  0  0  0  0
 24 25  1  0  0  0  0
 25 20  2  0  0  0  0
 27 26  1  1  0  0  0
 27 28  1  0  0  0  0
 29 31  1  1  0  0  0
 29 28  1  0  0  0  0
 30 29  1  0  0  0  0
 30 27  1  0  0  0  0
 31 33  1  0  0  0  0
 31 34  1  0  0  0  0
 32 31  1  0  0  0  0
 35 27  1  0  0  0  0
 36 35  1  0  0  0  0
 37  5  1  0  0  0  0
 37 42  1  0  0  0  0
 38 37  2  0  0  0  0
 39 38  1  0  0  0  0
 39 40  2  0  0  0  0
 40 41  1  0  0  0  0
 41 42  2  0  0  0  0
M  END
>  <minimizedAffinity>
-6.02220011

$$$$
