
 OpenBabel11232420493D

 40 46  0  0  1  0  0  0  0  0999 V2000
  -14.5680   33.2080    9.9160 C   0  0  0  0  0  0  0  0  0  0  0  0
  -13.7540   34.3120    9.6260 C   0  0  0  0  0  3  0  0  0  0  0  0
  -13.5570   35.3250   10.5700 C   0  0  0  0  0  3  0  0  0  0  0  0
  -14.1780   35.2550   11.8110 C   0  0  0  0  0  3  0  0  0  0  0  0
  -15.0100   34.1760   12.1010 C   0  0  0  0  0  0  0  0  0  0  0  0
  -15.2010   33.1380   11.1710 C   0  0  0  0  0  0  0  0  0  0  0  0
  -16.0350   32.0290   11.6150 C   0  0  0  0  0  0  0  0  0  0  0  0
  -16.2170   30.8300   11.1090 N   0  0  0  0  0  0  0  0  0  0  0  0
  -17.0790   30.1670   11.9630 C   0  0  0  0  0  0  0  0  0  0  0  0
  -17.4500   30.9990   13.0140 C   0  0  0  0  0  0  0  0  0  0  0  0
  -16.7580   32.1630   12.7670 N   0  0  0  0  0  0  0  0  0  0  0  0
  -16.7870   33.4130   13.4990 C   0  0  0  0  0  2  0  0  0  0  0  0
  -15.5650   34.1610   13.3600 O   0  0  0  0  0  0  0  0  0  0  0  0
  -18.3110   30.8310   14.1750 C   0  0  0  0  0  0  0  0  0  0  0  0
  -19.6720   31.1490   14.0930 C   0  0  0  0  0  3  0  0  0  0  0  0
  -20.4940   31.0040   15.2130 C   0  0  0  0  0  3  0  0  0  0  0  0
  -19.9600   30.5440   16.4160 C   0  0  0  0  0  3  0  0  0  0  0  0
  -18.6040   30.2280   16.5020 C   0  0  0  0  0  3  0  0  0  0  0  0
  -17.7800   30.3710   15.3850 C   0  0  0  0  0  3  0  0  0  0  0  0
  -17.4610   28.7830   11.6890 C   0  0  0  0  0  0  0  0  0  0  0  0
  -18.7430   28.2710   11.8840 C   0  0  0  0  0  3  0  0  0  0  0  0
  -19.0360   26.9280   11.5960 C   0  0  0  0  0  3  0  0  0  0  0  0
  -18.0670   26.0330   11.0950 C   0  0  0  0  0  0  0  0  0  0  0  0
  -16.7830   26.5730   10.8940 C   0  0  0  0  0  3  0  0  0  0  0  0
  -16.4880   27.9110   11.1860 C   0  0  0  0  0  3  0  0  0  0  0  0
  -18.4170   24.5280   10.7290 C   0  0  1  0  0  0  0  0  0  0  0  0
  -17.3780   23.6880    9.9480 C   0  0  0  0  0  2  0  0  0  0  0  0
  -17.5540   22.4980   10.9480 C   0  0  1  0  0  0  0  0  0  0  0  0
  -18.3810   23.4680   11.8550 C   0  0  0  0  0  2  0  0  0  0  0  0
  -19.7290   24.5720   10.0400 N   0  0  0  0  0  4  0  0  0  0  0  0
  -20.4490   24.9950   10.6410 H   0  0  0  0  0  0  0  0  0  0  0  0
  -19.6820   25.1620    9.1980 H   0  0  0  0  0  0  0  0  0  0  0  0
  -20.0720   23.6490    9.7500 H   0  0  0  0  0  0  0  0  0  0  0  0
  -18.2620   21.2390   10.4300 C   0  0  0  0  0  3  0  0  0  0  0  0
  -19.0540   21.1070    9.1540 C   0  0  0  0  0  2  0  0  0  0  0  0
  -17.7880   20.3210    9.3320 C   0  0  0  0  0  2  0  0  0  0  0  0
  -16.2980   22.1180   11.5670 O   0  0  0  0  0  0  0  0  0  0  0  0
  -15.8460   22.9250   11.8710 H   0  0  0  0  0  0  0  0  0  0  0  0
  -13.7150   31.7130    8.2590 C   0  0  0  0  0  1  0  0  0  0  0  0
  -14.8070   32.1870    9.0330 O   0  0  0  0  0  0  0  0  0  0  0  0
  1  6  1  0  0  0  0
  2  1  2  0  0  0  0
  2  3  1  0  0  0  0
  3  4  2  0  0  0  0
  4  5  1  0  0  0  0
  5 13  1  0  0  0  0
  6  7  1  0  0  0  0
  6  5  2  0  0  0  0
  7 11  1  0  0  0  0
  8  7  2  0  0  0  0
  8  9  1  0  0  0  0
  9 10  2  0  0  0  0
 10 14  1  0  0  0  0
 11 10  1  0  0  0  0
 11 12  1  0  0  0  0
 13 12  1  0  0  0  0
 14 19  1  0  0  0  0
 15 14  2  0  0  0  0
 15 16  1  0  0  0  0
 16 17  2  0  0  0  0
 17 18  1  0  0  0  0
 19 18  2  0  0  0  0
 20 21  1  0  0  0  0
 20  9  1  0  0  0  0
 22 21  2  0  0  0  0
 23 22  1  0  0  0  0
 24 23  2  0  0  0  0
 24 25  1  0  0  0  0
 25 20  2  0  0  0  0
 26 30  1  6  0  0  0
 26 23  1  0  0  0  0
 26 29  1  0  0  0  0
 27 26  1  0  0  0  0
 27 28  1  0  0  0  0
 28 37  1  1  0  0  0
 28 29  1  0  0  0  0
 30 31  1  0  0  0  0
 32 30  1  0  0  0  0
 33 30  1  0  0  0  0
 34 28  1  0  0  0  0
 35 36  1  0  0  0  0
 35 34  1  0  0  0  0
 36 34  1  0  0  0  0
 37 38  1  0  0  0  0
 39 40  1  0  0  0  0
 40  1  1  0  0  0  0
M  END
>  <minimizedAffinity>
-10.6968775

$$$$
