
 OpenBabel11232420493D

 40 46  0  0  1  0  0  0  0  0999 V2000
  -23.7040   13.4280   13.3280 C   0  0  0  0  0  0  0  0  0  0  0  0
  -24.2900   12.1540   13.3110 C   0  0  0  0  0  3  0  0  0  0  0  0
  -25.0420   11.6950   14.3970 C   0  0  0  0  0  3  0  0  0  0  0  0
  -25.2080   12.4960   15.5200 C   0  0  0  0  0  3  0  0  0  0  0  0
  -24.6090   13.7530   15.5610 C   0  0  0  0  0  0  0  0  0  0  0  0
  -23.8690   14.2390   14.4670 C   0  0  0  0  0  0  0  0  0  0  0  0
  -23.3520   15.5930   14.5970 C   0  0  0  0  0  0  0  0  0  0  0  0
  -22.8440   16.4130   13.7050 N   0  0  0  0  0  0  0  0  0  0  0  0
  -22.5580   17.5930   14.3670 C   0  0  0  0  0  0  0  0  0  0  0  0
  -22.8850   17.4790   15.7150 C   0  0  0  0  0  0  0  0  0  0  0  0
  -23.3970   16.2060   15.8190 N   0  0  0  0  0  0  0  0  0  0  0  0
  -23.8590   15.5030   16.9980 C   0  0  0  0  0  2  0  0  0  0  0  0
  -24.8440   14.4990   16.6920 O   0  0  0  0  0  0  0  0  0  0  0  0
  -22.8020   18.3850   16.8500 C   0  0  0  0  0  0  0  0  0  0  0  0
  -21.6070   18.5040   17.5690 C   0  0  0  0  0  3  0  0  0  0  0  0
  -21.5330   19.3610   18.6690 C   0  0  0  0  0  3  0  0  0  0  0  0
  -22.6510   20.0980   19.0550 C   0  0  0  0  0  3  0  0  0  0  0  0
  -23.8450   19.9820   18.3420 C   0  0  0  0  0  3  0  0  0  0  0  0
  -23.9210   19.1270   17.2420 C   0  0  0  0  0  3  0  0  0  0  0  0
  -22.0000   18.7280   13.6350 C   0  0  0  0  0  0  0  0  0  0  0  0
  -22.6460   19.9540   13.4790 C   0  0  0  0  0  3  0  0  0  0  0  0
  -22.0460   21.0000   12.7610 C   0  0  0  0  0  3  0  0  0  0  0  0
  -20.7710   20.8780   12.1700 C   0  0  0  0  0  0  0  0  0  0  0  0
  -20.1310   19.6370   12.3480 C   0  0  0  0  0  3  0  0  0  0  0  0
  -20.7310   18.5900   13.0590 C   0  0  0  0  0  3  0  0  0  0  0  0
  -20.0800   22.0820   11.3980 C   0  0  1  0  0  0  0  0  0  0  0  0
  -19.1880   23.0660   12.1930 C   0  0  0  0  0  2  0  0  0  0  0  0
  -18.0660   22.9610   11.1090 C   0  0  1  0  0  0  0  0  0  0  0  0
  -18.8710   21.7740   10.4840 C   0  0  0  0  0  2  0  0  0  0  0  0
  -21.1690   22.7790   10.6740 N   0  0  0  0  0  4  0  0  0  0  0  0
  -21.6530   22.1410   10.0280 H   0  0  0  0  0  0  0  0  0  0  0  0
  -21.8890   23.1160   11.3290 H   0  0  0  0  0  0  0  0  0  0  0  0
  -20.8490   23.5860   10.1280 H   0  0  0  0  0  0  0  0  0  0  0  0
  -17.8200   24.1920   10.2250 C   0  0  0  0  0  3  0  0  0  0  0  0
  -16.8090   25.2850   10.4600 C   0  0  0  0  0  2  0  0  0  0  0  0
  -16.6830   24.3980    9.2570 C   0  0  0  0  0  2  0  0  0  0  0  0
  -16.8040   22.5210   11.6730 O   0  0  0  0  0  0  0  0  0  0  0  0
  -16.9730   21.7550   12.2500 H   0  0  0  0  0  0  0  0  0  0  0  0
  -23.6150   14.2320   11.0800 C   0  0  0  0  0  1  0  0  0  0  0  0
  -22.9520   13.9320   12.3000 O   0  0  0  0  0  0  0  0  0  0  0  0
  1  6  1  0  0  0  0
  2  1  2  0  0  0  0
  2  3  1  0  0  0  0
  3  4  2  0  0  0  0
  4  5  1  0  0  0  0
  5 13  1  0  0  0  0
  6  7  1  0  0  0  0
  6  5  2  0  0  0  0
  7 11  1  0  0  0  0
  8  9  1  0  0  0  0
  8  7  2  0  0  0  0
  9 10  2  0  0  0  0
 10 11  1  0  0  0  0
 10 14  1  0  0  0  0
 11 12  1  0  0  0  0
 13 12  1  0  0  0  0
 14 19  2  0  0  0  0
 14 15  1  0  0  0  0
 15 16  2  0  0  0  0
 16 17  1  0  0  0  0
 18 17  2  0  0  0  0
 19 18  1  0  0  0  0
 20  9  1  0  0  0  0
 21 20  1  0  0  0  0
 22 21  2  0  0  0  0
 23 24  2  0  0  0  0
 23 22  1  0  0  0  0
 24 25  1  0  0  0  0
 25 20  2  0  0  0  0
 26 30  1  6  0  0  0
 26 23  1  0  0  0  0
 26 27  1  0  0  0  0
 28 37  1  1  0  0  0
 28 27  1  0  0  0  0
 29 28  1  0  0  0  0
 29 26  1  0  0  0  0
 30 32  1  0  0  0  0
 31 30  1  0  0  0  0
 33 30  1  0  0  0  0
 34 35  1  0  0  0  0
 34 28  1  0  0  0  0
 36 34  1  0  0  0  0
 36 35  1  0  0  0  0
 37 38  1  0  0  0  0
 39 40  1  0  0  0  0
 40  1  1  0  0  0  0
M  END
>  <minimizedAffinity>
-11.0457573

$$$$
