
 OpenBabel11232420493D

 40 46  0  0  1  0  0  0  0  0999 V2000
  -14.6100   34.9600   11.9520 C   0  0  0  0  0  0  0  0  0  0  0  0
  -13.9460   36.1910   12.0570 C   0  0  0  0  0  3  0  0  0  0  0  0
  -14.2020   37.0540   13.1280 C   0  0  0  0  0  3  0  0  0  0  0  0
  -15.1320   36.7050   14.1000 C   0  0  0  0  0  3  0  0  0  0  0  0
  -15.8170   35.4970   13.9920 C   0  0  0  0  0  0  0  0  0  0  0  0
  -15.5540   34.6080   12.9340 C   0  0  0  0  0  0  0  0  0  0  0  0
  -16.2790   33.3450   12.9660 C   0  0  0  0  0  0  0  0  0  0  0  0
  -16.1030   32.2310   12.2930 N   0  0  0  0  0  0  0  0  0  0  0  0
  -17.0480   31.3340   12.7560 C   0  0  0  0  0  0  0  0  0  0  0  0
  -17.8400   31.9310   13.7320 C   0  0  0  0  0  0  0  0  0  0  0  0
  -17.3140   33.1980   13.8480 N   0  0  0  0  0  0  0  0  0  0  0  0
  -17.7620   34.2980   14.6760 C   0  0  0  0  0  2  0  0  0  0  0  0
  -16.6980   35.2080   15.0080 O   0  0  0  0  0  0  0  0  0  0  0  0
  -18.9560   31.4690   14.5440 C   0  0  0  0  0  0  0  0  0  0  0  0
  -20.2700   31.6210   14.0850 C   0  0  0  0  0  3  0  0  0  0  0  0
  -21.3410   31.1930   14.8720 C   0  0  0  0  0  3  0  0  0  0  0  0
  -21.1040   30.6160   16.1180 C   0  0  0  0  0  3  0  0  0  0  0  0
  -19.7960   30.4640   16.5800 C   0  0  0  0  0  3  0  0  0  0  0  0
  -18.7230   30.8900   15.7960 C   0  0  0  0  0  3  0  0  0  0  0  0
  -17.0960   29.9760   12.2180 C   0  0  0  0  0  0  0  0  0  0  0  0
  -15.9740   29.2570   11.8070 C   0  0  0  0  0  3  0  0  0  0  0  0
  -16.0990   27.9530   11.3000 C   0  0  0  0  0  3  0  0  0  0  0  0
  -17.3440   27.3020   11.1850 C   0  0  0  0  0  0  0  0  0  0  0  0
  -18.4620   28.0410   11.6160 C   0  0  0  0  0  3  0  0  0  0  0  0
  -18.3410   29.3440   12.1160 C   0  0  0  0  0  3  0  0  0  0  0  0
  -17.4720   25.8110   10.6530 C   0  0  1  0  0  0  0  0  0  0  0  0
  -18.4320   24.8380   11.3790 C   0  0  0  0  0  2  0  0  0  0  0  0
  -19.0390   24.3800   10.0130 C   0  0  1  0  0  0  0  0  0  0  0  0
  -18.2570   25.5590    9.3450 C   0  0  0  0  0  2  0  0  0  0  0  0
  -16.0880   25.2830   10.5890 N   0  0  0  0  0  4  0  0  0  0  0  0
  -15.5000   25.8590    9.9710 H   0  0  0  0  0  0  0  0  0  0  0  0
  -15.6390   25.3150   11.5150 H   0  0  0  0  0  0  0  0  0  0  0  0
  -16.0330   24.3150   10.2530 H   0  0  0  0  0  0  0  0  0  0  0  0
  -18.7140   22.9570    9.5370 C   0  0  0  0  0  3  0  0  0  0  0  0
  -19.5080   21.7070    9.8190 C   0  0  0  0  0  2  0  0  0  0  0  0
  -19.3780   22.2060    8.4100 C   0  0  0  0  0  2  0  0  0  0  0  0
  -20.4740   24.5840    9.9600 O   0  0  0  0  0  0  0  0  0  0  0  0
  -20.6720   25.4790   10.2860 H   0  0  0  0  0  0  0  0  0  0  0  0
  -13.2400   34.2320   10.1350 C   0  0  0  0  0  1  0  0  0  0  0  0
  -14.4100   34.0750   10.9250 O   0  0  0  0  0  0  0  0  0  0  0  0
  1  2  2  0  0  0  0
  1  6  1  0  0  0  0
  2  3  1  0  0  0  0
  3  4  2  0  0  0  0
  5  4  1  0  0  0  0
  5 13  1  0  0  0  0
  6  7  1  0  0  0  0
  6  5  2  0  0  0  0
  7 11  1  0  0  0  0
  8  9  1  0  0  0  0
  8  7  2  0  0  0  0
  9 10  2  0  0  0  0
 10 11  1  0  0  0  0
 10 14  1  0  0  0  0
 11 12  1  0  0  0  0
 12 13  1  0  0  0  0
 14 19  1  0  0  0  0
 15 14  2  0  0  0  0
 15 16  1  0  0  0  0
 16 17  2  0  0  0  0
 17 18  1  0  0  0  0
 19 18  2  0  0  0  0
 20  9  1  0  0  0  0
 21 20  2  0  0  0  0
 22 21  1  0  0  0  0
 23 22  2  0  0  0  0
 23 24  1  0  0  0  0
 24 25  2  0  0  0  0
 25 20  1  0  0  0  0
 26 30  1  6  0  0  0
 26 23  1  0  0  0  0
 26 27  1  0  0  0  0
 28 37  1  6  0  0  0
 28 27  1  0  0  0  0
 29 28  1  0  0  0  0
 29 26  1  0  0  0  0
 30 32  1  0  0  0  0
 31 30  1  0  0  0  0
 33 30  1  0  0  0  0
 34 35  1  0  0  0  0
 34 28  1  0  0  0  0
 36 34  1  0  0  0  0
 36 35  1  0  0  0  0
 37 38  1  0  0  0  0
 39 40  1  0  0  0  0
 40  1  1  0  0  0  0
M  END
>  <minimizedAffinity>
-9.68540192

$$$$
