
 OpenBabel11232420493D

 40 46  0  0  1  0  0  0  0  0999 V2000
  -16.1360   20.1670    7.2430 C   0  0  0  0  0  0  0  0  0  0  0  0
  -15.6210   19.2520    6.3120 C   0  0  0  0  0  3  0  0  0  0  0  0
  -16.2040   17.9920    6.1470 C   0  0  0  0  0  3  0  0  0  0  0  0
  -17.3010   17.6230    6.9170 C   0  0  0  0  0  3  0  0  0  0  0  0
  -17.8050   18.5120    7.8640 C   0  0  0  0  0  0  0  0  0  0  0  0
  -17.2440   19.7920    8.0250 C   0  0  0  0  0  0  0  0  0  0  0  0
  -17.9010   20.6590    8.9940 C   0  0  0  0  0  0  0  0  0  0  0  0
  -17.7900   21.9490    9.2120 N   0  0  0  0  0  0  0  0  0  0  0  0
  -18.6830   22.2590   10.2220 C   0  0  0  0  0  0  0  0  0  0  0  0
  -19.3440   21.1110   10.6480 C   0  0  0  0  0  0  0  0  0  0  0  0
  -18.8340   20.1220    9.8380 N   0  0  0  0  0  0  0  0  0  0  0  0
  -19.1090   18.7010    9.8510 C   0  0  0  0  0  2  0  0  0  0  0  0
  -18.9090   18.0870    8.5650 O   0  0  0  0  0  0  0  0  0  0  0  0
  -20.3640   20.8520   11.6520 C   0  0  0  0  0  0  0  0  0  0  0  0
  -20.2410   19.7540   12.5130 C   0  0  0  0  0  3  0  0  0  0  0  0
  -21.2280   19.4960   13.4650 C   0  0  0  0  0  3  0  0  0  0  0  0
  -22.3420   20.3300   13.5600 C   0  0  0  0  0  3  0  0  0  0  0  0
  -22.4700   21.4240   12.7040 C   0  0  0  0  0  3  0  0  0  0  0  0
  -21.4840   21.6850   11.7510 C   0  0  0  0  0  3  0  0  0  0  0  0
  -18.8210   23.6400   10.6810 C   0  0  0  0  0  0  0  0  0  0  0  0
  -19.1230   24.0040   11.9920 C   0  0  0  0  0  3  0  0  0  0  0  0
  -19.2390   25.3540   12.3580 C   0  0  0  0  0  3  0  0  0  0  0  0
  -19.0520   26.4070   11.4380 C   0  0  0  0  0  0  0  0  0  0  0  0
  -18.7360   26.0180   10.1220 C   0  0  0  0  0  3  0  0  0  0  0  0
  -18.6260   24.6710    9.7540 C   0  0  0  0  0  3  0  0  0  0  0  0
  -19.1390   27.9330   11.8700 C   0  0  1  0  0  0  0  0  0  0  0  0
  -17.9120   28.5880   12.5490 C   0  0  0  0  0  2  0  0  0  0  0  0
  -18.0200   29.8260   11.5990 C   0  0  1  0  0  0  0  0  0  0  0  0
  -19.0700   29.0160   10.7690 C   0  0  0  0  0  2  0  0  0  0  0  0
  -20.3630   28.0500   12.6990 N   0  0  0  0  0  4  0  0  0  0  0  0
  -21.1960   27.7540   12.1730 H   0  0  0  0  0  0  0  0  0  0  0  0
  -20.3120   27.4280   13.5190 H   0  0  0  0  0  0  0  0  0  0  0  0
  -20.5360   29.0000   13.0430 H   0  0  0  0  0  0  0  0  0  0  0  0
  -18.4790   31.1540   12.2170 C   0  0  0  0  0  3  0  0  0  0  0  0
  -18.5630   32.4910   11.5260 C   0  0  0  0  0  2  0  0  0  0  0  0
  -19.8130   31.8290   12.0250 C   0  0  0  0  0  2  0  0  0  0  0  0
  -16.7950   30.0470   10.8530 O   0  0  0  0  0  0  0  0  0  0  0  0
  -16.5000   29.1960   10.4850 H   0  0  0  0  0  0  0  0  0  0  0  0
  -15.6190   22.3310    6.3740 C   0  0  0  0  0  1  0  0  0  0  0  0
  -15.6070   21.4120    7.4560 O   0  0  0  0  0  0  0  0  0  0  0  0
  1 40  1  0  0  0  0
  1  6  1  0  0  0  0
  2  1  2  0  0  0  0
  3  2  1  0  0  0  0
  3  4  2  0  0  0  0
  4  5  1  0  0  0  0
  5  6  2  0  0  0  0
  5 13  1  0  0  0  0
  6  7  1  0  0  0  0
  7  8  2  0  0  0  0
  7 11  1  0  0  0  0
  8  9  1  0  0  0  0
  9 10  2  0  0  0  0
  9 20  1  0  0  0  0
 10 14  1  0  0  0  0
 11 12  1  0  0  0  0
 11 10  1  0  0  0  0
 13 12  1  0  0  0  0
 14 19  2  0  0  0  0
 14 15  1  0  0  0  0
 15 16  2  0  0  0  0
 16 17  1  0  0  0  0
 18 17  2  0  0  0  0
 19 18  1  0  0  0  0
 20 21  1  0  0  0  0
 21 22  2  0  0  0  0
 23 26  1  0  0  0  0
 23 22  1  0  0  0  0
 24 23  2  0  0  0  0
 25 24  1  0  0  0  0
 25 20  2  0  0  0  0
 26 27  1  0  0  0  0
 26 30  1  1  0  0  0
 28 37  1  6  0  0  0
 28 34  1  0  0  0  0
 28 27  1  0  0  0  0
 29 28  1  0  0  0  0
 29 26  1  0  0  0  0
 30 33  1  0  0  0  0
 30 32  1  0  0  0  0
 31 30  1  0  0  0  0
 35 36  1  0  0  0  0
 35 34  1  0  0  0  0
 36 34  1  0  0  0  0
 38 37  1  0  0  0  0
 39 40  1  0  0  0  0
M  END
>  <minimizedAffinity>
-9.6840477

$$$$
