
 OpenBabel11232420493D

 40 46  0  0  1  0  0  0  0  0999 V2000
  -21.5050   17.9850   13.8240 C   0  0  0  0  0  0  0  0  0  0  0  0
  -21.8720   16.8330   14.5340 C   0  0  0  0  0  3  0  0  0  0  0  0
  -21.4040   15.5720   14.1480 C   0  0  0  0  0  3  0  0  0  0  0  0
  -20.5740   15.4440   13.0410 C   0  0  0  0  0  3  0  0  0  0  0  0
  -20.2240   16.5770   12.3110 C   0  0  0  0  0  0  0  0  0  0  0  0
  -20.6670   17.8550   12.7000 C   0  0  0  0  0  0  0  0  0  0  0  0
  -20.1780   18.9710   11.9020 C   0  0  0  0  0  0  0  0  0  0  0  0
  -20.2000   20.2650   12.1240 N   0  0  0  0  0  0  0  0  0  0  0  0
  -19.5530   20.8620   11.0560 C   0  0  0  0  0  0  0  0  0  0  0  0
  -19.1410   19.8960   10.1440 C   0  0  0  0  0  0  0  0  0  0  0  0
  -19.5410   18.7120   10.7200 N   0  0  0  0  0  0  0  0  0  0  0  0
  -19.4300   17.3630   10.2030 C   0  0  0  0  0  2  0  0  0  0  0  0
  -19.3760   16.3750   11.2470 O   0  0  0  0  0  0  0  0  0  0  0  0
  -18.4300   19.9490    8.8750 C   0  0  0  0  0  0  0  0  0  0  0  0
  -18.7550   20.9270    7.9280 C   0  0  0  0  0  3  0  0  0  0  0  0
  -18.0850   20.9670    6.7030 C   0  0  0  0  0  3  0  0  0  0  0  0
  -17.0920   20.0300    6.4210 C   0  0  0  0  0  3  0  0  0  0  0  0
  -16.7660   19.0520    7.3610 C   0  0  0  0  0  3  0  0  0  0  0  0
  -17.4340   19.0110    8.5860 C   0  0  0  0  0  3  0  0  0  0  0  0
  -19.3840   22.3130   11.0190 C   0  0  0  0  0  0  0  0  0  0  0  0
  -18.2890   22.9880   11.5550 C   0  0  0  0  0  3  0  0  0  0  0  0
  -18.1960   24.3870   11.4800 C   0  0  0  0  0  3  0  0  0  0  0  0
  -19.1860   25.1800   10.8630 C   0  0  0  0  0  0  0  0  0  0  0  0
  -20.2780   24.4770   10.3180 C   0  0  0  0  0  3  0  0  0  0  0  0
  -20.3750   23.0820   10.3980 C   0  0  0  0  0  3  0  0  0  0  0  0
  -19.0520   26.7580   10.7420 C   0  0  1  0  0  0  0  0  0  0  0  0
  -20.3350   27.6220   10.7910 C   0  0  0  0  0  2  0  0  0  0  0  0
  -19.6730   28.5870   11.8280 C   0  0  1  0  0  0  0  0  0  0  0  0
  -18.5120   27.5460   11.9580 C   0  0  0  0  0  2  0  0  0  0  0  0
  -18.2610   27.0050    9.5140 N   0  0  0  0  0  4  0  0  0  0  0  0
  -17.3410   26.5480    9.5670 H   0  0  0  0  0  0  0  0  0  0  0  0
  -18.7270   26.6030    8.6880 H   0  0  0  0  0  0  0  0  0  0  0  0
  -18.1010   28.0000    9.3220 H   0  0  0  0  0  0  0  0  0  0  0  0
  -19.3070   29.9980   11.3470 C   0  0  0  0  0  3  0  0  0  0  0  0
  -19.8650   31.3010   11.8620 C   0  0  0  0  0  2  0  0  0  0  0  0
  -18.4090   30.9880   12.0440 C   0  0  0  0  0  2  0  0  0  0  0  0
  -20.4480   28.6880   13.0500 O   0  0  0  0  0  0  0  0  0  0  0  0
  -20.6950   27.7900   13.3340 H   0  0  0  0  0  0  0  0  0  0  0  0
  -22.6330   19.4130   15.3710 C   0  0  0  0  0  1  0  0  0  0  0  0
  -21.9340   19.2450   14.1460 O   0  0  0  0  0  0  0  0  0  0  0  0
  1 40  1  0  0  0  0
  1  2  1  0  0  0  0
  3  2  2  0  0  0  0
  4  3  1  0  0  0  0
  5  6  1  0  0  0  0
  5  4  2  0  0  0  0
  6  1  2  0  0  0  0
  7  8  2  0  0  0  0
  7  6  1  0  0  0  0
  9  8  1  0  0  0  0
 10 11  1  0  0  0  0
 10  9  2  0  0  0  0
 11  7  1  0  0  0  0
 12 11  1  0  0  0  0
 12 13  1  0  0  0  0
 13  5  1  0  0  0  0
 14 10  1  0  0  0  0
 15 14  2  0  0  0  0
 16 15  1  0  0  0  0
 17 16  2  0  0  0  0
 17 18  1  0  0  0  0
 18 19  2  0  0  0  0
 19 14  1  0  0  0  0
 20  9  1  0  0  0  0
 20 21  1  0  0  0  0
 22 21  2  0  0  0  0
 23 22  1  0  0  0  0
 24 25  1  0  0  0  0
 24 23  2  0  0  0  0
 25 20  2  0  0  0  0
 26 30  1  6  0  0  0
 26 27  1  0  0  0  0
 26 23  1  0  0  0  0
 26 29  1  0  0  0  0
 27 28  1  0  0  0  0
 28 29  1  0  0  0  0
 28 37  1  1  0  0  0
 30 31  1  0  0  0  0
 32 30  1  0  0  0  0
 33 30  1  0  0  0  0
 34 28  1  0  0  0  0
 34 35  1  0  0  0  0
 34 36  1  0  0  0  0
 35 36  1  0  0  0  0
 37 38  1  0  0  0  0
 40 39  1  0  0  0  0
M  END
>  <minimizedAffinity>
-12.3896399

$$$$
