
 OpenBabel11232419583D

 35 39  0  0  1  0  0  0  0  0999 V2000
    3.8050    7.2010   -7.4540 O   0  0  0  0  0  0  0  0  0  0  0  0
    0.8150    4.9860   -7.3770 C   0  0  0  0  0  0  0  0  0  0  0  0
    1.3250    4.0350   -8.2570 C   0  0  0  0  0  3  0  0  0  0  0  0
    2.5580    4.1010   -8.8050 N   0  0  0  0  0  0  0  0  0  0  0  0
    3.3310    5.1500   -8.4530 C   0  0  0  0  0  3  0  0  0  0  0  0
    2.9230    6.1720   -7.6020 C   0  0  0  0  0  0  0  0  0  0  0  0
    1.6500    6.0670   -7.0450 C   0  0  0  0  0  3  0  0  0  0  0  0
   -3.7780    1.4800   -7.4640 C   0  0  0  0  0  1  0  0  0  0  0  0
   -3.7360    2.7690   -6.7320 C   0  0  0  0  0  0  0  0  0  0  0  0
   -4.8090    3.1910   -6.0530 N   0  0  0  0  0  0  0  0  0  0  0  0
   -4.4150    4.3580   -5.5140 N   0  0  0  0  0  0  0  0  0  0  0  0
   -3.1340    4.7180   -5.8400 C   0  0  0  0  0  0  0  0  0  0  0  0
   -2.3670    5.8340   -5.4980 C   0  0  0  0  0  3  0  0  0  0  0  0
   -1.0640    5.8950   -6.0120 C   0  0  0  0  0  3  0  0  0  0  0  0
   -0.5430    4.8850   -6.8350 C   0  0  0  0  0  0  0  0  0  0  0  0
   -1.3460    3.7680   -7.1450 C   0  0  0  0  0  3  0  0  0  0  0  0
   -2.6590    3.6910   -6.6430 C   0  0  0  0  0  0  0  0  0  0  0  0
   -5.0730    4.8630   -4.9310 H   0  0  0  0  0  0  0  0  0  0  0  0
    4.6560    7.2720   -6.3050 C   0  0  0  0  0  2  0  0  0  0  0  0
    4.3190    8.5280   -5.4730 C   0  0  1  0  0  3  0  0  0  0  0  0
    5.3280    9.6120   -5.7480 N   0  0  0  0  0  4  0  0  0  0  0  0
    5.3200    9.9310   -6.7250 H   0  0  0  0  0  0  0  0  0  0  0  0
    5.1820   10.4280   -5.1400 H   0  0  0  0  0  0  0  0  0  0  0  0
    6.2760    9.2570   -5.5480 H   0  0  0  0  0  0  0  0  0  0  0  0
    2.9120    9.0730   -5.7620 C   0  0  0  0  0  2  0  0  0  0  0  0
    2.0360    9.0280   -4.5550 C   0  0  0  0  0  0  0  0  0  0  0  0
    2.4620    8.8200   -3.2580 C   0  0  0  0  0  3  0  0  0  0  0  0
    1.3680    8.8490   -2.4340 N   0  0  0  0  0  0  0  0  0  0  0  0
    0.2290    9.0650   -3.1720 C   0  0  0  0  0  0  0  0  0  0  0  0
   -1.1020    9.1650   -2.7510 C   0  0  0  0  0  3  0  0  0  0  0  0
   -2.0720    9.4080   -3.7240 C   0  0  0  0  0  3  0  0  0  0  0  0
   -1.7220    9.5490   -5.0640 C   0  0  0  0  0  3  0  0  0  0  0  0
   -0.3860    9.4470   -5.4700 C   0  0  0  0  0  3  0  0  0  0  0  0
    0.6140    9.1950   -4.5060 C   0  0  0  0  0  0  0  0  0  0  0  0
    1.3850    8.7390   -1.4280 H   0  0  0  0  0  0  0  0  0  0  0  0
  1 19  1  0  0  0  0
  2  7  1  0  0  0  0
  2 15  1  0  0  0  0
  3  2  2  0  0  0  0
  4  5  2  0  0  0  0
  4  3  1  0  0  0  0
  5  6  1  0  0  0  0
  6  1  1  0  0  0  0
  6  7  2  0  0  0  0
  8  9  1  0  0  0  0
  9 17  1  0  0  0  0
  9 10  2  0  0  0  0
 10 11  1  0  0  0  0
 11 18  1  0  0  0  0
 12 11  1  0  0  0  0
 12 13  1  0  0  0  0
 14 13  2  0  0  0  0
 15 14  1  0  0  0  0
 16 15  2  0  0  0  0
 16 17  1  0  0  0  0
 17 12  2  0  0  0  0
 20 19  1  6  0  0  0
 21 24  1  0  0  0  0
 21 20  1  0  0  0  0
 21 23  1  0  0  0  0
 22 21  1  0  0  0  0
 25 20  1  0  0  0  0
 25 26  1  0  0  0  0
 26 34  1  0  0  0  0
 26 27  2  0  0  0  0
 27 28  1  0  0  0  0
 28 35  1  0  0  0  0
 29 30  1  0  0  0  0
 29 28  1  0  0  0  0
 31 30  2  0  0  0  0
 32 31  1  0  0  0  0
 33 32  2  0  0  0  0
 33 34  1  0  0  0  0
 34 29  2  0  0  0  0
M  END
>  <minimizedAffinity>
-10.0926151

$$$$
