
 OpenBabel11232419583D

 35 39  0  0  1  0  0  0  0  0999 V2000
    0.9350    3.1550   -8.9710 O   0  0  0  0  0  0  0  0  0  0  0  0
    3.5800    5.5360   -7.8810 C   0  0  0  0  0  0  0  0  0  0  0  0
    4.5630    5.0550   -8.7420 C   0  0  0  0  0  3  0  0  0  0  0  0
    4.3630    4.0530   -9.6270 N   0  0  0  0  0  0  0  0  0  0  0  0
    3.1270    3.5120   -9.6730 C   0  0  0  0  0  3  0  0  0  0  0  0
    2.0740    3.8940   -8.8490 C   0  0  0  0  0  0  0  0  0  0  0  0
    2.3090    4.9370   -7.9560 C   0  0  0  0  0  3  0  0  0  0  0  0
    0.8620    8.9270   -4.0710 C   0  0  0  0  0  1  0  0  0  0  0  0
    2.3180    8.9930   -4.3450 C   0  0  0  0  0  0  0  0  0  0  0  0
    3.0810    9.8870   -3.7070 N   0  0  0  0  0  0  0  0  0  0  0  0
    4.3190    9.6550   -4.1770 N   0  0  0  0  0  0  0  0  0  0  0  0
    4.3800    8.6580   -5.1170 C   0  0  0  0  0  0  0  0  0  0  0  0
    5.4500    8.1270   -5.8400 C   0  0  0  0  0  3  0  0  0  0  0  0
    5.1610    7.0930   -6.7400 C   0  0  0  0  0  3  0  0  0  0  0  0
    3.8570    6.6040   -6.9150 C   0  0  0  0  0  0  0  0  0  0  0  0
    2.8070    7.1580   -6.1550 C   0  0  0  0  0  3  0  0  0  0  0  0
    3.0760    8.2020   -5.2490 C   0  0  0  0  0  0  0  0  0  0  0  0
    5.0820   10.2150   -3.8170 H   0  0  0  0  0  0  0  0  0  0  0  0
    0.0340    3.3800  -10.0610 C   0  0  0  0  0  2  0  0  0  0  0  0
   -1.4260    3.2420   -9.5770 C   0  0  1  0  0  3  0  0  0  0  0  0
   -2.2960    2.7520  -10.7050 N   0  0  0  0  0  4  0  0  0  0  0  0
   -2.0360    1.8150  -11.0360 H   0  0  0  0  0  0  0  0  0  0  0  0
   -3.2890    2.7380  -10.4390 H   0  0  0  0  0  0  0  0  0  0  0  0
   -2.2120    3.3950  -11.5070 H   0  0  0  0  0  0  0  0  0  0  0  0
   -1.5700    2.2840   -8.3850 C   0  0  0  0  0  2  0  0  0  0  0  0
   -2.1340    2.9650   -7.1850 C   0  0  0  0  0  0  0  0  0  0  0  0
   -1.4520    3.8390   -6.3600 C   0  0  0  0  0  3  0  0  0  0  0  0
   -2.3050    4.2540   -5.3710 N   0  0  0  0  0  0  0  0  0  0  0  0
   -3.5340    3.6580   -5.5290 C   0  0  0  0  0  0  0  0  0  0  0  0
   -4.6940    3.7870   -4.7570 C   0  0  0  0  0  3  0  0  0  0  0  0
   -5.8220    3.0710   -5.1600 C   0  0  0  0  0  3  0  0  0  0  0  0
   -5.7900    2.2630   -6.2930 C   0  0  0  0  0  3  0  0  0  0  0  0
   -4.6210    2.1450   -7.0560 C   0  0  0  0  0  3  0  0  0  0  0  0
   -3.4650    2.8530   -6.6660 C   0  0  0  0  0  0  0  0  0  0  0  0
   -2.0780    4.9090   -4.6340 H   0  0  0  0  0  0  0  0  0  0  0  0
  1  6  1  0  0  0  0
  2 15  1  0  0  0  0
  3  2  2  0  0  0  0
  4  3  1  0  0  0  0
  5  4  2  0  0  0  0
  5  6  1  0  0  0  0
  6  7  2  0  0  0  0
  7  2  1  0  0  0  0
  9  8  1  0  0  0  0
  9 10  2  0  0  0  0
 11 18  1  0  0  0  0
 11 10  1  0  0  0  0
 12 11  1  0  0  0  0
 13 12  2  0  0  0  0
 14 13  1  0  0  0  0
 15 14  2  0  0  0  0
 15 16  1  0  0  0  0
 16 17  2  0  0  0  0
 17 12  1  0  0  0  0
 17  9  1  0  0  0  0
 19  1  1  0  0  0  0
 20 19  1  6  0  0  0
 20 25  1  0  0  0  0
 21 23  1  0  0  0  0
 21 20  1  0  0  0  0
 22 21  1  0  0  0  0
 24 21  1  0  0  0  0
 25 26  1  0  0  0  0
 26 34  1  0  0  0  0
 26 27  2  0  0  0  0
 27 28  1  0  0  0  0
 28 35  1  0  0  0  0
 29 28  1  0  0  0  0
 29 30  1  0  0  0  0
 31 30  2  0  0  0  0
 32 31  1  0  0  0  0
 33 34  1  0  0  0  0
 33 32  2  0  0  0  0
 34 29  2  0  0  0  0
M  END
>  <minimizedAffinity>
-9.3295126

$$$$
