
 OpenBabel11232419583D

 35 39  0  0  1  0  0  0  0  0999 V2000
    3.8050    7.2010   -7.4540 O   0  0  0  0  0  0  0  0  0  0  0  0
    0.8150    4.9860   -7.3770 C   0  0  0  0  0  0  0  0  0  0  0  0
    1.3250    4.0350   -8.2570 C   0  0  0  0  0  3  0  0  0  0  0  0
    2.5580    4.1010   -8.8050 N   0  0  0  0  0  0  0  0  0  0  0  0
    3.3310    5.1500   -8.4530 C   0  0  0  0  0  3  0  0  0  0  0  0
    2.9230    6.1720   -7.6020 C   0  0  0  0  0  0  0  0  0  0  0  0
    1.6500    6.0670   -7.0450 C   0  0  0  0  0  3  0  0  0  0  0  0
   -3.7780    1.4800   -7.4640 C   0  0  0  0  0  1  0  0  0  0  0  0
   -3.7360    2.7690   -6.7320 C   0  0  0  0  0  0  0  0  0  0  0  0
   -4.8090    3.1910   -6.0530 N   0  0  0  0  0  0  0  0  0  0  0  0
   -4.4150    4.3580   -5.5140 N   0  0  0  0  0  0  0  0  0  0  0  0
   -3.1340    4.7180   -5.8400 C   0  0  0  0  0  0  0  0  0  0  0  0
   -2.3670    5.8340   -5.4980 C   0  0  0  0  0  3  0  0  0  0  0  0
   -1.0640    5.8950   -6.0120 C   0  0  0  0  0  3  0  0  0  0  0  0
   -0.5430    4.8850   -6.8350 C   0  0  0  0  0  0  0  0  0  0  0  0
   -1.3460    3.7680   -7.1450 C   0  0  0  0  0  3  0  0  0  0  0  0
   -2.6590    3.6910   -6.6430 C   0  0  0  0  0  0  0  0  0  0  0  0
   -5.0730    4.8630   -4.9310 H   0  0  0  0  0  0  0  0  0  0  0  0
    4.6560    7.2720   -6.3050 C   0  0  0  0  0  2  0  0  0  0  0  0
    4.3190    8.5280   -5.4730 C   0  0  1  0  0  3  0  0  0  0  0  0
    5.3280    9.6120   -5.7480 N   0  0  0  0  0  4  0  0  0  0  0  0
    5.3200    9.9310   -6.7250 H   0  0  0  0  0  0  0  0  0  0  0  0
    5.1820   10.4280   -5.1400 H   0  0  0  0  0  0  0  0  0  0  0  0
    6.2760    9.2570   -5.5480 H   0  0  0  0  0  0  0  0  0  0  0  0
    2.9120    9.0730   -5.7620 C   0  0  0  0  0  2  0  0  0  0  0  0
    2.0360    9.0280   -4.5550 C   0  0  0  0  0  0  0  0  0  0  0  0
    2.4620    8.8200   -3.2580 C   0  0  0  0  0  3  0  0  0  0  0  0
    1.3680    8.8490   -2.4340 N   0  0  0  0  0  0  0  0  0  0  0  0
    0.2290    9.0650   -3.1720 C   0  0  0  0  0  0  0  0  0  0  0  0
   -1.1020    9.1650   -2.7510 C   0  0  0  0  0  3  0  0  0  0  0  0
   -2.0720    9.4080   -3.7240 C   0  0  0  0  0  3  0  0  0  0  0  0
   -1.7220    9.5490   -5.0640 C   0  0  0  0  0  3  0  0  0  0  0  0
   -0.3860    9.4470   -5.4700 C   0  0  0  0  0  3  0  0  0  0  0  0
    0.6140    9.1950   -4.5060 C   0  0  0  0  0  0  0  0  0  0  0  0
    1.3850    8.7390   -1.4280 H   0  0  0  0  0  0  0  0  0  0  0  0
  1 19  1  0  0  0  0
  2  7  1  0  0  0  0
  2 15  1  0  0  0  0
  3  2  2  0  0  0  0
  4  5  2  0  0  0  0
  4  3  1  0  0  0  0
  5  6  1  0  0  0  0
  6  1  1  0  0  0  0
  6  7  2  0  0  0  0
  8  9  1  0  0  0  0
  9 17  1  0  0  0  0
  9 10  2  0  0  0  0
 10 11  1  0  0  0  0
 11 18  1  0  0  0  0
 12 11  1  0  0  0  0
 12 13  1  0  0  0  0
 14 13  2  0  0  0  0
 15 14  1  0  0  0  0
 16 15  2  0  0  0  0
 16 17  1  0  0  0  0
 17 12  2  0  0  0  0
 20 19  1  6  0  0  0
 21 24  1  0  0  0  0
 21 20  1  0  0  0  0
 21 23  1  0  0  0  0
 22 21  1  0  0  0  0
 25 20  1  0  0  0  0
 25 26  1  0  0  0  0
 26 34  1  0  0  0  0
 26 27  2  0  0  0  0
 27 28  1  0  0  0  0
 28 35  1  0  0  0  0
 29 30  1  0  0  0  0
 29 28  1  0  0  0  0
 31 30  2  0  0  0  0
 32 31  1  0  0  0  0
 33 32  2  0  0  0  0
 33 34  1  0  0  0  0
 34 29  2  0  0  0  0
M  END
>  <minimizedAffinity>
-10.0926151

$$$$

 OpenBabel11232419583D

 35 39  0  0  1  0  0  0  0  0999 V2000
    1.1020    6.3340   -6.8760 O   0  0  0  0  0  0  0  0  0  0  0  0
   -1.3930    3.6020   -7.2760 C   0  0  0  0  0  0  0  0  0  0  0  0
   -0.6100    2.8230   -8.1240 C   0  0  0  0  0  3  0  0  0  0  0  0
    0.6440    3.1540   -8.5070 N   0  0  0  0  0  0  0  0  0  0  0  0
    1.1520    4.3030   -8.0140 C   0  0  0  0  0  3  0  0  0  0  0  0
    0.4580    5.1710   -7.1790 C   0  0  0  0  0  0  0  0  0  0  0  0
   -0.8260    4.7950   -6.7940 C   0  0  0  0  0  3  0  0  0  0  0  0
   -5.5900    4.9720   -3.5480 C   0  0  0  0  0  1  0  0  0  0  0  0
   -5.7010    3.8900   -4.5560 C   0  0  0  0  0  0  0  0  0  0  0  0
   -6.8140    3.1520   -4.6290 N   0  0  0  0  0  0  0  0  0  0  0  0
   -6.5750    2.3020   -5.6420 N   0  0  0  0  0  0  0  0  0  0  0  0
   -5.3370    2.4450   -6.2100 C   0  0  0  0  0  0  0  0  0  0  0  0
   -4.7110    1.7670   -7.2590 C   0  0  0  0  0  3  0  0  0  0  0  0
   -3.4120    2.1730   -7.5960 C   0  0  0  0  0  3  0  0  0  0  0  0
   -2.7600    3.2140   -6.9170 C   0  0  0  0  0  0  0  0  0  0  0  0
   -3.4320    3.8810   -5.8740 C   0  0  0  0  0  3  0  0  0  0  0  0
   -4.7350    3.4850   -5.5160 C   0  0  0  0  0  0  0  0  0  0  0  0
   -7.3020    1.6420   -5.8960 H   0  0  0  0  0  0  0  0  0  0  0  0
    2.4730    6.5250   -7.2420 C   0  0  0  0  0  2  0  0  0  0  0  0
    3.2250    7.2620   -6.1140 C   0  0  1  0  0  3  0  0  0  0  0  0
    4.7080    7.2280   -6.3780 N   0  0  0  0  0  4  0  0  0  0  0  0
    4.9750    7.7190   -7.2390 H   0  0  0  0  0  0  0  0  0  0  0  0
    5.2410    7.6300   -5.5960 H   0  0  0  0  0  0  0  0  0  0  0  0
    5.0170    6.2480   -6.4740 H   0  0  0  0  0  0  0  0  0  0  0  0
    2.7810    8.7240   -5.9580 C   0  0  0  0  0  2  0  0  0  0  0  0
    1.9940    8.9400   -4.7110 C   0  0  0  0  0  0  0  0  0  0  0  0
    2.5040    8.9490   -3.4270 C   0  0  0  0  0  3  0  0  0  0  0  0
    1.4740    9.1800   -2.5540 N   0  0  0  0  0  0  0  0  0  0  0  0
    0.2930    9.3130   -3.2440 C   0  0  0  0  0  0  0  0  0  0  0  0
   -1.0000    9.5510   -2.7640 C   0  0  0  0  0  3  0  0  0  0  0  0
   -2.0280    9.6600   -3.7010 C   0  0  0  0  0  3  0  0  0  0  0  0
   -1.7710    9.5400   -5.0630 C   0  0  0  0  0  3  0  0  0  0  0  0
   -0.4710    9.3030   -5.5290 C   0  0  0  0  0  3  0  0  0  0  0  0
    0.5860    9.1810   -4.6010 C   0  0  0  0  0  0  0  0  0  0  0  0
    1.5590    9.2530   -1.5480 H   0  0  0  0  0  0  0  0  0  0  0  0
  2 15  1  0  0  0  0
  2  7  1  0  0  0  0
  3  2  2  0  0  0  0
  4  3  1  0  0  0  0
  4  5  2  0  0  0  0
  5  6  1  0  0  0  0
  6  1  1  0  0  0  0
  6  7  2  0  0  0  0
  9  8  1  0  0  0  0
 10  9  2  0  0  0  0
 11 10  1  0  0  0  0
 12 11  1  0  0  0  0
 12 17  1  0  0  0  0
 13 12  2  0  0  0  0
 14 13  1  0  0  0  0
 14 15  2  0  0  0  0
 15 16  1  0  0  0  0
 16 17  2  0  0  0  0
 17  9  1  0  0  0  0
 18 11  1  0  0  0  0
 19  1  1  0  0  0  0
 20 19  1  6  0  0  0
 20 25  1  0  0  0  0
 21 20  1  0  0  0  0
 21 23  1  0  0  0  0
 22 21  1  0  0  0  0
 24 21  1  0  0  0  0
 25 26  1  0  0  0  0
 26 34  1  0  0  0  0
 26 27  2  0  0  0  0
 27 28  1  0  0  0  0
 28 35  1  0  0  0  0
 29 30  1  0  0  0  0
 29 28  1  0  0  0  0
 31 30  2  0  0  0  0
 32 31  1  0  0  0  0
 33 32  2  0  0  0  0
 33 34  1  0  0  0  0
 34 29  2  0  0  0  0
M  END
>  <minimizedAffinity>
-10.0843678

$$$$

 OpenBabel11232419583D

 35 39  0  0  1  0  0  0  0  0999 V2000
   -1.4580    7.2670   -4.4760 O   0  0  0  0  0  0  0  0  0  0  0  0
    0.1750    5.2490   -7.1420 C   0  0  0  0  0  0  0  0  0  0  0  0
   -0.9790    4.5780   -7.5340 C   0  0  0  0  0  3  0  0  0  0  0  0
   -2.1970    4.7920   -6.9890 N   0  0  0  0  0  0  0  0  0  0  0  0
   -2.2790    5.7280   -6.0200 C   0  0  0  0  0  3  0  0  0  0  0  0
   -1.1920    6.4460   -5.5310 C   0  0  0  0  0  0  0  0  0  0  0  0
    0.0460    6.2090   -6.1230 C   0  0  0  0  0  3  0  0  0  0  0  0
    5.6590    7.0700   -7.0250 C   0  0  0  0  0  1  0  0  0  0  0  0
    5.1730    5.9660   -7.8870 C   0  0  0  0  0  0  0  0  0  0  0  0
    6.0170    5.3380   -8.7140 N   0  0  0  0  0  0  0  0  0  0  0  0
    5.2550    4.4060   -9.3120 N   0  0  0  0  0  0  0  0  0  0  0  0
    3.9420    4.4240   -8.9200 C   0  0  0  0  0  0  0  0  0  0  0  0
    2.8480    3.6430   -9.2990 C   0  0  0  0  0  3  0  0  0  0  0  0
    1.6180    3.9310   -8.6920 C   0  0  0  0  0  3  0  0  0  0  0  0
    1.4790    4.9560   -7.7440 C   0  0  0  0  0  0  0  0  0  0  0  0
    2.6120    5.7120   -7.3790 C   0  0  0  0  0  3  0  0  0  0  0  0
    3.8560    5.4420   -7.9810 C   0  0  0  0  0  0  0  0  0  0  0  0
    5.6940    3.7860   -9.9840 H   0  0  0  0  0  0  0  0  0  0  0  0
   -1.5360    8.6850   -4.6570 C   0  0  0  0  0  2  0  0  0  0  0  0
   -0.6650    9.4030   -3.6040 C   0  0  1  0  0  3  0  0  0  0  0  0
   -1.5080    9.7850   -2.4150 N   0  0  0  0  0  4  0  0  0  0  0  0
   -1.9030    8.9730   -1.9250 H   0  0  0  0  0  0  0  0  0  0  0  0
   -0.9760   10.3460   -1.7380 H   0  0  0  0  0  0  0  0  0  0  0  0
   -2.2990   10.3700   -2.7290 H   0  0  0  0  0  0  0  0  0  0  0  0
    0.5140    8.5450   -3.1220 C   0  0  0  0  0  2  0  0  0  0  0  0
    1.7750    8.8680   -3.8490 C   0  0  0  0  0  0  0  0  0  0  0  0
    1.9310    8.8890   -5.2220 C   0  0  0  0  0  3  0  0  0  0  0  0
    3.2280    9.2300   -5.5040 N   0  0  0  0  0  0  0  0  0  0  0  0
    3.9280    9.4250   -4.3380 C   0  0  0  0  0  0  0  0  0  0  0  0
    5.2690    9.7780   -4.1500 C   0  0  0  0  0  3  0  0  0  0  0  0
    5.7210    9.9290   -2.8380 C   0  0  0  0  0  3  0  0  0  0  0  0
    4.8630    9.7370   -1.7600 C   0  0  0  0  0  3  0  0  0  0  0  0
    3.5230    9.3840   -1.9640 C   0  0  0  0  0  3  0  0  0  0  0  0
    3.0420    9.2190   -3.2800 C   0  0  0  0  0  0  0  0  0  0  0  0
    3.6210    9.3350   -6.4310 H   0  0  0  0  0  0  0  0  0  0  0  0
  2  7  1  0  0  0  0
  3  2  2  0  0  0  0
  3  4  1  0  0  0  0
  4  5  2  0  0  0  0
  5  6  1  0  0  0  0
  6  1  1  0  0  0  0
  7  6  2  0  0  0  0
  9  8  1  0  0  0  0
 10  9  2  0  0  0  0
 11 12  1  0  0  0  0
 11 10  1  0  0  0  0
 12 17  1  0  0  0  0
 13 12  2  0  0  0  0
 13 14  1  0  0  0  0
 14 15  2  0  0  0  0
 15 16  1  0  0  0  0
 15  2  1  0  0  0  0
 17  9  1  0  0  0  0
 17 16  2  0  0  0  0
 18 11  1  0  0  0  0
 19  1  1  0  0  0  0
 20 19  1  6  0  0  0
 20 25  1  0  0  0  0
 20 21  1  0  0  0  0
 21 22  1  0  0  0  0
 21 23  1  0  0  0  0
 24 21  1  0  0  0  0
 26 34  1  0  0  0  0
 26 25  1  0  0  0  0
 27 26  2  0  0  0  0
 28 27  1  0  0  0  0
 28 29  1  0  0  0  0
 29 30  2  0  0  0  0
 29 34  1  0  0  0  0
 30 31  1  0  0  0  0
 31 32  2  0  0  0  0
 33 32  1  0  0  0  0
 34 33  2  0  0  0  0
 35 28  1  0  0  0  0
M  END
>  <minimizedAffinity>
-10.021286

$$$$

 OpenBabel11232419583D

 35 39  0  0  1  0  0  0  0  0999 V2000
   -0.2620    3.3170   -8.4350 O   0  0  0  0  0  0  0  0  0  0  0  0
    2.8440    5.3020   -7.9240 C   0  0  0  0  0  0  0  0  0  0  0  0
    3.5840    4.6580   -8.9120 C   0  0  0  0  0  3  0  0  0  0  0  0
    3.0930    3.6760   -9.7010 N   0  0  0  0  0  0  0  0  0  0  0  0
    1.8030    3.3250   -9.5120 C   0  0  0  0  0  3  0  0  0  0  0  0
    0.9740    3.8810   -8.5430 C   0  0  0  0  0  0  0  0  0  0  0  0
    1.5070    4.8980   -7.7550 C   0  0  0  0  0  3  0  0  0  0  0  0
    1.3490    9.1260   -3.8580 C   0  0  0  0  0  1  0  0  0  0  0  0
    2.7270    8.9780   -4.3860 C   0  0  0  0  0  0  0  0  0  0  0  0
    3.7080    9.7670   -3.9340 N   0  0  0  0  0  0  0  0  0  0  0  0
    4.7960    9.3510   -4.6040 N   0  0  0  0  0  0  0  0  0  0  0  0
    4.5500    8.3360   -5.4920 C   0  0  0  0  0  0  0  0  0  0  0  0
    5.3880    7.6430   -6.3670 C   0  0  0  0  0  3  0  0  0  0  0  0
    4.8030    6.6410   -7.1530 C   0  0  0  0  0  3  0  0  0  0  0  0
    3.4340    6.3390   -7.0730 C   0  0  0  0  0  0  0  0  0  0  0  0
    2.6250    7.0540   -6.1670 C   0  0  0  0  0  3  0  0  0  0  0  0
    3.1930    8.0680   -5.3720 C   0  0  0  0  0  0  0  0  0  0  0  0
    5.6820    9.8040   -4.4100 H   0  0  0  0  0  0  0  0  0  0  0  0
   -1.1820    3.3640   -9.5320 C   0  0  0  0  0  2  0  0  0  0  0  0
   -2.5320    2.7390   -9.1180 C   0  0  1  0  0  3  0  0  0  0  0  0
   -2.3160    1.7330   -8.0180 N   0  0  0  0  0  4  0  0  0  0  0  0
   -1.9420    2.1520   -7.1570 H   0  0  0  0  0  0  0  0  0  0  0  0
   -3.1840    1.2340   -7.7850 H   0  0  0  0  0  0  0  0  0  0  0  0
   -1.6390    1.0200   -8.3320 H   0  0  0  0  0  0  0  0  0  0  0  0
   -3.5510    3.7850   -8.6420 C   0  0  0  0  0  2  0  0  0  0  0  0
   -3.1610    4.3940   -7.3380 C   0  0  0  0  0  0  0  0  0  0  0  0
   -3.4620    3.8870   -6.0890 C   0  0  0  0  0  3  0  0  0  0  0  0
   -2.9320    4.7250   -5.1440 N   0  0  0  0  0  0  0  0  0  0  0  0
   -2.2960    5.7790   -5.7520 C   0  0  0  0  0  0  0  0  0  0  0  0
   -1.6230    6.8660   -5.1810 C   0  0  0  0  0  3  0  0  0  0  0  0
   -1.0450    7.7960   -6.0470 C   0  0  0  0  0  3  0  0  0  0  0  0
   -1.1330    7.6410   -7.4270 C   0  0  0  0  0  3  0  0  0  0  0  0
   -1.8090    6.5470   -7.9830 C   0  0  0  0  0  3  0  0  0  0  0  0
   -2.4090    5.5960   -7.1300 C   0  0  0  0  0  0  0  0  0  0  0  0
   -2.9870    4.5910   -4.1410 H   0  0  0  0  0  0  0  0  0  0  0  0
  2  7  1  0  0  0  0
  2 15  1  0  0  0  0
  3  2  2  0  0  0  0
  4  5  2  0  0  0  0
  4  3  1  0  0  0  0
  5  6  1  0  0  0  0
  6  1  1  0  0  0  0
  6  7  2  0  0  0  0
  9 10  2  0  0  0  0
  9  8  1  0  0  0  0
 11 18  1  0  0  0  0
 11 10  1  0  0  0  0
 12 17  1  0  0  0  0
 12 11  1  0  0  0  0
 13 12  2  0  0  0  0
 14 15  2  0  0  0  0
 14 13  1  0  0  0  0
 15 16  1  0  0  0  0
 16 17  2  0  0  0  0
 17  9  1  0  0  0  0
 19  1  1  0  0  0  0
 20 19  1  1  0  0  0
 20 25  1  0  0  0  0
 20 21  1  0  0  0  0
 21 23  1  0  0  0  0
 21 22  1  0  0  0  0
 24 21  1  0  0  0  0
 25 26  1  0  0  0  0
 26 34  1  0  0  0  0
 26 27  2  0  0  0  0
 27 28  1  0  0  0  0
 28 35  1  0  0  0  0
 29 30  1  0  0  0  0
 29 28  1  0  0  0  0
 31 30  2  0  0  0  0
 32 31  1  0  0  0  0
 33 32  2  0  0  0  0
 33 34  1  0  0  0  0
 34 29  2  0  0  0  0
M  END
>  <minimizedAffinity>
-9.99849701

$$$$

 OpenBabel11232419583D

 35 39  0  0  1  0  0  0  0  0999 V2000
   -1.0180    7.4940   -4.4810 O   0  0  0  0  0  0  0  0  0  0  0  0
    0.3640    5.3200   -7.1670 C   0  0  0  0  0  0  0  0  0  0  0  0
   -0.8440    4.6990   -7.4770 C   0  0  0  0  0  3  0  0  0  0  0  0
   -2.0180    4.9920   -6.8750 N   0  0  0  0  0  0  0  0  0  0  0  0
   -1.9990    5.9580   -5.9320 C   0  0  0  0  0  3  0  0  0  0  0  0
   -0.8520    6.6310   -5.5230 C   0  0  0  0  0  0  0  0  0  0  0  0
    0.3390    6.3130   -6.1720 C   0  0  0  0  0  3  0  0  0  0  0  0
    5.9840    6.6640   -7.1860 C   0  0  0  0  0  1  0  0  0  0  0  0
    5.3760    5.6410   -8.0710 C   0  0  0  0  0  0  0  0  0  0  0  0
    6.1340    4.9780   -8.9520 N   0  0  0  0  0  0  0  0  0  0  0  0
    5.2750    4.1390   -9.5550 N   0  0  0  0  0  0  0  0  0  0  0  0
    3.9830    4.2520   -9.1140 C   0  0  0  0  0  0  0  0  0  0  0  0
    2.8140    3.5830   -9.4810 C   0  0  0  0  0  3  0  0  0  0  0  0
    1.6340    3.9480   -8.8190 C   0  0  0  0  0  3  0  0  0  0  0  0
    1.6160    4.9420   -7.8280 C   0  0  0  0  0  0  0  0  0  0  0  0
    2.8210    5.5840   -7.4770 C   0  0  0  0  0  3  0  0  0  0  0  0
    4.0160    5.2350   -8.1350 C   0  0  0  0  0  0  0  0  0  0  0  0
    5.6360    3.5120  -10.2660 H   0  0  0  0  0  0  0  0  0  0  0  0
   -0.7520    8.8910   -4.6420 C   0  0  0  0  0  2  0  0  0  0  0  0
    0.0310    9.4250   -3.4230 C   0  0  1  0  0  3  0  0  0  0  0  0
   -0.8990    9.5950   -2.2510 N   0  0  0  0  0  4  0  0  0  0  0  0
   -1.3120    8.7090   -1.9330 H   0  0  0  0  0  0  0  0  0  0  0  0
   -0.4240   10.0360   -1.4520 H   0  0  0  0  0  0  0  0  0  0  0  0
   -1.6760   10.2190   -2.5160 H   0  0  0  0  0  0  0  0  0  0  0  0
    1.1900    8.5050   -3.0110 C   0  0  0  0  0  2  0  0  0  0  0  0
    2.5170    9.1620   -3.1900 C   0  0  0  0  0  0  0  0  0  0  0  0
    3.3040    9.6780   -2.1790 C   0  0  0  0  0  3  0  0  0  0  0  0
    4.4430   10.1930   -2.7380 N   0  0  0  0  0  0  0  0  0  0  0  0
    4.4120   10.0320   -4.1020 C   0  0  0  0  0  0  0  0  0  0  0  0
    5.3540   10.4080   -5.0670 C   0  0  0  0  0  3  0  0  0  0  0  0
    5.0720   10.1020   -6.4000 C   0  0  0  0  0  3  0  0  0  0  0  0
    3.8980    9.4420   -6.7500 C   0  0  0  0  0  3  0  0  0  0  0  0
    2.9660    9.0710   -5.7720 C   0  0  0  0  0  3  0  0  0  0  0  0
    3.2230    9.3760   -4.4180 C   0  0  0  0  0  0  0  0  0  0  0  0
    5.2060   10.6240   -2.2310 H   0  0  0  0  0  0  0  0  0  0  0  0
  2  7  1  0  0  0  0
  3  2  2  0  0  0  0
  3  4  1  0  0  0  0
  4  5  2  0  0  0  0
  5  6  1  0  0  0  0
  6  1  1  0  0  0  0
  7  6  2  0  0  0  0
  9  8  1  0  0  0  0
 10  9  2  0  0  0  0
 11 12  1  0  0  0  0
 11 10  1  0  0  0  0
 12 17  1  0  0  0  0
 13 12  2  0  0  0  0
 13 14  1  0  0  0  0
 14 15  2  0  0  0  0
 15 16  1  0  0  0  0
 15  2  1  0  0  0  0
 17  9  1  0  0  0  0
 17 16  2  0  0  0  0
 18 11  1  0  0  0  0
 19  1  1  0  0  0  0
 20 19  1  6  0  0  0
 20 25  1  0  0  0  0
 20 21  1  0  0  0  0
 21 22  1  0  0  0  0
 21 23  1  0  0  0  0
 24 21  1  0  0  0  0
 26 25  1  0  0  0  0
 26 27  2  0  0  0  0
 28 35  1  0  0  0  0
 28 27  1  0  0  0  0
 29 28  1  0  0  0  0
 30 29  2  0  0  0  0
 31 30  1  0  0  0  0
 32 31  2  0  0  0  0
 32 33  1  0  0  0  0
 33 34  2  0  0  0  0
 34 29  1  0  0  0  0
 34 26  1  0  0  0  0
M  END
>  <minimizedAffinity>
-9.98263645

$$$$

 OpenBabel11232419583D

 35 39  0  0  1  0  0  0  0  0999 V2000
    5.1880    7.2330   -7.3280 O   0  0  0  0  0  0  0  0  0  0  0  0
    2.7870    4.6110   -8.4300 C   0  0  0  0  0  0  0  0  0  0  0  0
    3.6610    3.9860   -9.3150 C   0  0  0  0  0  3  0  0  0  0  0  0
    4.9410    4.3760   -9.5110 N   0  0  0  0  0  0  0  0  0  0  0  0
    5.3810    5.4240   -8.7830 C   0  0  0  0  0  3  0  0  0  0  0  0
    4.5950    6.1390   -7.8850 C   0  0  0  0  0  0  0  0  0  0  0  0
    3.2850    5.7050   -7.6990 C   0  0  0  0  0  3  0  0  0  0  0  0
   -2.0500    5.9850   -5.5820 C   0  0  0  0  0  1  0  0  0  0  0  0
   -1.9360    4.8320   -6.5080 C   0  0  0  0  0  0  0  0  0  0  0  0
   -2.9850    4.0280   -6.7120 N   0  0  0  0  0  0  0  0  0  0  0  0
   -2.5350    3.1250   -7.6010 N   0  0  0  0  0  0  0  0  0  0  0  0
   -1.2250    3.3020   -7.9610 C   0  0  0  0  0  0  0  0  0  0  0  0
   -0.3970    2.5920   -8.8330 C   0  0  0  0  0  3  0  0  0  0  0  0
    0.9210    3.0490   -8.9760 C   0  0  0  0  0  3  0  0  0  0  0  0
    1.3980    4.1690   -8.2780 C   0  0  0  0  0  0  0  0  0  0  0  0
    0.5250    4.8660   -7.4180 C   0  0  0  0  0  3  0  0  0  0  0  0
   -0.8010    4.4200   -7.2570 C   0  0  0  0  0  0  0  0  0  0  0  0
   -3.1760    2.4090   -7.9230 H   0  0  0  0  0  0  0  0  0  0  0  0
    4.9050    7.6050   -5.9750 C   0  0  0  0  0  2  0  0  0  0  0  0
    4.0840    8.9120   -5.9450 C   0  0  1  0  0  3  0  0  0  0  0  0
    4.5370    9.8270   -7.0530 N   0  0  0  0  0  4  0  0  0  0  0  0
    4.3770    9.4350   -7.9890 H   0  0  0  0  0  0  0  0  0  0  0  0
    4.0720   10.7430   -7.0010 H   0  0  0  0  0  0  0  0  0  0  0  0
    5.5490   10.0030   -6.9610 H   0  0  0  0  0  0  0  0  0  0  0  0
    2.5740    8.6700   -6.0850 C   0  0  0  0  0  2  0  0  0  0  0  0
    1.8480    8.9060   -4.8040 C   0  0  0  0  0  0  0  0  0  0  0  0
    2.4130    8.8870   -3.5430 C   0  0  0  0  0  3  0  0  0  0  0  0
    1.4290    9.1490   -2.6260 N   0  0  0  0  0  0  0  0  0  0  0  0
    0.2260    9.3300   -3.2640 C   0  0  0  0  0  0  0  0  0  0  0  0
   -1.0360    9.6110   -2.7280 C   0  0  0  0  0  3  0  0  0  0  0  0
   -2.0980    9.7650   -3.6200 C   0  0  0  0  0  3  0  0  0  0  0  0
   -1.9030    9.6460   -4.9920 C   0  0  0  0  0  3  0  0  0  0  0  0
   -0.6340    9.3650   -5.5140 C   0  0  0  0  0  3  0  0  0  0  0  0
    0.4560    9.1970   -4.6330 C   0  0  0  0  0  0  0  0  0  0  0  0
    1.5600    9.2110   -1.6230 H   0  0  0  0  0  0  0  0  0  0  0  0
  1 19  1  0  0  0  0
  2 15  1  0  0  0  0
  2  7  1  0  0  0  0
  3  2  2  0  0  0  0
  4  3  1  0  0  0  0
  4  5  2  0  0  0  0
  5  6  1  0  0  0  0
  6  7  2  0  0  0  0
  6  1  1  0  0  0  0
  9  8  1  0  0  0  0
 10  9  2  0  0  0  0
 11 10  1  0  0  0  0
 12 11  1  0  0  0  0
 12 17  1  0  0  0  0
 13 12  2  0  0  0  0
 14 13  1  0  0  0  0
 14 15  2  0  0  0  0
 15 16  1  0  0  0  0
 16 17  2  0  0  0  0
 17  9  1  0  0  0  0
 18 11  1  0  0  0  0
 19 20  1  0  0  0  0
 20 25  1  6  0  0  0
 21 23  1  0  0  0  0
 21 24  1  0  0  0  0
 21 20  1  0  0  0  0
 22 21  1  0  0  0  0
 25 26  1  0  0  0  0
 26 34  1  0  0  0  0
 26 27  2  0  0  0  0
 27 28  1  0  0  0  0
 28 35  1  0  0  0  0
 29 30  1  0  0  0  0
 29 28  1  0  0  0  0
 31 30  2  0  0  0  0
 32 31  1  0  0  0  0
 33 32  2  0  0  0  0
 33 34  1  0  0  0  0
 34 29  2  0  0  0  0
M  END
>  <minimizedAffinity>
-9.88416195

$$$$

 OpenBabel11232419583D

 35 39  0  0  1  0  0  0  0  0999 V2000
   -1.4990    5.3240   -7.9960 O   0  0  0  0  0  0  0  0  0  0  0  0
    0.5990    7.2130   -5.5700 C   0  0  0  0  0  0  0  0  0  0  0  0
   -0.4280    7.4610   -4.6630 C   0  0  0  0  0  3  0  0  0  0  0  0
   -1.6950    7.0180   -4.8210 N   0  0  0  0  0  0  0  0  0  0  0  0
   -1.9540    6.2810   -5.9220 C   0  0  0  0  0  3  0  0  0  0  0  0
   -1.0170    5.9880   -6.9070 C   0  0  0  0  0  0  0  0  0  0  0  0
    0.2820    6.4490   -6.7080 C   0  0  0  0  0  3  0  0  0  0  0  0
    3.4860   10.9130   -2.1980 C   0  0  0  0  0  1  0  0  0  0  0  0
    4.1080   10.1450   -3.3040 C   0  0  0  0  0  0  0  0  0  0  0  0
    5.4070   10.3020   -3.5830 N   0  0  0  0  0  0  0  0  0  0  0  0
    5.6240    9.4580   -4.6070 N   0  0  0  0  0  0  0  0  0  0  0  0
    4.5070    8.7800   -5.0180 C   0  0  0  0  0  0  0  0  0  0  0  0
    4.3100    7.8390   -6.0300 C   0  0  0  0  0  3  0  0  0  0  0  0
    3.0130    7.3310   -6.1880 C   0  0  0  0  0  3  0  0  0  0  0  0
    1.9500    7.7440   -5.3680 C   0  0  0  0  0  0  0  0  0  0  0  0
    2.1940    8.6860   -4.3490 C   0  0  0  0  0  3  0  0  0  0  0  0
    3.4890    9.2120   -4.1780 C   0  0  0  0  0  0  0  0  0  0  0  0
    6.5630    9.3930   -4.9840 H   0  0  0  0  0  0  0  0  0  0  0  0
   -2.9080    5.2430   -8.2350 C   0  0  0  0  0  2  0  0  0  0  0  0
   -3.2930    3.8050   -8.6450 C   0  0  1  0  0  3  0  0  0  0  0  0
   -2.5430    3.4070   -9.8880 N   0  0  0  0  0  4  0  0  0  0  0  0
   -1.5250    3.3800   -9.7530 H   0  0  0  0  0  0  0  0  0  0  0  0
   -2.8480    2.4900  -10.2370 H   0  0  0  0  0  0  0  0  0  0  0  0
   -2.7350    4.0890  -10.6390 H   0  0  0  0  0  0  0  0  0  0  0  0
   -3.0100    2.7750   -7.5410 C   0  0  0  0  0  2  0  0  0  0  0  0
   -4.0920    2.7410   -6.5160 C   0  0  0  0  0  0  0  0  0  0  0  0
   -4.0870    3.4230   -5.3150 C   0  0  0  0  0  3  0  0  0  0  0  0
   -5.2510    3.1400   -4.6520 N   0  0  0  0  0  0  0  0  0  0  0  0
   -6.0170    2.2740   -5.3940 C   0  0  0  0  0  0  0  0  0  0  0  0
   -7.2690    1.7190   -5.1070 C   0  0  0  0  0  3  0  0  0  0  0  0
   -7.8350    0.8710   -6.0610 C   0  0  0  0  0  3  0  0  0  0  0  0
   -7.1750    0.5940   -7.2540 C   0  0  0  0  0  3  0  0  0  0  0  0
   -5.9220    1.1580   -7.5270 C   0  0  0  0  0  3  0  0  0  0  0  0
   -5.3250    2.0130   -6.5770 C   0  0  0  0  0  0  0  0  0  0  0  0
   -5.5220    3.5140   -3.7510 H   0  0  0  0  0  0  0  0  0  0  0  0
  1  6  1  0  0  0  0
  2 15  1  0  0  0  0
  2  3  1  0  0  0  0
  4  3  2  0  0  0  0
  5  4  1  0  0  0  0
  6  7  1  0  0  0  0
  6  5  2  0  0  0  0
  7  2  2  0  0  0  0
  9  8  1  0  0  0  0
 10  9  2  0  0  0  0
 11 10  1  0  0  0  0
 12 11  1  0  0  0  0
 12 17  1  0  0  0  0
 13 12  2  0  0  0  0
 14 13  1  0  0  0  0
 14 15  2  0  0  0  0
 15 16  1  0  0  0  0
 16 17  2  0  0  0  0
 17  9  1  0  0  0  0
 18 11  1  0  0  0  0
 19  1  1  0  0  0  0
 20 19  1  1  0  0  0
 20 25  1  0  0  0  0
 21 22  1  0  0  0  0
 21 20  1  0  0  0  0
 23 21  1  0  0  0  0
 24 21  1  0  0  0  0
 25 26  1  0  0  0  0
 26 27  2  0  0  0  0
 27 28  1  0  0  0  0
 28 35  1  0  0  0  0
 29 30  1  0  0  0  0
 29 28  1  0  0  0  0
 31 30  2  0  0  0  0
 32 31  1  0  0  0  0
 33 32  2  0  0  0  0
 33 34  1  0  0  0  0
 34 26  1  0  0  0  0
 34 29  2  0  0  0  0
M  END
>  <minimizedAffinity>
-9.67047405

$$$$

 OpenBabel11232419583D

 35 39  0  0  1  0  0  0  0  0999 V2000
   -2.2430    6.0120   -6.4150 O   0  0  0  0  0  0  0  0  0  0  0  0
    1.2940    7.0600   -5.9210 C   0  0  0  0  0  0  0  0  0  0  0  0
    1.0270    7.9760   -4.9080 C   0  0  0  0  0  3  0  0  0  0  0  0
   -0.2080    8.2080   -4.4090 N   0  0  0  0  0  0  0  0  0  0  0  0
   -1.2240    7.4860   -4.9260 C   0  0  0  0  0  3  0  0  0  0  0  0
   -1.0820    6.5600   -5.9540 C   0  0  0  0  0  0  0  0  0  0  0  0
    0.2040    6.3360   -6.4380 C   0  0  0  0  0  3  0  0  0  0  0  0
    4.1830    3.8180   -9.7340 C   0  0  0  0  0  1  0  0  0  0  0  0
    4.8170    4.8530   -8.8820 C   0  0  0  0  0  0  0  0  0  0  0  0
    6.1350    5.0700   -8.9560 N   0  0  0  0  0  0  0  0  0  0  0  0
    6.3520    6.0650   -8.0790 N   0  0  0  0  0  0  0  0  0  0  0  0
    5.2250    6.4830   -7.4200 C   0  0  0  0  0  0  0  0  0  0  0  0
    5.0270    7.4640   -6.4470 C   0  0  0  0  0  3  0  0  0  0  0  0
    3.7200    7.6400   -5.9740 C   0  0  0  0  0  3  0  0  0  0  0  0
    2.6480    6.8700   -6.4500 C   0  0  0  0  0  0  0  0  0  0  0  0
    2.8880    5.8980   -7.4430 C   0  0  0  0  0  3  0  0  0  0  0  0
    4.1960    5.7020   -7.9280 C   0  0  0  0  0  0  0  0  0  0  0  0
    7.2980    6.4140   -7.9740 H   0  0  0  0  0  0  0  0  0  0  0  0
   -2.2960    5.3980   -7.7080 C   0  0  0  0  0  2  0  0  0  0  0  0
   -3.5230    4.4660   -7.8010 C   0  0  1  0  0  3  0  0  0  0  0  0
   -3.7440    4.0500   -9.2310 N   0  0  0  0  0  4  0  0  0  0  0  0
   -2.9640    3.5010   -9.6150 H   0  0  0  0  0  0  0  0  0  0  0  0
   -4.6080    3.5030   -9.3370 H   0  0  0  0  0  0  0  0  0  0  0  0
   -3.8490    4.8890   -9.8210 H   0  0  0  0  0  0  0  0  0  0  0  0
   -3.3810    3.2070   -6.9320 C   0  0  0  0  0  2  0  0  0  0  0  0
   -4.5640    3.0020   -6.0470 C   0  0  0  0  0  0  0  0  0  0  0  0
   -4.7980    3.6540   -4.8510 C   0  0  0  0  0  3  0  0  0  0  0  0
   -5.9830    3.1990   -4.3360 N   0  0  0  0  0  0  0  0  0  0  0  0
   -6.5250    2.2510   -5.1690 C   0  0  0  0  0  0  0  0  0  0  0  0
   -7.7130    1.5230   -5.0390 C   0  0  0  0  0  3  0  0  0  0  0  0
   -8.0370    0.6250   -6.0570 C   0  0  0  0  0  3  0  0  0  0  0  0
   -7.2060    0.4670   -7.1630 C   0  0  0  0  0  3  0  0  0  0  0  0
   -6.0210    1.2040   -7.2790 C   0  0  0  0  0  3  0  0  0  0  0  0
   -5.6670    2.1130   -6.2600 C   0  0  0  0  0  0  0  0  0  0  0  0
   -6.4100    3.5140   -3.4730 H   0  0  0  0  0  0  0  0  0  0  0  0
  1  6  1  0  0  0  0
  2  3  1  0  0  0  0
  3  4  2  0  0  0  0
  5  4  1  0  0  0  0
  6  5  2  0  0  0  0
  7  6  1  0  0  0  0
  7  2  2  0  0  0  0
  8  9  1  0  0  0  0
  9 17  1  0  0  0  0
 10  9  2  0  0  0  0
 10 11  1  0  0  0  0
 11 18  1  0  0  0  0
 11 12  1  0  0  0  0
 12 13  1  0  0  0  0
 13 14  2  0  0  0  0
 15 14  1  0  0  0  0
 15  2  1  0  0  0  0
 16 15  2  0  0  0  0
 17 16  1  0  0  0  0
 17 12  2  0  0  0  0
 19  1  1  0  0  0  0
 20 19  1  6  0  0  0
 20 25  1  0  0  0  0
 21 20  1  0  0  0  0
 22 21  1  0  0  0  0
 23 21  1  0  0  0  0
 24 21  1  0  0  0  0
 25 26  1  0  0  0  0
 26 27  2  0  0  0  0
 27 28  1  0  0  0  0
 28 35  1  0  0  0  0
 29 30  1  0  0  0  0
 29 28  1  0  0  0  0
 31 30  2  0  0  0  0
 32 31  1  0  0  0  0
 33 32  2  0  0  0  0
 33 34  1  0  0  0  0
 34 26  1  0  0  0  0
 34 29  2  0  0  0  0
M  END
>  <minimizedAffinity>
-9.62158966

$$$$

 OpenBabel11232419583D

 35 39  0  0  1  0  0  0  0  0999 V2000
    0.9350    3.1550   -8.9710 O   0  0  0  0  0  0  0  0  0  0  0  0
    3.5800    5.5360   -7.8810 C   0  0  0  0  0  0  0  0  0  0  0  0
    4.5630    5.0550   -8.7420 C   0  0  0  0  0  3  0  0  0  0  0  0
    4.3630    4.0530   -9.6270 N   0  0  0  0  0  0  0  0  0  0  0  0
    3.1270    3.5120   -9.6730 C   0  0  0  0  0  3  0  0  0  0  0  0
    2.0740    3.8940   -8.8490 C   0  0  0  0  0  0  0  0  0  0  0  0
    2.3090    4.9370   -7.9560 C   0  0  0  0  0  3  0  0  0  0  0  0
    0.8620    8.9270   -4.0710 C   0  0  0  0  0  1  0  0  0  0  0  0
    2.3180    8.9930   -4.3450 C   0  0  0  0  0  0  0  0  0  0  0  0
    3.0810    9.8870   -3.7070 N   0  0  0  0  0  0  0  0  0  0  0  0
    4.3190    9.6550   -4.1770 N   0  0  0  0  0  0  0  0  0  0  0  0
    4.3800    8.6580   -5.1170 C   0  0  0  0  0  0  0  0  0  0  0  0
    5.4500    8.1270   -5.8400 C   0  0  0  0  0  3  0  0  0  0  0  0
    5.1610    7.0930   -6.7400 C   0  0  0  0  0  3  0  0  0  0  0  0
    3.8570    6.6040   -6.9150 C   0  0  0  0  0  0  0  0  0  0  0  0
    2.8070    7.1580   -6.1550 C   0  0  0  0  0  3  0  0  0  0  0  0
    3.0760    8.2020   -5.2490 C   0  0  0  0  0  0  0  0  0  0  0  0
    5.0820   10.2150   -3.8170 H   0  0  0  0  0  0  0  0  0  0  0  0
    0.0340    3.3800  -10.0610 C   0  0  0  0  0  2  0  0  0  0  0  0
   -1.4260    3.2420   -9.5770 C   0  0  1  0  0  3  0  0  0  0  0  0
   -2.2960    2.7520  -10.7050 N   0  0  0  0  0  4  0  0  0  0  0  0
   -2.0360    1.8150  -11.0360 H   0  0  0  0  0  0  0  0  0  0  0  0
   -3.2890    2.7380  -10.4390 H   0  0  0  0  0  0  0  0  0  0  0  0
   -2.2120    3.3950  -11.5070 H   0  0  0  0  0  0  0  0  0  0  0  0
   -1.5700    2.2840   -8.3850 C   0  0  0  0  0  2  0  0  0  0  0  0
   -2.1340    2.9650   -7.1850 C   0  0  0  0  0  0  0  0  0  0  0  0
   -1.4520    3.8390   -6.3600 C   0  0  0  0  0  3  0  0  0  0  0  0
   -2.3050    4.2540   -5.3710 N   0  0  0  0  0  0  0  0  0  0  0  0
   -3.5340    3.6580   -5.5290 C   0  0  0  0  0  0  0  0  0  0  0  0
   -4.6940    3.7870   -4.7570 C   0  0  0  0  0  3  0  0  0  0  0  0
   -5.8220    3.0710   -5.1600 C   0  0  0  0  0  3  0  0  0  0  0  0
   -5.7900    2.2630   -6.2930 C   0  0  0  0  0  3  0  0  0  0  0  0
   -4.6210    2.1450   -7.0560 C   0  0  0  0  0  3  0  0  0  0  0  0
   -3.4650    2.8530   -6.6660 C   0  0  0  0  0  0  0  0  0  0  0  0
   -2.0780    4.9090   -4.6340 H   0  0  0  0  0  0  0  0  0  0  0  0
  1  6  1  0  0  0  0
  2 15  1  0  0  0  0
  3  2  2  0  0  0  0
  4  3  1  0  0  0  0
  5  4  2  0  0  0  0
  5  6  1  0  0  0  0
  6  7  2  0  0  0  0
  7  2  1  0  0  0  0
  9  8  1  0  0  0  0
  9 10  2  0  0  0  0
 11 18  1  0  0  0  0
 11 10  1  0  0  0  0
 12 11  1  0  0  0  0
 13 12  2  0  0  0  0
 14 13  1  0  0  0  0
 15 14  2  0  0  0  0
 15 16  1  0  0  0  0
 16 17  2  0  0  0  0
 17 12  1  0  0  0  0
 17  9  1  0  0  0  0
 19  1  1  0  0  0  0
 20 19  1  6  0  0  0
 20 25  1  0  0  0  0
 21 23  1  0  0  0  0
 21 20  1  0  0  0  0
 22 21  1  0  0  0  0
 24 21  1  0  0  0  0
 25 26  1  0  0  0  0
 26 34  1  0  0  0  0
 26 27  2  0  0  0  0
 27 28  1  0  0  0  0
 28 35  1  0  0  0  0
 29 28  1  0  0  0  0
 29 30  1  0  0  0  0
 31 30  2  0  0  0  0
 32 31  1  0  0  0  0
 33 34  1  0  0  0  0
 33 32  2  0  0  0  0
 34 29  2  0  0  0  0
M  END
>  <minimizedAffinity>
-9.3295126

$$$$
