
 OpenBabel11232419583D

 35 39  0  0  1  0  0  0  0  0999 V2000
   -1.0180    7.4940   -4.4810 O   0  0  0  0  0  0  0  0  0  0  0  0
    0.3640    5.3200   -7.1670 C   0  0  0  0  0  0  0  0  0  0  0  0
   -0.8440    4.6990   -7.4770 C   0  0  0  0  0  3  0  0  0  0  0  0
   -2.0180    4.9920   -6.8750 N   0  0  0  0  0  0  0  0  0  0  0  0
   -1.9990    5.9580   -5.9320 C   0  0  0  0  0  3  0  0  0  0  0  0
   -0.8520    6.6310   -5.5230 C   0  0  0  0  0  0  0  0  0  0  0  0
    0.3390    6.3130   -6.1720 C   0  0  0  0  0  3  0  0  0  0  0  0
    5.9840    6.6640   -7.1860 C   0  0  0  0  0  1  0  0  0  0  0  0
    5.3760    5.6410   -8.0710 C   0  0  0  0  0  0  0  0  0  0  0  0
    6.1340    4.9780   -8.9520 N   0  0  0  0  0  0  0  0  0  0  0  0
    5.2750    4.1390   -9.5550 N   0  0  0  0  0  0  0  0  0  0  0  0
    3.9830    4.2520   -9.1140 C   0  0  0  0  0  0  0  0  0  0  0  0
    2.8140    3.5830   -9.4810 C   0  0  0  0  0  3  0  0  0  0  0  0
    1.6340    3.9480   -8.8190 C   0  0  0  0  0  3  0  0  0  0  0  0
    1.6160    4.9420   -7.8280 C   0  0  0  0  0  0  0  0  0  0  0  0
    2.8210    5.5840   -7.4770 C   0  0  0  0  0  3  0  0  0  0  0  0
    4.0160    5.2350   -8.1350 C   0  0  0  0  0  0  0  0  0  0  0  0
    5.6360    3.5120  -10.2660 H   0  0  0  0  0  0  0  0  0  0  0  0
   -0.7520    8.8910   -4.6420 C   0  0  0  0  0  2  0  0  0  0  0  0
    0.0310    9.4250   -3.4230 C   0  0  1  0  0  3  0  0  0  0  0  0
   -0.8990    9.5950   -2.2510 N   0  0  0  0  0  4  0  0  0  0  0  0
   -1.3120    8.7090   -1.9330 H   0  0  0  0  0  0  0  0  0  0  0  0
   -0.4240   10.0360   -1.4520 H   0  0  0  0  0  0  0  0  0  0  0  0
   -1.6760   10.2190   -2.5160 H   0  0  0  0  0  0  0  0  0  0  0  0
    1.1900    8.5050   -3.0110 C   0  0  0  0  0  2  0  0  0  0  0  0
    2.5170    9.1620   -3.1900 C   0  0  0  0  0  0  0  0  0  0  0  0
    3.3040    9.6780   -2.1790 C   0  0  0  0  0  3  0  0  0  0  0  0
    4.4430   10.1930   -2.7380 N   0  0  0  0  0  0  0  0  0  0  0  0
    4.4120   10.0320   -4.1020 C   0  0  0  0  0  0  0  0  0  0  0  0
    5.3540   10.4080   -5.0670 C   0  0  0  0  0  3  0  0  0  0  0  0
    5.0720   10.1020   -6.4000 C   0  0  0  0  0  3  0  0  0  0  0  0
    3.8980    9.4420   -6.7500 C   0  0  0  0  0  3  0  0  0  0  0  0
    2.9660    9.0710   -5.7720 C   0  0  0  0  0  3  0  0  0  0  0  0
    3.2230    9.3760   -4.4180 C   0  0  0  0  0  0  0  0  0  0  0  0
    5.2060   10.6240   -2.2310 H   0  0  0  0  0  0  0  0  0  0  0  0
  2  7  1  0  0  0  0
  3  2  2  0  0  0  0
  3  4  1  0  0  0  0
  4  5  2  0  0  0  0
  5  6  1  0  0  0  0
  6  1  1  0  0  0  0
  7  6  2  0  0  0  0
  9  8  1  0  0  0  0
 10  9  2  0  0  0  0
 11 12  1  0  0  0  0
 11 10  1  0  0  0  0
 12 17  1  0  0  0  0
 13 12  2  0  0  0  0
 13 14  1  0  0  0  0
 14 15  2  0  0  0  0
 15 16  1  0  0  0  0
 15  2  1  0  0  0  0
 17  9  1  0  0  0  0
 17 16  2  0  0  0  0
 18 11  1  0  0  0  0
 19  1  1  0  0  0  0
 20 19  1  6  0  0  0
 20 25  1  0  0  0  0
 20 21  1  0  0  0  0
 21 22  1  0  0  0  0
 21 23  1  0  0  0  0
 24 21  1  0  0  0  0
 26 25  1  0  0  0  0
 26 27  2  0  0  0  0
 28 35  1  0  0  0  0
 28 27  1  0  0  0  0
 29 28  1  0  0  0  0
 30 29  2  0  0  0  0
 31 30  1  0  0  0  0
 32 31  2  0  0  0  0
 32 33  1  0  0  0  0
 33 34  2  0  0  0  0
 34 29  1  0  0  0  0
 34 26  1  0  0  0  0
M  END
>  <minimizedAffinity>
-9.98263645

$$$$
