
 OpenBabel11232419583D

 35 39  0  0  1  0  0  0  0  0999 V2000
   -0.2620    3.3170   -8.4350 O   0  0  0  0  0  0  0  0  0  0  0  0
    2.8440    5.3020   -7.9240 C   0  0  0  0  0  0  0  0  0  0  0  0
    3.5840    4.6580   -8.9120 C   0  0  0  0  0  3  0  0  0  0  0  0
    3.0930    3.6760   -9.7010 N   0  0  0  0  0  0  0  0  0  0  0  0
    1.8030    3.3250   -9.5120 C   0  0  0  0  0  3  0  0  0  0  0  0
    0.9740    3.8810   -8.5430 C   0  0  0  0  0  0  0  0  0  0  0  0
    1.5070    4.8980   -7.7550 C   0  0  0  0  0  3  0  0  0  0  0  0
    1.3490    9.1260   -3.8580 C   0  0  0  0  0  1  0  0  0  0  0  0
    2.7270    8.9780   -4.3860 C   0  0  0  0  0  0  0  0  0  0  0  0
    3.7080    9.7670   -3.9340 N   0  0  0  0  0  0  0  0  0  0  0  0
    4.7960    9.3510   -4.6040 N   0  0  0  0  0  0  0  0  0  0  0  0
    4.5500    8.3360   -5.4920 C   0  0  0  0  0  0  0  0  0  0  0  0
    5.3880    7.6430   -6.3670 C   0  0  0  0  0  3  0  0  0  0  0  0
    4.8030    6.6410   -7.1530 C   0  0  0  0  0  3  0  0  0  0  0  0
    3.4340    6.3390   -7.0730 C   0  0  0  0  0  0  0  0  0  0  0  0
    2.6250    7.0540   -6.1670 C   0  0  0  0  0  3  0  0  0  0  0  0
    3.1930    8.0680   -5.3720 C   0  0  0  0  0  0  0  0  0  0  0  0
    5.6820    9.8040   -4.4100 H   0  0  0  0  0  0  0  0  0  0  0  0
   -1.1820    3.3640   -9.5320 C   0  0  0  0  0  2  0  0  0  0  0  0
   -2.5320    2.7390   -9.1180 C   0  0  1  0  0  3  0  0  0  0  0  0
   -2.3160    1.7330   -8.0180 N   0  0  0  0  0  4  0  0  0  0  0  0
   -1.9420    2.1520   -7.1570 H   0  0  0  0  0  0  0  0  0  0  0  0
   -3.1840    1.2340   -7.7850 H   0  0  0  0  0  0  0  0  0  0  0  0
   -1.6390    1.0200   -8.3320 H   0  0  0  0  0  0  0  0  0  0  0  0
   -3.5510    3.7850   -8.6420 C   0  0  0  0  0  2  0  0  0  0  0  0
   -3.1610    4.3940   -7.3380 C   0  0  0  0  0  0  0  0  0  0  0  0
   -3.4620    3.8870   -6.0890 C   0  0  0  0  0  3  0  0  0  0  0  0
   -2.9320    4.7250   -5.1440 N   0  0  0  0  0  0  0  0  0  0  0  0
   -2.2960    5.7790   -5.7520 C   0  0  0  0  0  0  0  0  0  0  0  0
   -1.6230    6.8660   -5.1810 C   0  0  0  0  0  3  0  0  0  0  0  0
   -1.0450    7.7960   -6.0470 C   0  0  0  0  0  3  0  0  0  0  0  0
   -1.1330    7.6410   -7.4270 C   0  0  0  0  0  3  0  0  0  0  0  0
   -1.8090    6.5470   -7.9830 C   0  0  0  0  0  3  0  0  0  0  0  0
   -2.4090    5.5960   -7.1300 C   0  0  0  0  0  0  0  0  0  0  0  0
   -2.9870    4.5910   -4.1410 H   0  0  0  0  0  0  0  0  0  0  0  0
  2  7  1  0  0  0  0
  2 15  1  0  0  0  0
  3  2  2  0  0  0  0
  4  5  2  0  0  0  0
  4  3  1  0  0  0  0
  5  6  1  0  0  0  0
  6  1  1  0  0  0  0
  6  7  2  0  0  0  0
  9 10  2  0  0  0  0
  9  8  1  0  0  0  0
 11 18  1  0  0  0  0
 11 10  1  0  0  0  0
 12 17  1  0  0  0  0
 12 11  1  0  0  0  0
 13 12  2  0  0  0  0
 14 15  2  0  0  0  0
 14 13  1  0  0  0  0
 15 16  1  0  0  0  0
 16 17  2  0  0  0  0
 17  9  1  0  0  0  0
 19  1  1  0  0  0  0
 20 19  1  1  0  0  0
 20 25  1  0  0  0  0
 20 21  1  0  0  0  0
 21 23  1  0  0  0  0
 21 22  1  0  0  0  0
 24 21  1  0  0  0  0
 25 26  1  0  0  0  0
 26 34  1  0  0  0  0
 26 27  2  0  0  0  0
 27 28  1  0  0  0  0
 28 35  1  0  0  0  0
 29 30  1  0  0  0  0
 29 28  1  0  0  0  0
 31 30  2  0  0  0  0
 32 31  1  0  0  0  0
 33 32  2  0  0  0  0
 33 34  1  0  0  0  0
 34 29  2  0  0  0  0
M  END
>  <minimizedAffinity>
-9.99849701

$$$$
