
 OpenBabel11232419583D

 35 39  0  0  1  0  0  0  0  0999 V2000
    5.1880    7.2330   -7.3280 O   0  0  0  0  0  0  0  0  0  0  0  0
    2.7870    4.6110   -8.4300 C   0  0  0  0  0  0  0  0  0  0  0  0
    3.6610    3.9860   -9.3150 C   0  0  0  0  0  3  0  0  0  0  0  0
    4.9410    4.3760   -9.5110 N   0  0  0  0  0  0  0  0  0  0  0  0
    5.3810    5.4240   -8.7830 C   0  0  0  0  0  3  0  0  0  0  0  0
    4.5950    6.1390   -7.8850 C   0  0  0  0  0  0  0  0  0  0  0  0
    3.2850    5.7050   -7.6990 C   0  0  0  0  0  3  0  0  0  0  0  0
   -2.0500    5.9850   -5.5820 C   0  0  0  0  0  1  0  0  0  0  0  0
   -1.9360    4.8320   -6.5080 C   0  0  0  0  0  0  0  0  0  0  0  0
   -2.9850    4.0280   -6.7120 N   0  0  0  0  0  0  0  0  0  0  0  0
   -2.5350    3.1250   -7.6010 N   0  0  0  0  0  0  0  0  0  0  0  0
   -1.2250    3.3020   -7.9610 C   0  0  0  0  0  0  0  0  0  0  0  0
   -0.3970    2.5920   -8.8330 C   0  0  0  0  0  3  0  0  0  0  0  0
    0.9210    3.0490   -8.9760 C   0  0  0  0  0  3  0  0  0  0  0  0
    1.3980    4.1690   -8.2780 C   0  0  0  0  0  0  0  0  0  0  0  0
    0.5250    4.8660   -7.4180 C   0  0  0  0  0  3  0  0  0  0  0  0
   -0.8010    4.4200   -7.2570 C   0  0  0  0  0  0  0  0  0  0  0  0
   -3.1760    2.4090   -7.9230 H   0  0  0  0  0  0  0  0  0  0  0  0
    4.9050    7.6050   -5.9750 C   0  0  0  0  0  2  0  0  0  0  0  0
    4.0840    8.9120   -5.9450 C   0  0  1  0  0  3  0  0  0  0  0  0
    4.5370    9.8270   -7.0530 N   0  0  0  0  0  4  0  0  0  0  0  0
    4.3770    9.4350   -7.9890 H   0  0  0  0  0  0  0  0  0  0  0  0
    4.0720   10.7430   -7.0010 H   0  0  0  0  0  0  0  0  0  0  0  0
    5.5490   10.0030   -6.9610 H   0  0  0  0  0  0  0  0  0  0  0  0
    2.5740    8.6700   -6.0850 C   0  0  0  0  0  2  0  0  0  0  0  0
    1.8480    8.9060   -4.8040 C   0  0  0  0  0  0  0  0  0  0  0  0
    2.4130    8.8870   -3.5430 C   0  0  0  0  0  3  0  0  0  0  0  0
    1.4290    9.1490   -2.6260 N   0  0  0  0  0  0  0  0  0  0  0  0
    0.2260    9.3300   -3.2640 C   0  0  0  0  0  0  0  0  0  0  0  0
   -1.0360    9.6110   -2.7280 C   0  0  0  0  0  3  0  0  0  0  0  0
   -2.0980    9.7650   -3.6200 C   0  0  0  0  0  3  0  0  0  0  0  0
   -1.9030    9.6460   -4.9920 C   0  0  0  0  0  3  0  0  0  0  0  0
   -0.6340    9.3650   -5.5140 C   0  0  0  0  0  3  0  0  0  0  0  0
    0.4560    9.1970   -4.6330 C   0  0  0  0  0  0  0  0  0  0  0  0
    1.5600    9.2110   -1.6230 H   0  0  0  0  0  0  0  0  0  0  0  0
  1 19  1  0  0  0  0
  2 15  1  0  0  0  0
  2  7  1  0  0  0  0
  3  2  2  0  0  0  0
  4  3  1  0  0  0  0
  4  5  2  0  0  0  0
  5  6  1  0  0  0  0
  6  7  2  0  0  0  0
  6  1  1  0  0  0  0
  9  8  1  0  0  0  0
 10  9  2  0  0  0  0
 11 10  1  0  0  0  0
 12 11  1  0  0  0  0
 12 17  1  0  0  0  0
 13 12  2  0  0  0  0
 14 13  1  0  0  0  0
 14 15  2  0  0  0  0
 15 16  1  0  0  0  0
 16 17  2  0  0  0  0
 17  9  1  0  0  0  0
 18 11  1  0  0  0  0
 20 19  1  6  0  0  0
 20 25  1  0  0  0  0
 21 23  1  0  0  0  0
 21 24  1  0  0  0  0
 21 20  1  0  0  0  0
 22 21  1  0  0  0  0
 25 26  1  0  0  0  0
 26 34  1  0  0  0  0
 26 27  2  0  0  0  0
 27 28  1  0  0  0  0
 28 35  1  0  0  0  0
 29 30  1  0  0  0  0
 29 28  1  0  0  0  0
 31 30  2  0  0  0  0
 32 31  1  0  0  0  0
 33 32  2  0  0  0  0
 33 34  1  0  0  0  0
 34 29  2  0  0  0  0
M  END
>  <minimizedAffinity>
-9.88416195

$$$$
