
 OpenBabel11232419573D

 37 41  0  0  1  0  0  0  0  0999 V2000
   -0.9800    0.4230  -19.5200 C   0  0  0  0  0  0  0  0  0  0  0  0
    0.0000    0.3910  -18.5540 C   0  0  0  0  0  3  0  0  0  0  0  0
   -0.5160   -0.3700  -17.5350 N   0  0  0  0  0  0  0  0  0  0  0  0
   -1.7420   -0.8470  -17.9430 C   0  0  0  0  0  0  0  0  0  0  0  0
   -2.0700   -0.2920  -19.0900 N   0  0  0  0  0  0  0  0  0  0  0  0
   -1.7720    1.5500  -23.0180 C   0  0  0  0  0  0  0  0  0  0  0  0
   -1.8660    0.8510  -21.8140 C   0  0  0  0  0  3  0  0  0  0  0  0
   -0.9320    1.1010  -20.8050 C   0  0  0  0  0  0  0  0  0  0  0  0
    0.0600    2.0540  -21.0350 C   0  0  0  0  0  3  0  0  0  0  0  0
    0.0840    2.7030  -22.2560 C   0  0  0  0  0  3  0  0  0  0  0  0
   -0.8040    2.4690  -23.2440 N   0  0  0  0  0  0  0  0  0  0  0  0
   -3.4460   -0.0430  -23.9680 C   0  0  0  0  0  1  0  0  0  0  0  0
   -2.8090    1.3400  -24.1060 C   0  0  0  0  0  3  0  0  0  0  0  0
   -3.8790    2.4340  -24.0850 C   0  0  0  0  0  1  0  0  0  0  0  0
   -2.5810   -1.8610  -17.2050 C   0  0  2  0  0  3  0  0  0  0  0  0
   -2.5650   -3.2150  -17.9300 C   0  0  0  0  0  2  0  0  0  0  0  0
   -3.5180   -3.2570  -19.1260 C   0  0  0  0  0  2  0  0  0  0  0  0
   -4.8500   -2.7960  -18.7500 N   0  0  0  0  0  0  0  0  0  0  0  0
   -4.9190   -1.4500  -18.1880 C   0  0  0  0  0  2  0  0  0  0  0  0
   -4.0130   -1.3560  -16.9560 C   0  0  0  0  0  2  0  0  0  0  0  0
   -5.7700   -3.7340  -18.2920 C   0  0  0  0  0  0  0  0  0  0  0  0
   -5.3450   -4.5950  -17.3440 N   0  0  0  0  0  0  0  0  0  0  0  0
   -6.2350   -5.4810  -16.8780 C   0  0  0  0  0  3  0  0  0  0  0  0
   -7.5110   -5.5950  -17.2570 N   0  0  0  0  0  0  0  0  0  0  0  0
   -7.9150   -4.7610  -18.2250 C   0  0  0  0  0  0  0  0  0  0  0  0
   -9.2480   -4.8910  -18.5820 N   0  0  0  0  0  0  0  0  0  0  0  0
   -7.0780   -3.7970  -18.7790 C   0  0  0  0  0  0  0  0  0  0  0  0
   -7.6960   -2.7070  -20.2150 Br  0  0  0  0  0  0  0  0  0  0  0  0
   -9.7230   -5.6450  -18.1050 H   0  0  0  0  0  0  0  0  0  0  0  0
   -9.4900   -4.7240  -19.5500 H   0  0  0  0  0  0  0  0  0  0  0  0
    0.1160   -0.5230  -16.2400 C   0  0  0  0  0  2  0  0  0  0  0  0
   -0.0280    0.7390  -15.3760 C   0  0  0  0  0  2  0  0  0  0  0  0
   -1.4370    1.2440  -15.3270 N   0  0  0  0  0  4  0  0  0  0  0  0
   -2.2110    0.7090  -14.1890 C   0  0  0  0  0  2  0  0  0  0  0  0
   -2.7460    2.1290  -13.9570 C   0  0  0  0  0  2  0  0  0  0  0  0
   -1.4960    2.5940  -14.7160 C   0  0  0  0  0  2  0  0  0  0  0  0
   -1.9340    1.2110  -16.2340 H   0  0  0  0  0  0  0  0  0  0  0  0
  1  5  1  0  0  0  0
  1  2  2  0  0  0  0
  2  3  1  0  0  0  0
  3 31  1  0  0  0  0
  4  3  1  0  0  0  0
  5  4  2  0  0  0  0
  6  7  1  0  0  0  0
  7  8  2  0  0  0  0
  8  1  1  0  0  0  0
  9  8  1  0  0  0  0
 10  9  2  0  0  0  0
 11  6  2  0  0  0  0
 11 10  1  0  0  0  0
 13 14  1  0  0  0  0
 13 12  1  0  0  0  0
 13  6  1  0  0  0  0
 15  4  1  6  0  0  0
 15 20  1  0  0  0  0
 16 15  1  0  0  0  0
 17 18  1  0  0  0  0
 17 16  1  0  0  0  0
 18 21  1  0  0  0  0
 18 19  1  0  0  0  0
 19 20  1  0  0  0  0
 21 22  1  0  0  0  0
 22 23  2  0  0  0  0
 24 23  1  0  0  0  0
 25 24  2  0  0  0  0
 26 25  1  0  0  0  0
 26 29  1  0  0  0  0
 27 21  2  0  0  0  0
 27 25  1  0  0  0  0
 28 27  1  0  0  0  0
 30 26  1  0  0  0  0
 31 32  1  0  0  0  0
 32 33  1  0  0  0  0
 33 36  1  0  0  0  0
 33 34  1  0  0  0  0
 34 35  1  0  0  0  0
 36 35  1  0  0  0  0
 37 33  1  0  0  0  0
M  END
>  <minimizedAffinity>
-6.39515924

$$$$
