
 OpenBabel11232419573D

 37 41  0  0  1  0  0  0  0  0999 V2000
   -0.9800    0.4230  -19.5200 C   0  0  0  0  0  0  0  0  0  0  0  0
    0.0000    0.3910  -18.5540 C   0  0  0  0  0  3  0  0  0  0  0  0
   -0.5160   -0.3700  -17.5350 N   0  0  0  0  0  0  0  0  0  0  0  0
   -1.7420   -0.8470  -17.9430 C   0  0  0  0  0  0  0  0  0  0  0  0
   -2.0700   -0.2920  -19.0900 N   0  0  0  0  0  0  0  0  0  0  0  0
   -1.7720    1.5500  -23.0180 C   0  0  0  0  0  0  0  0  0  0  0  0
   -1.8660    0.8510  -21.8140 C   0  0  0  0  0  3  0  0  0  0  0  0
   -0.9320    1.1010  -20.8050 C   0  0  0  0  0  0  0  0  0  0  0  0
    0.0600    2.0540  -21.0350 C   0  0  0  0  0  3  0  0  0  0  0  0
    0.0840    2.7030  -22.2560 C   0  0  0  0  0  3  0  0  0  0  0  0
   -0.8040    2.4690  -23.2440 N   0  0  0  0  0  0  0  0  0  0  0  0
   -3.4460   -0.0430  -23.9680 C   0  0  0  0  0  1  0  0  0  0  0  0
   -2.8090    1.3400  -24.1060 C   0  0  0  0  0  3  0  0  0  0  0  0
   -3.8790    2.4340  -24.0850 C   0  0  0  0  0  1  0  0  0  0  0  0
   -2.5810   -1.8610  -17.2050 C   0  0  2  0  0  3  0  0  0  0  0  0
   -2.5650   -3.2150  -17.9300 C   0  0  0  0  0  2  0  0  0  0  0  0
   -3.5180   -3.2570  -19.1260 C   0  0  0  0  0  2  0  0  0  0  0  0
   -4.8500   -2.7960  -18.7500 N   0  0  0  0  0  0  0  0  0  0  0  0
   -4.9190   -1.4500  -18.1880 C   0  0  0  0  0  2  0  0  0  0  0  0
   -4.0130   -1.3560  -16.9560 C   0  0  0  0  0  2  0  0  0  0  0  0
   -5.7700   -3.7340  -18.2920 C   0  0  0  0  0  0  0  0  0  0  0  0
   -5.3450   -4.5950  -17.3440 N   0  0  0  0  0  0  0  0  0  0  0  0
   -6.2350   -5.4810  -16.8780 C   0  0  0  0  0  3  0  0  0  0  0  0
   -7.5110   -5.5950  -17.2570 N   0  0  0  0  0  0  0  0  0  0  0  0
   -7.9150   -4.7610  -18.2250 C   0  0  0  0  0  0  0  0  0  0  0  0
   -9.2480   -4.8910  -18.5820 N   0  0  0  0  0  0  0  0  0  0  0  0
   -7.0780   -3.7970  -18.7790 C   0  0  0  0  0  0  0  0  0  0  0  0
   -7.6960   -2.7070  -20.2150 Br  0  0  0  0  0  0  0  0  0  0  0  0
   -9.7230   -5.6450  -18.1050 H   0  0  0  0  0  0  0  0  0  0  0  0
   -9.4900   -4.7240  -19.5500 H   0  0  0  0  0  0  0  0  0  0  0  0
    0.1160   -0.5230  -16.2400 C   0  0  0  0  0  2  0  0  0  0  0  0
   -0.0280    0.7390  -15.3760 C   0  0  0  0  0  2  0  0  0  0  0  0
   -1.4370    1.2440  -15.3270 N   0  0  0  0  0  4  0  0  0  0  0  0
   -2.2110    0.7090  -14.1890 C   0  0  0  0  0  2  0  0  0  0  0  0
   -2.7460    2.1290  -13.9570 C   0  0  0  0  0  2  0  0  0  0  0  0
   -1.4960    2.5940  -14.7160 C   0  0  0  0  0  2  0  0  0  0  0  0
   -1.9340    1.2110  -16.2340 H   0  0  0  0  0  0  0  0  0  0  0  0
  1  5  1  0  0  0  0
  1  2  2  0  0  0  0
  2  3  1  0  0  0  0
  3 31  1  0  0  0  0
  4  3  1  0  0  0  0
  5  4  2  0  0  0  0
  6  7  1  0  0  0  0
  7  8  2  0  0  0  0
  8  1  1  0  0  0  0
  9  8  1  0  0  0  0
 10  9  2  0  0  0  0
 11  6  2  0  0  0  0
 11 10  1  0  0  0  0
 13 14  1  0  0  0  0
 13 12  1  0  0  0  0
 13  6  1  0  0  0  0
 15  4  1  6  0  0  0
 15 20  1  0  0  0  0
 16 15  1  0  0  0  0
 17 18  1  0  0  0  0
 17 16  1  0  0  0  0
 18 21  1  0  0  0  0
 18 19  1  0  0  0  0
 19 20  1  0  0  0  0
 21 22  1  0  0  0  0
 22 23  2  0  0  0  0
 24 23  1  0  0  0  0
 25 24  2  0  0  0  0
 26 25  1  0  0  0  0
 26 29  1  0  0  0  0
 27 21  2  0  0  0  0
 27 25  1  0  0  0  0
 28 27  1  0  0  0  0
 30 26  1  0  0  0  0
 31 32  1  0  0  0  0
 32 33  1  0  0  0  0
 33 36  1  0  0  0  0
 33 34  1  0  0  0  0
 34 35  1  0  0  0  0
 36 35  1  0  0  0  0
 37 33  1  0  0  0  0
M  END
>  <minimizedAffinity>
-6.39515924

$$$$

 OpenBabel11232419573D

 37 41  0  0  1  0  0  0  0  0999 V2000
   -4.3480   -3.1820  -17.5190 C   0  0  0  0  0  0  0  0  0  0  0  0
   -3.3910   -3.1180  -16.5310 C   0  0  0  0  0  3  0  0  0  0  0  0
   -2.4810   -2.1870  -16.9650 N   0  0  0  0  0  0  0  0  0  0  0  0
   -2.9490   -1.6540  -18.1460 C   0  0  0  0  0  0  0  0  0  0  0  0
   -4.0160   -2.3190  -18.5340 N   0  0  0  0  0  0  0  0  0  0  0  0
   -7.7410   -4.5790  -18.3370 C   0  0  0  0  0  0  0  0  0  0  0  0
   -6.6410   -3.7200  -18.3460 C   0  0  0  0  0  3  0  0  0  0  0  0
   -5.5340   -4.0210  -17.5470 C   0  0  0  0  0  0  0  0  0  0  0  0
   -5.5650   -5.1830  -16.7750 C   0  0  0  0  0  3  0  0  0  0  0  0
   -6.6930   -5.9800  -16.8240 C   0  0  0  0  0  3  0  0  0  0  0  0
   -7.7730   -5.7010  -17.5820 N   0  0  0  0  0  0  0  0  0  0  0  0
   -8.9310   -2.8410  -19.6820 C   0  0  0  0  0  1  0  0  0  0  0  0
   -8.9300   -4.3050  -19.2400 C   0  0  0  0  0  3  0  0  0  0  0  0
   -8.9440   -5.2370  -20.4540 C   0  0  0  0  0  1  0  0  0  0  0  0
   -2.3510   -0.4800  -18.8800 C   0  0  2  0  0  3  0  0  0  0  0  0
   -3.4470    0.4930  -19.3400 C   0  0  0  0  0  2  0  0  0  0  0  0
   -4.1560    0.0250  -20.6130 C   0  0  0  0  0  2  0  0  0  0  0  0
   -3.1920   -0.3250  -21.6500 N   0  0  0  0  0  0  0  0  0  0  0  0
   -2.2210   -1.3550  -21.2910 C   0  0  0  0  0  2  0  0  0  0  0  0
   -1.4460   -0.9240  -20.0420 C   0  0  0  0  0  2  0  0  0  0  0  0
   -2.7810    0.6680  -22.5340 C   0  0  0  0  0  0  0  0  0  0  0  0
   -3.7300    1.5160  -22.9840 N   0  0  0  0  0  0  0  0  0  0  0  0
   -3.3360    2.4920  -23.8120 C   0  0  0  0  0  3  0  0  0  0  0  0
   -2.0890    2.7160  -24.2350 N   0  0  0  0  0  0  0  0  0  0  0  0
   -1.1590    1.8480  -23.8140 C   0  0  0  0  0  0  0  0  0  0  0  0
    0.1270    2.1160  -24.2550 N   0  0  0  0  0  0  0  0  0  0  0  0
   -1.4530    0.7980  -22.9480 C   0  0  0  0  0  0  0  0  0  0  0  0
   -0.0970   -0.4500  -22.4650 Br  0  0  0  0  0  0  0  0  0  0  0  0
    0.1810    2.9020  -24.8900 H   0  0  0  0  0  0  0  0  0  0  0  0
    0.7330    1.3280  -24.4340 H   0  0  0  0  0  0  0  0  0  0  0  0
   -1.2150   -1.9270  -16.3080 C   0  0  0  0  0  2  0  0  0  0  0  0
   -1.3630   -0.9360  -15.1440 C   0  0  0  0  0  2  0  0  0  0  0  0
   -1.3350    0.4910  -15.5970 N   0  0  0  0  0  4  0  0  0  0  0  0
   -2.6430    1.1670  -15.4830 C   0  0  0  0  0  2  0  0  0  0  0  0
   -1.9040    2.3770  -14.8960 C   0  0  0  0  0  2  0  0  0  0  0  0
   -0.8010    1.3750  -14.5320 C   0  0  0  0  0  2  0  0  0  0  0  0
   -0.8530    0.6430  -16.4990 H   0  0  0  0  0  0  0  0  0  0  0  0
  1  2  2  0  0  0  0
  3  2  1  0  0  0  0
  3 31  1  0  0  0  0
  4  3  1  0  0  0  0
  5  4  2  0  0  0  0
  5  1  1  0  0  0  0
  6 11  1  0  0  0  0
  7  6  2  0  0  0  0
  7  8  1  0  0  0  0
  8  1  1  0  0  0  0
  8  9  2  0  0  0  0
 10  9  1  0  0  0  0
 11 10  2  0  0  0  0
 12 13  1  0  0  0  0
 13  6  1  0  0  0  0
 14 13  1  0  0  0  0
 15  4  1  6  0  0  0
 16 15  1  0  0  0  0
 17 16  1  0  0  0  0
 18 19  1  0  0  0  0
 18 17  1  0  0  0  0
 19 20  1  0  0  0  0
 20 15  1  0  0  0  0
 21 18  1  0  0  0  0
 22 21  2  0  0  0  0
 23 22  1  0  0  0  0
 24 25  1  0  0  0  0
 24 23  2  0  0  0  0
 25 27  2  0  0  0  0
 26 25  1  0  0  0  0
 27 21  1  0  0  0  0
 27 28  1  0  0  0  0
 29 26  1  0  0  0  0
 30 26  1  0  0  0  0
 31 32  1  0  0  0  0
 33 34  1  0  0  0  0
 33 32  1  0  0  0  0
 33 36  1  0  0  0  0
 34 35  1  0  0  0  0
 35 36  1  0  0  0  0
 37 33  1  0  0  0  0
M  END
>  <minimizedAffinity>
-4.91349125

$$$$
