
 OpenBabel11232419423D

 40 46  0  0  1  0  0  0  0  0999 V2000
   55.1890  -44.7500   21.3140 C   0  0  0  0  0  0  0  0  0  0  0  0
   54.1610  -44.9990   22.2320 C   0  0  0  0  0  3  0  0  0  0  0  0
   52.8810  -45.3280   21.7820 C   0  0  0  0  0  3  0  0  0  0  0  0
   52.6180  -45.3810   20.4150 C   0  0  0  0  0  3  0  0  0  0  0  0
   53.6320  -45.0850   19.5030 C   0  0  0  0  0  0  0  0  0  0  0  0
   54.9340  -44.7850   19.9390 C   0  0  0  0  0  0  0  0  0  0  0  0
   55.9240  -44.5390   18.9040 C   0  0  0  0  0  0  0  0  0  0  0  0
   57.2420  -44.5120   18.9490 N   0  0  0  0  0  0  0  0  0  0  0  0
   57.6430  -44.2050   17.6710 C   0  0  0  0  0  0  0  0  0  0  0  0
   56.5620  -44.0740   16.8120 C   0  0  0  0  0  0  0  0  0  0  0  0
   55.4840  -44.3270   17.6220 N   0  0  0  0  0  0  0  0  0  0  0  0
   54.0730  -44.3160   17.2950 C   0  0  0  0  0  2  0  0  0  0  0  0
   53.2990  -45.1580   18.1710 O   0  0  0  0  0  0  0  0  0  0  0  0
   56.4860  -43.7900   15.3850 C   0  0  0  0  0  0  0  0  0  0  0  0
   56.3790  -42.4710   14.9280 C   0  0  0  0  0  3  0  0  0  0  0  0
   56.3260  -42.2060   13.5580 C   0  0  0  0  0  3  0  0  0  0  0  0
   56.3810  -43.2540   12.6410 C   0  0  0  0  0  3  0  0  0  0  0  0
   56.4900  -44.5690   13.0890 C   0  0  0  0  0  3  0  0  0  0  0  0
   56.5450  -44.8360   14.4570 C   0  0  0  0  0  3  0  0  0  0  0  0
   59.0310  -44.0460   17.2930 C   0  0  0  0  0  0  0  0  0  0  0  0
   59.6620  -42.8090   17.4130 C   0  0  0  0  0  3  0  0  0  0  0  0
   60.9770  -42.6350   16.9660 C   0  0  0  0  0  3  0  0  0  0  0  0
   61.7240  -43.6800   16.3720 C   0  0  0  0  0  0  0  0  0  0  0  0
   61.0600  -44.9310   16.3160 C   0  0  0  0  0  3  0  0  0  0  0  0
   59.7470  -45.1170   16.7710 C   0  0  0  0  0  3  0  0  0  0  0  0
   63.2110  -43.5020   15.7720 C   0  0  1  0  0  0  0  0  0  0  0  0
   63.3730  -42.6970   14.4590 C   0  0  0  0  0  2  0  0  0  0  0  0
   64.5170  -41.8400   15.1010 C   0  0  1  0  0  0  0  0  0  0  0  0
   64.1450  -42.4840   16.4780 C   0  0  0  0  0  2  0  0  0  0  0  0
   63.8670  -44.8300   15.6710 N   0  0  0  0  0  4  0  0  0  0  0  0
   63.8950  -45.3000   16.5860 H   0  0  0  0  0  0  0  0  0  0  0  0
   63.3650  -45.4440   15.0170 H   0  0  0  0  0  0  0  0  0  0  0  0
   64.8360  -44.7730   15.3400 H   0  0  0  0  0  0  0  0  0  0  0  0
   65.9450  -42.0650   14.5790 C   0  0  0  0  0  3  0  0  0  0  0  0
   66.4720  -43.2990   13.8920 C   0  0  0  0  0  2  0  0  0  0  0  0
   66.4130  -41.9970   13.1480 C   0  0  0  0  0  2  0  0  0  0  0  0
   64.2210  -40.4200   15.0700 O   0  0  0  0  0  0  0  0  0  0  0  0
   63.3000  -40.2880   15.3470 H   0  0  0  0  0  0  0  0  0  0  0  0
   56.7460  -45.1490   22.9520 C   0  0  0  0  0  1  0  0  0  0  0  0
   56.4160  -44.3760   21.7990 O   0  0  0  0  0  0  0  0  0  0  0  0
  1 40  1  0  0  0  0
  1  2  1  0  0  0  0
  3  2  2  0  0  0  0
  4  3  1  0  0  0  0
  5  6  1  0  0  0  0
  5  4  2  0  0  0  0
  6  1  2  0  0  0  0
  7  8  2  0  0  0  0
  7  6  1  0  0  0  0
  9  8  1  0  0  0  0
 10 11  1  0  0  0  0
 10  9  2  0  0  0  0
 11  7  1  0  0  0  0
 12 11  1  0  0  0  0
 12 13  1  0  0  0  0
 13  5  1  0  0  0  0
 14 10  1  0  0  0  0
 15 14  1  0  0  0  0
 16 15  2  0  0  0  0
 17 18  2  0  0  0  0
 17 16  1  0  0  0  0
 18 19  1  0  0  0  0
 19 14  2  0  0  0  0
 20 21  1  0  0  0  0
 20  9  1  0  0  0  0
 22 21  2  0  0  0  0
 23 22  1  0  0  0  0
 24 23  2  0  0  0  0
 24 25  1  0  0  0  0
 25 20  2  0  0  0  0
 26 30  1  6  0  0  0
 26 23  1  0  0  0  0
 26 29  1  0  0  0  0
 27 28  1  0  0  0  0
 27 26  1  0  0  0  0
 28 37  1  6  0  0  0
 28 29  1  0  0  0  0
 30 31  1  0  0  0  0
 32 30  1  0  0  0  0
 33 30  1  0  0  0  0
 34 28  1  0  0  0  0
 35 34  1  0  0  0  0
 36 35  1  0  0  0  0
 36 34  1  0  0  0  0
 37 38  1  0  0  0  0
 40 39  1  0  0  0  0
M  END
>  <minimizedAffinity>
-3.21990395

$$$$
