
 OpenBabel11232419423D

 40 46  0  0  1  0  0  0  0  0999 V2000
   64.0370  -43.4390   13.1750 C   0  0  0  0  0  0  0  0  0  0  0  0
   65.1620  -43.6310   12.3640 C   0  0  0  0  0  3  0  0  0  0  0  0
   66.3850  -43.0530   12.7090 C   0  0  0  0  0  3  0  0  0  0  0  0
   66.4790  -42.2590   13.8490 C   0  0  0  0  0  3  0  0  0  0  0  0
   65.3460  -42.0290   14.6290 C   0  0  0  0  0  0  0  0  0  0  0  0
   64.1160  -42.6320   14.3150 C   0  0  0  0  0  0  0  0  0  0  0  0
   63.0120  -42.3640   15.2210 C   0  0  0  0  0  0  0  0  0  0  0  0
   61.8490  -42.9660   15.3780 N   0  0  0  0  0  0  0  0  0  0  0  0
   61.2040  -42.2600   16.3650 C   0  0  0  0  0  0  0  0  0  0  0  0
   61.9900  -41.2270   16.8530 C   0  0  0  0  0  0  0  0  0  0  0  0
   63.1480  -41.3420   16.1260 N   0  0  0  0  0  0  0  0  0  0  0  0
   64.3410  -40.5230   16.1730 C   0  0  0  0  0  2  0  0  0  0  0  0
   65.5150  -41.2360   15.7400 O   0  0  0  0  0  0  0  0  0  0  0  0
   61.7560  -40.2430   17.9010 C   0  0  0  0  0  0  0  0  0  0  0  0
   60.5740  -39.4930   17.9220 C   0  0  0  0  0  3  0  0  0  0  0  0
   60.3490  -38.5650   18.9400 C   0  0  0  0  0  3  0  0  0  0  0  0
   61.3010  -38.3830   19.9420 C   0  0  0  0  0  3  0  0  0  0  0  0
   62.4790  -39.1280   19.9290 C   0  0  0  0  0  3  0  0  0  0  0  0
   62.7050  -40.0570   18.9130 C   0  0  0  0  0  3  0  0  0  0  0  0
   59.8680  -42.5790   16.8230 C   0  0  0  0  0  0  0  0  0  0  0  0
   58.7530  -42.0060   16.2140 C   0  0  0  0  0  3  0  0  0  0  0  0
   57.4680  -42.2450   16.7130 C   0  0  0  0  0  3  0  0  0  0  0  0
   57.2310  -43.0600   17.8460 C   0  0  0  0  0  0  0  0  0  0  0  0
   58.3880  -43.6600   18.4020 C   0  0  0  0  0  3  0  0  0  0  0  0
   59.6780  -43.4340   17.9020 C   0  0  0  0  0  3  0  0  0  0  0  0
   55.7760  -43.2980   18.5010 C   0  0  1  0  0  0  0  0  0  0  0  0
   55.6990  -44.0740   19.8380 C   0  0  0  0  0  2  0  0  0  0  0  0
   54.7850  -42.9610   20.4560 C   0  0  1  0  0  0  0  0  0  0  0  0
   55.1030  -42.0860   19.1970 C   0  0  0  0  0  2  0  0  0  0  0  0
   54.8670  -43.8880   17.4850 N   0  0  0  0  0  4  0  0  0  0  0  0
   54.8000  -43.2860   16.6530 H   0  0  0  0  0  0  0  0  0  0  0  0
   55.1990  -44.8120   17.1810 H   0  0  0  0  0  0  0  0  0  0  0  0
   53.9100  -44.0160   17.8330 H   0  0  0  0  0  0  0  0  0  0  0  0
   53.3130  -43.3190   20.7140 C   0  0  0  0  0  3  0  0  0  0  0  0
   52.7770  -44.6400   21.2020 C   0  0  0  0  0  2  0  0  0  0  0  0
   52.6190  -43.4110   22.0480 C   0  0  0  0  0  2  0  0  0  0  0  0
   55.3520  -42.3950   21.6660 O   0  0  0  0  0  0  0  0  0  0  0  0
   56.2960  -42.2230   21.5160 H   0  0  0  0  0  0  0  0  0  0  0  0
   62.9160  -45.4040   12.7900 C   0  0  0  0  0  1  0  0  0  0  0  0
   62.8440  -43.9790   12.7690 O   0  0  0  0  0  0  0  0  0  0  0  0
  1  6  1  0  0  0  0
  2  3  1  0  0  0  0
  2  1  2  0  0  0  0
  3  4  2  0  0  0  0
  4  5  1  0  0  0  0
  5 13  1  0  0  0  0
  6  5  2  0  0  0  0
  6  7  1  0  0  0  0
  7  8  2  0  0  0  0
  7 11  1  0  0  0  0
  8  9  1  0  0  0  0
  9 20  1  0  0  0  0
  9 10  2  0  0  0  0
 10 14  1  0  0  0  0
 11 12  1  0  0  0  0
 11 10  1  0  0  0  0
 13 12  1  0  0  0  0
 14 15  2  0  0  0  0
 14 19  1  0  0  0  0
 15 16  1  0  0  0  0
 16 17  2  0  0  0  0
 18 17  1  0  0  0  0
 19 18  2  0  0  0  0
 20 25  1  0  0  0  0
 21 22  1  0  0  0  0
 21 20  2  0  0  0  0
 22 23  2  0  0  0  0
 23 24  1  0  0  0  0
 23 26  1  0  0  0  0
 25 24  2  0  0  0  0
 26 30  1  6  0  0  0
 26 29  1  0  0  0  0
 26 27  1  0  0  0  0
 27 28  1  0  0  0  0
 28 34  1  0  0  0  0
 28 37  1  1  0  0  0
 29 28  1  0  0  0  0
 30 33  1  0  0  0  0
 31 30  1  0  0  0  0
 32 30  1  0  0  0  0
 34 35  1  0  0  0  0
 34 36  1  0  0  0  0
 35 36  1  0  0  0  0
 38 37  1  0  0  0  0
 40 39  1  0  0  0  0
 40  1  1  0  0  0  0
M  END
>  <minimizedAffinity>
-4.71188498

$$$$
