
 OpenBabel11232419423D

 40 46  0  0  1  0  0  0  0  0999 V2000
   62.9630  -44.6510   13.2080 C   0  0  0  0  0  0  0  0  0  0  0  0
   63.8520  -45.3550   12.3880 C   0  0  0  0  0  3  0  0  0  0  0  0
   65.2190  -45.3600   12.6730 C   0  0  0  0  0  3  0  0  0  0  0  0
   65.7030  -44.6380   13.7600 C   0  0  0  0  0  3  0  0  0  0  0  0
   64.8220  -43.8970   14.5470 C   0  0  0  0  0  0  0  0  0  0  0  0
   63.4390  -43.9090   14.2950 C   0  0  0  0  0  0  0  0  0  0  0  0
   62.6070  -43.1400   15.2050 C   0  0  0  0  0  0  0  0  0  0  0  0
   61.3060  -43.1600   15.4220 N   0  0  0  0  0  0  0  0  0  0  0  0
   61.0810  -42.1980   16.3760 C   0  0  0  0  0  0  0  0  0  0  0  0
   62.2620  -41.5950   16.7840 C   0  0  0  0  0  0  0  0  0  0  0  0
   63.2180  -42.2430   16.0420 N   0  0  0  0  0  0  0  0  0  0  0  0
   64.6500  -42.0330   16.0160 C   0  0  0  0  0  2  0  0  0  0  0  0
   65.3720  -43.2090   15.6040 O   0  0  0  0  0  0  0  0  0  0  0  0
   62.5310  -40.5620   17.7750 C   0  0  0  0  0  0  0  0  0  0  0  0
   62.2540  -39.2190   17.4950 C   0  0  0  0  0  3  0  0  0  0  0  0
   62.4970  -38.2370   18.4560 C   0  0  0  0  0  3  0  0  0  0  0  0
   63.0160  -38.5910   19.7010 C   0  0  0  0  0  3  0  0  0  0  0  0
   63.2920  -39.9260   19.9870 C   0  0  0  0  0  3  0  0  0  0  0  0
   63.0480  -40.9100   19.0280 C   0  0  0  0  0  3  0  0  0  0  0  0
   59.7630  -41.8740   16.8790 C   0  0  0  0  0  0  0  0  0  0  0  0
   58.6230  -42.3920   16.2690 C   0  0  0  0  0  3  0  0  0  0  0  0
   57.3470  -42.0090   16.7010 C   0  0  0  0  0  3  0  0  0  0  0  0
   57.1470  -41.0860   17.7560 C   0  0  0  0  0  0  0  0  0  0  0  0
   58.3330  -40.6240   18.3780 C   0  0  0  0  0  3  0  0  0  0  0  0
   59.6130  -41.0110   17.9580 C   0  0  0  0  0  3  0  0  0  0  0  0
   55.6990  -40.5580   18.2320 C   0  0  1  0  0  0  0  0  0  0  0  0
   55.6210  -39.1720   18.9180 C   0  0  0  0  0  2  0  0  0  0  0  0
   54.4500  -38.7450   17.9680 C   0  0  1  0  0  0  0  0  0  0  0  0
   54.7360  -40.0370   17.1330 C   0  0  0  0  0  2  0  0  0  0  0  0
   55.0370  -41.6020   19.0550 N   0  0  0  0  0  4  0  0  0  0  0  0
   54.9520  -42.4860   18.5350 H   0  0  0  0  0  0  0  0  0  0  0  0
   55.5700  -41.7920   19.9140 H   0  0  0  0  0  0  0  0  0  0  0  0
   54.0890  -41.3390   19.3460 H   0  0  0  0  0  0  0  0  0  0  0  0
   53.0530  -38.6010   18.5910 C   0  0  0  0  0  3  0  0  0  0  0  0
   52.6200  -39.0680   19.9580 C   0  0  0  0  0  2  0  0  0  0  0  0
   52.6190  -37.6030   19.6340 C   0  0  0  0  0  2  0  0  0  0  0  0
   54.7610  -37.5390   17.2230 O   0  0  0  0  0  0  0  0  0  0  0  0
   55.6660  -37.6110   16.8790 H   0  0  0  0  0  0  0  0  0  0  0  0
   61.2810  -43.3380   12.3650 C   0  0  0  0  0  1  0  0  0  0  0  0
   61.6370  -44.6280   12.8600 O   0  0  0  0  0  0  0  0  0  0  0  0
  1  6  1  0  0  0  0
  2  3  1  0  0  0  0
  2  1  2  0  0  0  0
  3  4  2  0  0  0  0
  4  5  1  0  0  0  0
  5 13  1  0  0  0  0
  6  5  2  0  0  0  0
  6  7  1  0  0  0  0
  7  8  2  0  0  0  0
  7 11  1  0  0  0  0
  8  9  1  0  0  0  0
  9 10  2  0  0  0  0
  9 20  1  0  0  0  0
 10 14  1  0  0  0  0
 11 10  1  0  0  0  0
 12 11  1  0  0  0  0
 13 12  1  0  0  0  0
 14 19  1  0  0  0  0
 15 14  2  0  0  0  0
 15 16  1  0  0  0  0
 16 17  2  0  0  0  0
 17 18  1  0  0  0  0
 19 18  2  0  0  0  0
 20 25  1  0  0  0  0
 21 22  1  0  0  0  0
 21 20  2  0  0  0  0
 22 23  2  0  0  0  0
 23 26  1  0  0  0  0
 23 24  1  0  0  0  0
 25 24  2  0  0  0  0
 26 27  1  0  0  0  0
 26 30  1  1  0  0  0
 28 37  1  6  0  0  0
 28 34  1  0  0  0  0
 28 27  1  0  0  0  0
 29 28  1  0  0  0  0
 29 26  1  0  0  0  0
 30 33  1  0  0  0  0
 30 32  1  0  0  0  0
 31 30  1  0  0  0  0
 34 36  1  0  0  0  0
 34 35  1  0  0  0  0
 36 35  1  0  0  0  0
 38 37  1  0  0  0  0
 39 40  1  0  0  0  0
 40  1  1  0  0  0  0
M  END
>  <minimizedAffinity>
-3.42949319

$$$$
