
 OpenBabel11232419423D

 40 46  0  0  1  0  0  0  0  0999 V2000
   64.7560  -43.1720   15.6940 C   0  0  0  0  0  0  0  0  0  0  0  0
   66.1010  -43.2840   15.3230 C   0  0  0  0  0  3  0  0  0  0  0  0
   66.4480  -43.4650   13.9840 C   0  0  0  0  0  3  0  0  0  0  0  0
   65.4520  -43.5650   13.0160 C   0  0  0  0  0  3  0  0  0  0  0  0
   64.1110  -43.5020   13.3940 C   0  0  0  0  0  0  0  0  0  0  0  0
   63.7450  -43.2850   14.7330 C   0  0  0  0  0  0  0  0  0  0  0  0
   62.3210  -43.1890   15.0090 C   0  0  0  0  0  0  0  0  0  0  0  0
   61.6670  -42.7280   16.0580 N   0  0  0  0  0  0  0  0  0  0  0  0
   60.3370  -42.9140   15.7680 C   0  0  0  0  0  0  0  0  0  0  0  0
   60.1590  -43.4660   14.5070 C   0  0  0  0  0  0  0  0  0  0  0  0
   61.4430  -43.5970   14.0380 N   0  0  0  0  0  0  0  0  0  0  0  0
   61.9030  -44.1380   12.7760 C   0  0  0  0  0  2  0  0  0  0  0  0
   63.1830  -43.6070   12.3840 O   0  0  0  0  0  0  0  0  0  0  0  0
   58.9580  -43.8120   13.7610 C   0  0  0  0  0  0  0  0  0  0  0  0
   58.8340  -45.0680   13.1540 C   0  0  0  0  0  3  0  0  0  0  0  0
   57.6710  -45.3990   12.4570 C   0  0  0  0  0  3  0  0  0  0  0  0
   56.6270  -44.4800   12.3630 C   0  0  0  0  0  3  0  0  0  0  0  0
   56.7420  -43.2300   12.9670 C   0  0  0  0  0  3  0  0  0  0  0  0
   57.9030  -42.8970   13.6660 C   0  0  0  0  0  3  0  0  0  0  0  0
   59.2710  -42.5660   16.6820 C   0  0  0  0  0  0  0  0  0  0  0  0
   59.4320  -42.7290   18.0570 C   0  0  0  0  0  3  0  0  0  0  0  0
   58.3700  -42.4750   18.9330 C   0  0  0  0  0  3  0  0  0  0  0  0
   57.0960  -42.0550   18.4830 C   0  0  0  0  0  0  0  0  0  0  0  0
   56.9930  -41.8550   17.0840 C   0  0  0  0  0  3  0  0  0  0  0  0
   58.0540  -42.0970   16.2000 C   0  0  0  0  0  3  0  0  0  0  0  0
   55.8250  -41.8280   19.4500 C   0  0  1  0  0  0  0  0  0  0  0  0
   55.0470  -40.4950   19.3270 C   0  0  0  0  0  2  0  0  0  0  0  0
   53.6880  -41.2720   19.2430 C   0  0  1  0  0  0  0  0  0  0  0  0
   54.5200  -42.5900   19.0990 C   0  0  0  0  0  2  0  0  0  0  0  0
   56.2210  -42.0900   20.8580 N   0  0  0  0  0  4  0  0  0  0  0  0
   56.5990  -43.0410   20.9660 H   0  0  0  0  0  0  0  0  0  0  0  0
   56.9410  -41.4260   21.1710 H   0  0  0  0  0  0  0  0  0  0  0  0
   55.4370  -42.0080   21.5150 H   0  0  0  0  0  0  0  0  0  0  0  0
   52.7380  -41.1640   20.4450 C   0  0  0  0  0  3  0  0  0  0  0  0
   52.6450  -42.1140   21.6120 C   0  0  0  0  0  2  0  0  0  0  0  0
   53.0780  -40.6960   21.8370 C   0  0  0  0  0  2  0  0  0  0  0  0
   52.9530  -40.9610   18.0310 O   0  0  0  0  0  0  0  0  0  0  0  0
   53.5700  -40.9760   17.2810 H   0  0  0  0  0  0  0  0  0  0  0  0
   64.6700  -41.7060   17.4570 C   0  0  0  0  0  1  0  0  0  0  0  0
   64.4570  -43.0500   17.0260 O   0  0  0  0  0  0  0  0  0  0  0  0
  1 40  1  0  0  0  0
  2  1  1  0  0  0  0
  3  2  2  0  0  0  0
  4  5  2  0  0  0  0
  4  3  1  0  0  0  0
  5  6  1  0  0  0  0
  6  7  1  0  0  0  0
  6  1  2  0  0  0  0
  7  8  2  0  0  0  0
  9  8  1  0  0  0  0
  9 20  1  0  0  0  0
 10  9  2  0  0  0  0
 11 10  1  0  0  0  0
 11  7  1  0  0  0  0
 12 11  1  0  0  0  0
 13 12  1  0  0  0  0
 13  5  1  0  0  0  0
 14 10  1  0  0  0  0
 15 14  2  0  0  0  0
 16 15  1  0  0  0  0
 17 16  2  0  0  0  0
 17 18  1  0  0  0  0
 18 19  2  0  0  0  0
 19 14  1  0  0  0  0
 20 21  1  0  0  0  0
 21 22  2  0  0  0  0
 23 22  1  0  0  0  0
 23 26  1  0  0  0  0
 24 23  2  0  0  0  0
 25 20  2  0  0  0  0
 25 24  1  0  0  0  0
 26 30  1  1  0  0  0
 27 26  1  0  0  0  0
 28 37  1  6  0  0  0
 28 27  1  0  0  0  0
 28 34  1  0  0  0  0
 29 28  1  0  0  0  0
 29 26  1  0  0  0  0
 30 31  1  0  0  0  0
 30 32  1  0  0  0  0
 30 33  1  0  0  0  0
 34 35  1  0  0  0  0
 34 36  1  0  0  0  0
 35 36  1  0  0  0  0
 38 37  1  0  0  0  0
 40 39  1  0  0  0  0
M  END
>  <minimizedAffinity>
-2.03450799

$$$$
