
 OpenBabel10152418133D

 34 37  0  0  1  0  0  0  0  0999 V2000
    2.4050   -8.6210  -24.8320 C   0  0  0  0  0  1  0  0  0  0  0  0
    2.4150   -9.6200  -25.9950 C   0  0  2  0  0  3  0  0  0  0  0  0
    2.9140   -8.9240  -27.2610 C   0  0  0  0  0  0  0  0  0  0  0  0
    3.7640   -9.5240  -28.1930 C   0  0  0  0  0  3  0  0  0  0  0  0
    4.4290   -8.7450  -29.1350 C   0  0  0  0  0  3  0  0  0  0  0  0
    4.1150   -7.3960  -29.2830 C   0  0  0  0  0  3  0  0  0  0  0  0
    3.0530   -6.8500  -28.5820 C   0  0  0  0  0  0  0  0  0  0  0  0
    2.5080   -7.5990  -27.5220 C   0  0  0  0  0  3  0  0  0  0  0  0
    2.4150   -5.6390  -28.8900 N   0  0  0  0  0  0  0  0  0  0  0  0
    1.3330   -4.9470  -28.4050 C   0  0  0  0  0  0  0  0  0  0  0  0
    1.1730   -3.7980  -28.8180 O   0  0  0  0  0  0  0  0  0  0  0  0
    2.9010   -5.0530  -29.5600 H   0  0  0  0  0  0  0  0  0  0  0  0
    0.2820   -5.5320  -27.5550 C   0  0  1  0  0  3  0  0  0  0  0  0
    0.1640   -5.5120  -26.0440 C   0  0  0  0  0  2  0  0  0  0  0  0
   -0.5920   -4.5430  -26.8540 C   0  0  0  0  0  0  0  0  0  0  0  0
   -0.2720   -3.2130  -26.7040 F   0  0  0  0  0  0  0  0  0  0  0  0
   -1.9630   -4.6360  -26.8980 F   0  0  0  0  0  0  0  0  0  0  0  0
    1.1070  -10.2970  -26.0440 N   0  0  0  0  0  0  0  0  0  0  0  0
    1.0670  -11.0670  -26.7050 H   0  0  0  0  0  0  0  0  0  0  0  0
    0.2930  -10.6180  -24.9800 C   0  0  0  0  0  0  0  0  0  0  0  0
    0.6530  -11.7850  -24.4200 N   0  0  0  0  0  0  0  0  0  0  0  0
    0.1670  -12.0350  -23.2080 C   0  0  0  0  0  3  0  0  0  0  0  0
   -0.6070  -11.2140  -22.4930 N   0  0  0  0  0  0  0  0  0  0  0  0
   -1.0460  -10.0810  -23.0880 C   0  0  0  0  0  0  0  0  0  0  0  0
   -1.8400   -9.1350  -22.4100 C   0  0  0  0  0  0  0  0  0  0  0  0
   -2.3650   -8.0100  -23.0730 C   0  0  0  0  0  3  0  0  0  0  0  0
   -2.0840   -7.7850  -24.4110 C   0  0  0  0  0  3  0  0  0  0  0  0
   -1.2300   -8.6550  -25.0730 C   0  0  0  0  0  3  0  0  0  0  0  0
   -0.6790   -9.7800  -24.4130 C   0  0  0  0  0  0  0  0  0  0  0  0
   -2.1140   -9.2070  -20.9390 C   0  0  0  0  0  0  0  0  0  0  0  0
   -2.4670  -10.4140  -20.4040 N   0  0  0  0  0  0  0  0  0  0  0  0
   -1.9810   -8.2330  -20.2120 O   0  0  0  0  0  0  0  0  0  0  0  0
   -2.6280  -10.4800  -19.4100 H   0  0  0  0  0  0  0  0  0  0  0  0
   -2.6150  -11.2240  -20.9970 H   0  0  0  0  0  0  0  0  0  0  0  0
  2  1  1  1  0  0  0
  3  2  1  0  0  0  0
  4  3  2  0  0  0  0
  5  4  1  0  0  0  0
  6  5  2  0  0  0  0
  6  7  1  0  0  0  0
  7  8  2  0  0  0  0
  8  3  1  0  0  0  0
  9  7  1  0  0  0  0
  9 10  1  0  0  0  0
 11 10  2  0  0  0  0
 12  9  1  0  0  0  0
 13 10  1  1  0  0  0
 13 15  1  0  0  0  0
 13 14  1  0  0  0  0
 15 16  1  0  0  0  0
 15 14  1  0  0  0  0
 17 15  1  0  0  0  0
 18  2  1  0  0  0  0
 18 20  1  0  0  0  0
 19 18  1  0  0  0  0
 20 21  2  0  0  0  0
 20 29  1  0  0  0  0
 21 22  1  0  0  0  0
 22 23  2  0  0  0  0
 24 23  1  0  0  0  0
 24 25  1  0  0  0  0
 25 30  1  0  0  0  0
 26 25  2  0  0  0  0
 27 26  1  0  0  0  0
 28 29  1  0  0  0  0
 28 27  2  0  0  0  0
 29 24  2  0  0  0  0
 30 31  1  0  0  0  0
 30 32  2  0  0  0  0
 31 33  1  0  0  0  0
 34 31  1  0  0  0  0
M  END
>  <minimizedAffinity>
-8.24498177

$$$$
