
 OpenBabel10152418133D

 34 37  0  0  1  0  0  0  0  0999 V2000
    1.0180  -10.8000  -23.8630 C   0  0  0  0  0  1  0  0  0  0  0  0
    0.8900  -11.4490  -25.2460 C   0  0  2  0  0  3  0  0  0  0  0  0
    2.2750  -11.5750  -25.8800 C   0  0  0  0  0  0  0  0  0  0  0  0
    3.4060  -12.0230  -25.1920 C   0  0  0  0  0  3  0  0  0  0  0  0
    4.6760  -11.8090  -25.7200 C   0  0  0  0  0  3  0  0  0  0  0  0
    4.8260  -11.3210  -27.0160 C   0  0  0  0  0  3  0  0  0  0  0  0
    3.7190  -11.1630  -27.8320 C   0  0  0  0  0  0  0  0  0  0  0  0
    2.4470  -11.2210  -27.2340 C   0  0  0  0  0  3  0  0  0  0  0  0
    3.7520  -11.0300  -29.2280 N   0  0  0  0  0  0  0  0  0  0  0  0
    4.3700  -10.1890  -30.1200 C   0  0  0  0  0  0  0  0  0  0  0  0
    4.3060  -10.4930  -31.3120 O   0  0  0  0  0  0  0  0  0  0  0  0
    3.3060  -11.7810  -29.7450 H   0  0  0  0  0  0  0  0  0  0  0  0
    4.9620   -8.8880  -29.7670 C   0  0  1  0  0  3  0  0  0  0  0  0
    4.9220   -7.5860  -30.5420 C   0  0  0  0  0  2  0  0  0  0  0  0
    3.9800   -7.8120  -29.4340 C   0  0  0  0  0  0  0  0  0  0  0  0
    2.6420   -7.8760  -29.7510 F   0  0  0  0  0  0  0  0  0  0  0  0
    4.0980   -7.0570  -28.2910 F   0  0  0  0  0  0  0  0  0  0  0  0
   -0.1570  -10.7400  -26.0020 N   0  0  0  0  0  0  0  0  0  0  0  0
   -0.8340  -11.3570  -26.4440 H   0  0  0  0  0  0  0  0  0  0  0  0
   -0.8210   -9.5910  -25.6320 C   0  0  0  0  0  0  0  0  0  0  0  0
   -1.7760   -9.8460  -24.7230 N   0  0  0  0  0  0  0  0  0  0  0  0
   -2.2510   -8.7980  -24.0540 C   0  0  0  0  0  3  0  0  0  0  0  0
   -1.8340   -7.5360  -24.1820 N   0  0  0  0  0  0  0  0  0  0  0  0
   -0.9380   -7.2620  -25.1590 C   0  0  0  0  0  0  0  0  0  0  0  0
   -0.4120   -5.9700  -25.3550 C   0  0  0  0  0  0  0  0  0  0  0  0
    0.4450   -5.6840  -26.4350 C   0  0  0  0  0  3  0  0  0  0  0  0
    0.8220   -6.6830  -27.3190 C   0  0  0  0  0  3  0  0  0  0  0  0
    0.3880   -7.9810  -27.0910 C   0  0  0  0  0  3  0  0  0  0  0  0
   -0.4580   -8.2860  -25.9970 C   0  0  0  0  0  0  0  0  0  0  0  0
   -0.6520   -4.8390  -24.4020 C   0  0  0  0  0  0  0  0  0  0  0  0
   -0.4130   -5.0510  -23.0740 N   0  0  0  0  0  0  0  0  0  0  0  0
   -1.0040   -3.7340  -24.7910 O   0  0  0  0  0  0  0  0  0  0  0  0
   -0.5450   -4.2880  -22.4250 H   0  0  0  0  0  0  0  0  0  0  0  0
   -0.1540   -5.9690  -22.7300 H   0  0  0  0  0  0  0  0  0  0  0  0
  2  1  1  1  0  0  0
  3  2  1  0  0  0  0
  3  4  1  0  0  0  0
  5  4  2  0  0  0  0
  6  5  1  0  0  0  0
  7  8  1  0  0  0  0
  7  6  2  0  0  0  0
  8  3  2  0  0  0  0
  9  7  1  0  0  0  0
 10  9  1  0  0  0  0
 11 10  2  0  0  0  0
 12  9  1  0  0  0  0
 13 10  1  6  0  0  0
 13 15  1  0  0  0  0
 14 13  1  0  0  0  0
 14 15  1  0  0  0  0
 15 17  1  0  0  0  0
 16 15  1  0  0  0  0
 18 20  1  0  0  0  0
 18  2  1  0  0  0  0
 19 18  1  0  0  0  0
 20 21  1  0  0  0  0
 21 22  2  0  0  0  0
 23 22  1  0  0  0  0
 24 23  2  0  0  0  0
 25 24  1  0  0  0  0
 25 30  1  0  0  0  0
 26 25  2  0  0  0  0
 27 28  2  0  0  0  0
 27 26  1  0  0  0  0
 28 29  1  0  0  0  0
 29 20  2  0  0  0  0
 29 24  1  0  0  0  0
 30 31  1  0  0  0  0
 31 34  1  0  0  0  0
 31 33  1  0  0  0  0
 32 30  2  0  0  0  0
M  END
>  <minimizedAffinity>
-7.29538441

$$$$
