
 OpenBabel10152418133D

 34 37  0  0  1  0  0  0  0  0999 V2000
    2.5110  -12.0390  -27.3630 C   0  0  0  0  0  1  0  0  0  0  0  0
    2.2910  -11.5090  -25.9410 C   0  0  2  0  0  3  0  0  0  0  0  0
    0.7990  -11.2670  -25.7120 C   0  0  0  0  0  0  0  0  0  0  0  0
   -0.0960  -10.9220  -26.7280 C   0  0  0  0  0  3  0  0  0  0  0  0
   -1.3490  -10.4070  -26.4100 C   0  0  0  0  0  3  0  0  0  0  0  0
   -1.7960  -10.4060  -25.0900 C   0  0  0  0  0  3  0  0  0  0  0  0
   -1.0510  -11.0300  -24.1050 C   0  0  0  0  0  0  0  0  0  0  0  0
    0.2740  -11.3900  -24.4100 C   0  0  0  0  0  3  0  0  0  0  0  0
   -1.5320  -11.4090  -22.8420 N   0  0  0  0  0  0  0  0  0  0  0  0
   -1.8140  -10.7650  -21.6630 C   0  0  0  0  0  0  0  0  0  0  0  0
   -2.4070  -11.4130  -20.8000 O   0  0  0  0  0  0  0  0  0  0  0  0
   -1.8600  -12.3670  -22.7760 H   0  0  0  0  0  0  0  0  0  0  0  0
   -1.3240   -9.4210  -21.3110 C   0  0  1  0  0  3  0  0  0  0  0  0
   -1.0540   -8.2410  -22.2220 C   0  0  0  0  0  2  0  0  0  0  0  0
   -2.3200   -8.3190  -21.4750 C   0  0  0  0  0  0  0  0  0  0  0  0
   -3.4770   -8.4400  -22.2110 F   0  0  0  0  0  0  0  0  0  0  0  0
   -2.5610   -7.4100  -20.4720 F   0  0  0  0  0  0  0  0  0  0  0  0
    3.2190  -10.3870  -25.7100 N   0  0  0  0  0  0  0  0  0  0  0  0
    4.1830  -10.6740  -25.5640 H   0  0  0  0  0  0  0  0  0  0  0  0
    3.2410   -9.1740  -26.3610 C   0  0  0  0  0  0  0  0  0  0  0  0
    4.0840   -9.1910  -27.4060 N   0  0  0  0  0  0  0  0  0  0  0  0
    3.9490   -8.2100  -28.2940 C   0  0  0  0  0  3  0  0  0  0  0  0
    3.0260   -7.2440  -28.2540 N   0  0  0  0  0  0  0  0  0  0  0  0
    2.2340   -7.1700  -27.1590 C   0  0  0  0  0  0  0  0  0  0  0  0
    1.2120   -6.2100  -27.0350 C   0  0  0  0  0  0  0  0  0  0  0  0
    0.4620   -6.0870  -25.8500 C   0  0  0  0  0  3  0  0  0  0  0  0
    0.6900   -6.9380  -24.7800 C   0  0  0  0  0  3  0  0  0  0  0  0
    1.6300   -7.9490  -24.9160 C   0  0  0  0  0  3  0  0  0  0  0  0
    2.3770   -8.0960  -26.1090 C   0  0  0  0  0  0  0  0  0  0  0  0
    0.7940   -5.3140  -28.1610 C   0  0  0  0  0  0  0  0  0  0  0  0
    1.6870   -4.3860  -28.6150 N   0  0  0  0  0  0  0  0  0  0  0  0
   -0.2950   -5.4320  -28.7060 O   0  0  0  0  0  0  0  0  0  0  0  0
    1.4270   -3.7950  -29.3910 H   0  0  0  0  0  0  0  0  0  0  0  0
    2.5810   -4.2520  -28.1540 H   0  0  0  0  0  0  0  0  0  0  0  0
  2  1  1  6  0  0  0
  2  3  1  0  0  0  0
  2 18  1  0  0  0  0
  3  8  1  0  0  0  0
  4  5  1  0  0  0  0
  4  3  2  0  0  0  0
  5  6  2  0  0  0  0
  6  7  1  0  0  0  0
  7  9  1  0  0  0  0
  8  7  2  0  0  0  0
  9 12  1  0  0  0  0
  9 10  1  0  0  0  0
 10 11  2  0  0  0  0
 13 10  1  6  0  0  0
 14 15  1  0  0  0  0
 14 13  1  0  0  0  0
 15 13  1  0  0  0  0
 15 17  1  0  0  0  0
 16 15  1  0  0  0  0
 18 19  1  0  0  0  0
 20 29  1  0  0  0  0
 20 18  1  0  0  0  0
 21 20  2  0  0  0  0
 22 23  2  0  0  0  0
 22 21  1  0  0  0  0
 23 24  1  0  0  0  0
 24 25  2  0  0  0  0
 24 29  1  0  0  0  0
 25 26  1  0  0  0  0
 26 27  2  0  0  0  0
 28 27  1  0  0  0  0
 29 28  2  0  0  0  0
 30 25  1  0  0  0  0
 31 30  1  0  0  0  0
 31 34  1  0  0  0  0
 32 30  2  0  0  0  0
 33 31  1  0  0  0  0
M  END
>  <minimizedAffinity>
-8.80263615

$$$$
