
 OpenBabel10152418133D

 34 37  0  0  1  0  0  0  0  0999 V2000
   -1.7450   -6.8910  -25.9810 C   0  0  0  0  0  1  0  0  0  0  0  0
   -0.2830   -6.7490  -25.5420 C   0  0  2  0  0  3  0  0  0  0  0  0
    0.5150   -6.0570  -26.6470 C   0  0  0  0  0  0  0  0  0  0  0  0
    0.5630   -4.6710  -26.8200 C   0  0  0  0  0  3  0  0  0  0  0  0
    1.0310   -4.1310  -28.0130 C   0  0  0  0  0  3  0  0  0  0  0  0
    1.6290   -4.9480  -28.9700 C   0  0  0  0  0  3  0  0  0  0  0  0
    1.8750   -6.2810  -28.6880 C   0  0  0  0  0  0  0  0  0  0  0  0
    1.2500   -6.8420  -27.5600 C   0  0  0  0  0  3  0  0  0  0  0  0
    2.7640   -7.1080  -29.3920 N   0  0  0  0  0  0  0  0  0  0  0  0
    3.7400   -8.0120  -29.0550 C   0  0  0  0  0  0  0  0  0  0  0  0
    4.2040   -8.6990  -29.9660 O   0  0  0  0  0  0  0  0  0  0  0  0
    2.6090   -7.1550  -30.3940 H   0  0  0  0  0  0  0  0  0  0  0  0
    4.3690   -8.1040  -27.7260 C   0  0  1  0  0  3  0  0  0  0  0  0
    3.7190   -7.9990  -26.3610 C   0  0  0  0  0  2  0  0  0  0  0  0
    4.0100   -9.3220  -26.9370 C   0  0  0  0  0  0  0  0  0  0  0  0
    2.9350  -10.1300  -27.2280 F   0  0  0  0  0  0  0  0  0  0  0  0
    4.9730  -10.1090  -26.3500 F   0  0  0  0  0  0  0  0  0  0  0  0
    0.1920   -8.0580  -25.0590 N   0  0  0  0  0  0  0  0  0  0  0  0
    1.0850   -8.0180  -24.5760 H   0  0  0  0  0  0  0  0  0  0  0  0
   -0.5570   -9.0500  -24.4660 C   0  0  0  0  0  0  0  0  0  0  0  0
   -0.4950  -10.1960  -25.1640 N   0  0  0  0  0  0  0  0  0  0  0  0
   -0.8950  -11.2970  -24.5330 C   0  0  0  0  0  3  0  0  0  0  0  0
   -1.3100  -11.3610  -23.2650 N   0  0  0  0  0  0  0  0  0  0  0  0
   -1.4600  -10.1990  -22.5880 C   0  0  0  0  0  0  0  0  0  0  0  0
   -1.8610  -10.1620  -21.2390 C   0  0  0  0  0  0  0  0  0  0  0  0
   -2.1030   -8.9420  -20.5800 C   0  0  0  0  0  3  0  0  0  0  0  0
   -1.9190   -7.7360  -21.2380 C   0  0  0  0  0  3  0  0  0  0  0  0
   -1.4370   -7.7490  -22.5390 C   0  0  0  0  0  3  0  0  0  0  0  0
   -1.1700   -8.9690  -23.2070 C   0  0  0  0  0  0  0  0  0  0  0  0
   -1.9790  -11.3910  -20.3900 C   0  0  0  0  0  0  0  0  0  0  0  0
   -0.8320  -12.0390  -20.0260 N   0  0  0  0  0  0  0  0  0  0  0  0
   -3.0600  -11.7880  -19.9800 O   0  0  0  0  0  0  0  0  0  0  0  0
   -0.8970  -12.8530  -19.4320 H   0  0  0  0  0  0  0  0  0  0  0  0
    0.0700  -11.7440  -20.3840 H   0  0  0  0  0  0  0  0  0  0  0  0
  2  1  1  6  0  0  0
  2 18  1  0  0  0  0
  3  2  1  0  0  0  0
  4  3  1  0  0  0  0
  5  4  2  0  0  0  0
  6  7  2  0  0  0  0
  6  5  1  0  0  0  0
  7  8  1  0  0  0  0
  8  3  2  0  0  0  0
  9 10  1  0  0  0  0
  9  7  1  0  0  0  0
 11 10  2  0  0  0  0
 12  9  1  0  0  0  0
 13 10  1  6  0  0  0
 13 15  1  0  0  0  0
 13 14  1  0  0  0  0
 15 14  1  0  0  0  0
 15 17  1  0  0  0  0
 16 15  1  0  0  0  0
 18 19  1  0  0  0  0
 18 20  1  0  0  0  0
 20 29  1  0  0  0  0
 21 22  1  0  0  0  0
 21 20  2  0  0  0  0
 22 23  2  0  0  0  0
 23 24  1  0  0  0  0
 24 25  1  0  0  0  0
 25 26  2  0  0  0  0
 25 30  1  0  0  0  0
 27 26  1  0  0  0  0
 28 27  2  0  0  0  0
 29 24  2  0  0  0  0
 29 28  1  0  0  0  0
 30 31  1  0  0  0  0
 30 32  2  0  0  0  0
 31 33  1  0  0  0  0
 34 31  1  0  0  0  0
M  END
>  <minimizedAffinity>
-7.8665719

$$$$
