
 OpenBabel10152418133D

 34 37  0  0  1  0  0  0  0  0999 V2000
    2.5110  -12.0390  -27.3630 C   0  0  0  0  0  1  0  0  0  0  0  0
    2.2910  -11.5090  -25.9410 C   0  0  2  0  0  3  0  0  0  0  0  0
    0.7990  -11.2670  -25.7120 C   0  0  0  0  0  0  0  0  0  0  0  0
   -0.0960  -10.9220  -26.7280 C   0  0  0  0  0  3  0  0  0  0  0  0
   -1.3490  -10.4070  -26.4100 C   0  0  0  0  0  3  0  0  0  0  0  0
   -1.7960  -10.4060  -25.0900 C   0  0  0  0  0  3  0  0  0  0  0  0
   -1.0510  -11.0300  -24.1050 C   0  0  0  0  0  0  0  0  0  0  0  0
    0.2740  -11.3900  -24.4100 C   0  0  0  0  0  3  0  0  0  0  0  0
   -1.5320  -11.4090  -22.8420 N   0  0  0  0  0  0  0  0  0  0  0  0
   -1.8140  -10.7650  -21.6630 C   0  0  0  0  0  0  0  0  0  0  0  0
   -2.4070  -11.4130  -20.8000 O   0  0  0  0  0  0  0  0  0  0  0  0
   -1.8600  -12.3670  -22.7760 H   0  0  0  0  0  0  0  0  0  0  0  0
   -1.3240   -9.4210  -21.3110 C   0  0  1  0  0  3  0  0  0  0  0  0
   -1.0540   -8.2410  -22.2220 C   0  0  0  0  0  2  0  0  0  0  0  0
   -2.3200   -8.3190  -21.4750 C   0  0  0  0  0  0  0  0  0  0  0  0
   -3.4770   -8.4400  -22.2110 F   0  0  0  0  0  0  0  0  0  0  0  0
   -2.5610   -7.4100  -20.4720 F   0  0  0  0  0  0  0  0  0  0  0  0
    3.2190  -10.3870  -25.7100 N   0  0  0  0  0  0  0  0  0  0  0  0
    4.1830  -10.6740  -25.5640 H   0  0  0  0  0  0  0  0  0  0  0  0
    3.2410   -9.1740  -26.3610 C   0  0  0  0  0  0  0  0  0  0  0  0
    4.0840   -9.1910  -27.4060 N   0  0  0  0  0  0  0  0  0  0  0  0
    3.9490   -8.2100  -28.2940 C   0  0  0  0  0  3  0  0  0  0  0  0
    3.0260   -7.2440  -28.2540 N   0  0  0  0  0  0  0  0  0  0  0  0
    2.2340   -7.1700  -27.1590 C   0  0  0  0  0  0  0  0  0  0  0  0
    1.2120   -6.2100  -27.0350 C   0  0  0  0  0  0  0  0  0  0  0  0
    0.4620   -6.0870  -25.8500 C   0  0  0  0  0  3  0  0  0  0  0  0
    0.6900   -6.9380  -24.7800 C   0  0  0  0  0  3  0  0  0  0  0  0
    1.6300   -7.9490  -24.9160 C   0  0  0  0  0  3  0  0  0  0  0  0
    2.3770   -8.0960  -26.1090 C   0  0  0  0  0  0  0  0  0  0  0  0
    0.7940   -5.3140  -28.1610 C   0  0  0  0  0  0  0  0  0  0  0  0
    1.6870   -4.3860  -28.6150 N   0  0  0  0  0  0  0  0  0  0  0  0
   -0.2950   -5.4320  -28.7060 O   0  0  0  0  0  0  0  0  0  0  0  0
    1.4270   -3.7950  -29.3910 H   0  0  0  0  0  0  0  0  0  0  0  0
    2.5810   -4.2520  -28.1540 H   0  0  0  0  0  0  0  0  0  0  0  0
  2  1  1  6  0  0  0
  2  3  1  0  0  0  0
  2 18  1  0  0  0  0
  3  8  1  0  0  0  0
  4  5  1  0  0  0  0
  4  3  2  0  0  0  0
  5  6  2  0  0  0  0
  6  7  1  0  0  0  0
  7  9  1  0  0  0  0
  8  7  2  0  0  0  0
  9 12  1  0  0  0  0
  9 10  1  0  0  0  0
 10 11  2  0  0  0  0
 13 10  1  6  0  0  0
 14 15  1  0  0  0  0
 14 13  1  0  0  0  0
 15 13  1  0  0  0  0
 15 17  1  0  0  0  0
 16 15  1  0  0  0  0
 18 19  1  0  0  0  0
 20 29  1  0  0  0  0
 20 18  1  0  0  0  0
 21 20  2  0  0  0  0
 22 23  2  0  0  0  0
 22 21  1  0  0  0  0
 23 24  1  0  0  0  0
 24 25  2  0  0  0  0
 24 29  1  0  0  0  0
 25 26  1  0  0  0  0
 26 27  2  0  0  0  0
 28 27  1  0  0  0  0
 29 28  2  0  0  0  0
 30 25  1  0  0  0  0
 31 30  1  0  0  0  0
 31 34  1  0  0  0  0
 32 30  2  0  0  0  0
 33 31  1  0  0  0  0
M  END
>  <minimizedAffinity>
-8.80263615

$$$$

 OpenBabel10152418133D

 34 37  0  0  1  0  0  0  0  0999 V2000
    0.3180  -10.7690  -26.3860 C   0  0  0  0  0  1  0  0  0  0  0  0
    0.8180  -11.1800  -24.9970 C   0  0  2  0  0  3  0  0  0  0  0  0
    0.0200  -10.4350  -23.9270 C   0  0  0  0  0  0  0  0  0  0  0  0
   -0.6120  -11.0650  -22.8510 C   0  0  0  0  0  3  0  0  0  0  0  0
   -1.5730  -10.3850  -22.1100 C   0  0  0  0  0  3  0  0  0  0  0  0
   -1.7820   -9.0220  -22.3090 C   0  0  0  0  0  3  0  0  0  0  0  0
   -0.9490   -8.3080  -23.1530 C   0  0  0  0  0  0  0  0  0  0  0  0
   -0.1020   -9.0340  -24.0110 C   0  0  0  0  0  3  0  0  0  0  0  0
   -0.8170   -6.9110  -23.1720 N   0  0  0  0  0  0  0  0  0  0  0  0
   -0.5090   -5.9650  -24.1180 C   0  0  0  0  0  0  0  0  0  0  0  0
   -0.6680   -4.7860  -23.8020 O   0  0  0  0  0  0  0  0  0  0  0  0
   -1.1120   -6.4380  -22.3240 H   0  0  0  0  0  0  0  0  0  0  0  0
    0.1330   -6.2580  -25.4110 C   0  0  1  0  0  3  0  0  0  0  0  0
   -0.5140   -6.6500  -26.7230 C   0  0  0  0  0  2  0  0  0  0  0  0
   -0.1180   -5.2520  -26.4870 C   0  0  0  0  0  0  0  0  0  0  0  0
   -1.1240   -4.3150  -26.4360 F   0  0  0  0  0  0  0  0  0  0  0  0
    0.9110   -4.7150  -27.2250 F   0  0  0  0  0  0  0  0  0  0  0  0
    2.2880  -11.0640  -24.9730 N   0  0  0  0  0  0  0  0  0  0  0  0
    2.7410  -11.7190  -24.3430 H   0  0  0  0  0  0  0  0  0  0  0  0
    3.1270  -10.8710  -26.0480 C   0  0  0  0  0  0  0  0  0  0  0  0
    3.5750  -12.0390  -26.5380 N   0  0  0  0  0  0  0  0  0  0  0  0
    4.1140  -12.0030  -27.7540 C   0  0  0  0  0  3  0  0  0  0  0  0
    4.2080  -10.9230  -28.5340 N   0  0  0  0  0  0  0  0  0  0  0  0
    3.8410   -9.7310  -28.0100 C   0  0  0  0  0  0  0  0  0  0  0  0
    3.8730   -8.5390  -28.7610 C   0  0  0  0  0  0  0  0  0  0  0  0
    3.5800   -7.2940  -28.1720 C   0  0  0  0  0  3  0  0  0  0  0  0
    3.2160   -7.2140  -26.8360 C   0  0  0  0  0  3  0  0  0  0  0  0
    3.0910   -8.3860  -26.1040 C   0  0  0  0  0  3  0  0  0  0  0  0
    3.3640   -9.6460  -26.6890 C   0  0  0  0  0  0  0  0  0  0  0  0
    4.1360   -8.5110  -30.2360 C   0  0  0  0  0  0  0  0  0  0  0  0
    3.6400   -9.5290  -31.0000 N   0  0  0  0  0  0  0  0  0  0  0  0
    4.7320   -7.5840  -30.7650 O   0  0  0  0  0  0  0  0  0  0  0  0
    3.7870   -9.5080  -31.9990 H   0  0  0  0  0  0  0  0  0  0  0  0
    3.1730  -10.3230  -30.5740 H   0  0  0  0  0  0  0  0  0  0  0  0
  2  1  1  6  0  0  0
  2 18  1  0  0  0  0
  2  3  1  0  0  0  0
  3  4  1  0  0  0  0
  4  5  2  0  0  0  0
  6  5  1  0  0  0  0
  7  6  2  0  0  0  0
  8  3  2  0  0  0  0
  8  7  1  0  0  0  0
  9  7  1  0  0  0  0
  9 12  1  0  0  0  0
 10 11  2  0  0  0  0
 10  9  1  0  0  0  0
 13 10  1  1  0  0  0
 14 15  1  0  0  0  0
 14 13  1  0  0  0  0
 15 16  1  0  0  0  0
 15 13  1  0  0  0  0
 17 15  1  0  0  0  0
 18 19  1  0  0  0  0
 20 18  1  0  0  0  0
 21 20  1  0  0  0  0
 22 21  2  0  0  0  0
 23 24  2  0  0  0  0
 23 22  1  0  0  0  0
 24 29  1  0  0  0  0
 25 26  2  0  0  0  0
 25 24  1  0  0  0  0
 26 27  1  0  0  0  0
 27 28  2  0  0  0  0
 29 28  1  0  0  0  0
 29 20  2  0  0  0  0
 30 25  1  0  0  0  0
 31 34  1  0  0  0  0
 31 30  1  0  0  0  0
 32 30  2  0  0  0  0
 33 31  1  0  0  0  0
M  END
>  <minimizedAffinity>
-8.37405205

$$$$

 OpenBabel10152418133D

 34 37  0  0  1  0  0  0  0  0999 V2000
    2.4050   -8.6210  -24.8320 C   0  0  0  0  0  1  0  0  0  0  0  0
    2.4150   -9.6200  -25.9950 C   0  0  2  0  0  3  0  0  0  0  0  0
    2.9140   -8.9240  -27.2610 C   0  0  0  0  0  0  0  0  0  0  0  0
    3.7640   -9.5240  -28.1930 C   0  0  0  0  0  3  0  0  0  0  0  0
    4.4290   -8.7450  -29.1350 C   0  0  0  0  0  3  0  0  0  0  0  0
    4.1150   -7.3960  -29.2830 C   0  0  0  0  0  3  0  0  0  0  0  0
    3.0530   -6.8500  -28.5820 C   0  0  0  0  0  0  0  0  0  0  0  0
    2.5080   -7.5990  -27.5220 C   0  0  0  0  0  3  0  0  0  0  0  0
    2.4150   -5.6390  -28.8900 N   0  0  0  0  0  0  0  0  0  0  0  0
    1.3330   -4.9470  -28.4050 C   0  0  0  0  0  0  0  0  0  0  0  0
    1.1730   -3.7980  -28.8180 O   0  0  0  0  0  0  0  0  0  0  0  0
    2.9010   -5.0530  -29.5600 H   0  0  0  0  0  0  0  0  0  0  0  0
    0.2820   -5.5320  -27.5550 C   0  0  1  0  0  3  0  0  0  0  0  0
    0.1640   -5.5120  -26.0440 C   0  0  0  0  0  2  0  0  0  0  0  0
   -0.5920   -4.5430  -26.8540 C   0  0  0  0  0  0  0  0  0  0  0  0
   -0.2720   -3.2130  -26.7040 F   0  0  0  0  0  0  0  0  0  0  0  0
   -1.9630   -4.6360  -26.8980 F   0  0  0  0  0  0  0  0  0  0  0  0
    1.1070  -10.2970  -26.0440 N   0  0  0  0  0  0  0  0  0  0  0  0
    1.0670  -11.0670  -26.7050 H   0  0  0  0  0  0  0  0  0  0  0  0
    0.2930  -10.6180  -24.9800 C   0  0  0  0  0  0  0  0  0  0  0  0
    0.6530  -11.7850  -24.4200 N   0  0  0  0  0  0  0  0  0  0  0  0
    0.1670  -12.0350  -23.2080 C   0  0  0  0  0  3  0  0  0  0  0  0
   -0.6070  -11.2140  -22.4930 N   0  0  0  0  0  0  0  0  0  0  0  0
   -1.0460  -10.0810  -23.0880 C   0  0  0  0  0  0  0  0  0  0  0  0
   -1.8400   -9.1350  -22.4100 C   0  0  0  0  0  0  0  0  0  0  0  0
   -2.3650   -8.0100  -23.0730 C   0  0  0  0  0  3  0  0  0  0  0  0
   -2.0840   -7.7850  -24.4110 C   0  0  0  0  0  3  0  0  0  0  0  0
   -1.2300   -8.6550  -25.0730 C   0  0  0  0  0  3  0  0  0  0  0  0
   -0.6790   -9.7800  -24.4130 C   0  0  0  0  0  0  0  0  0  0  0  0
   -2.1140   -9.2070  -20.9390 C   0  0  0  0  0  0  0  0  0  0  0  0
   -2.4670  -10.4140  -20.4040 N   0  0  0  0  0  0  0  0  0  0  0  0
   -1.9810   -8.2330  -20.2120 O   0  0  0  0  0  0  0  0  0  0  0  0
   -2.6280  -10.4800  -19.4100 H   0  0  0  0  0  0  0  0  0  0  0  0
   -2.6150  -11.2240  -20.9970 H   0  0  0  0  0  0  0  0  0  0  0  0
  2  1  1  1  0  0  0
  3  2  1  0  0  0  0
  4  3  2  0  0  0  0
  5  4  1  0  0  0  0
  6  5  2  0  0  0  0
  6  7  1  0  0  0  0
  7  8  2  0  0  0  0
  8  3  1  0  0  0  0
  9  7  1  0  0  0  0
  9 10  1  0  0  0  0
 11 10  2  0  0  0  0
 12  9  1  0  0  0  0
 13 10  1  1  0  0  0
 13 15  1  0  0  0  0
 13 14  1  0  0  0  0
 15 16  1  0  0  0  0
 15 14  1  0  0  0  0
 17 15  1  0  0  0  0
 18  2  1  0  0  0  0
 18 20  1  0  0  0  0
 19 18  1  0  0  0  0
 20 21  2  0  0  0  0
 20 29  1  0  0  0  0
 21 22  1  0  0  0  0
 22 23  2  0  0  0  0
 24 23  1  0  0  0  0
 24 25  1  0  0  0  0
 25 30  1  0  0  0  0
 26 25  2  0  0  0  0
 27 26  1  0  0  0  0
 28 29  1  0  0  0  0
 28 27  2  0  0  0  0
 29 24  2  0  0  0  0
 30 31  1  0  0  0  0
 30 32  2  0  0  0  0
 31 33  1  0  0  0  0
 34 31  1  0  0  0  0
M  END
>  <minimizedAffinity>
-8.24498177

$$$$

 OpenBabel10152418133D

 34 37  0  0  1  0  0  0  0  0999 V2000
   -1.7450   -6.8910  -25.9810 C   0  0  0  0  0  1  0  0  0  0  0  0
   -0.2830   -6.7490  -25.5420 C   0  0  2  0  0  3  0  0  0  0  0  0
    0.5150   -6.0570  -26.6470 C   0  0  0  0  0  0  0  0  0  0  0  0
    0.5630   -4.6710  -26.8200 C   0  0  0  0  0  3  0  0  0  0  0  0
    1.0310   -4.1310  -28.0130 C   0  0  0  0  0  3  0  0  0  0  0  0
    1.6290   -4.9480  -28.9700 C   0  0  0  0  0  3  0  0  0  0  0  0
    1.8750   -6.2810  -28.6880 C   0  0  0  0  0  0  0  0  0  0  0  0
    1.2500   -6.8420  -27.5600 C   0  0  0  0  0  3  0  0  0  0  0  0
    2.7640   -7.1080  -29.3920 N   0  0  0  0  0  0  0  0  0  0  0  0
    3.7400   -8.0120  -29.0550 C   0  0  0  0  0  0  0  0  0  0  0  0
    4.2040   -8.6990  -29.9660 O   0  0  0  0  0  0  0  0  0  0  0  0
    2.6090   -7.1550  -30.3940 H   0  0  0  0  0  0  0  0  0  0  0  0
    4.3690   -8.1040  -27.7260 C   0  0  1  0  0  3  0  0  0  0  0  0
    3.7190   -7.9990  -26.3610 C   0  0  0  0  0  2  0  0  0  0  0  0
    4.0100   -9.3220  -26.9370 C   0  0  0  0  0  0  0  0  0  0  0  0
    2.9350  -10.1300  -27.2280 F   0  0  0  0  0  0  0  0  0  0  0  0
    4.9730  -10.1090  -26.3500 F   0  0  0  0  0  0  0  0  0  0  0  0
    0.1920   -8.0580  -25.0590 N   0  0  0  0  0  0  0  0  0  0  0  0
    1.0850   -8.0180  -24.5760 H   0  0  0  0  0  0  0  0  0  0  0  0
   -0.5570   -9.0500  -24.4660 C   0  0  0  0  0  0  0  0  0  0  0  0
   -0.4950  -10.1960  -25.1640 N   0  0  0  0  0  0  0  0  0  0  0  0
   -0.8950  -11.2970  -24.5330 C   0  0  0  0  0  3  0  0  0  0  0  0
   -1.3100  -11.3610  -23.2650 N   0  0  0  0  0  0  0  0  0  0  0  0
   -1.4600  -10.1990  -22.5880 C   0  0  0  0  0  0  0  0  0  0  0  0
   -1.8610  -10.1620  -21.2390 C   0  0  0  0  0  0  0  0  0  0  0  0
   -2.1030   -8.9420  -20.5800 C   0  0  0  0  0  3  0  0  0  0  0  0
   -1.9190   -7.7360  -21.2380 C   0  0  0  0  0  3  0  0  0  0  0  0
   -1.4370   -7.7490  -22.5390 C   0  0  0  0  0  3  0  0  0  0  0  0
   -1.1700   -8.9690  -23.2070 C   0  0  0  0  0  0  0  0  0  0  0  0
   -1.9790  -11.3910  -20.3900 C   0  0  0  0  0  0  0  0  0  0  0  0
   -0.8320  -12.0390  -20.0260 N   0  0  0  0  0  0  0  0  0  0  0  0
   -3.0600  -11.7880  -19.9800 O   0  0  0  0  0  0  0  0  0  0  0  0
   -0.8970  -12.8530  -19.4320 H   0  0  0  0  0  0  0  0  0  0  0  0
    0.0700  -11.7440  -20.3840 H   0  0  0  0  0  0  0  0  0  0  0  0
  2  1  1  6  0  0  0
  2 18  1  0  0  0  0
  3  2  1  0  0  0  0
  4  3  1  0  0  0  0
  5  4  2  0  0  0  0
  6  7  2  0  0  0  0
  6  5  1  0  0  0  0
  7  8  1  0  0  0  0
  8  3  2  0  0  0  0
  9 10  1  0  0  0  0
  9  7  1  0  0  0  0
 11 10  2  0  0  0  0
 12  9  1  0  0  0  0
 13 10  1  6  0  0  0
 13 15  1  0  0  0  0
 13 14  1  0  0  0  0
 15 14  1  0  0  0  0
 15 17  1  0  0  0  0
 16 15  1  0  0  0  0
 18 19  1  0  0  0  0
 18 20  1  0  0  0  0
 20 29  1  0  0  0  0
 21 22  1  0  0  0  0
 21 20  2  0  0  0  0
 22 23  2  0  0  0  0
 23 24  1  0  0  0  0
 24 25  1  0  0  0  0
 25 26  2  0  0  0  0
 25 30  1  0  0  0  0
 27 26  1  0  0  0  0
 28 27  2  0  0  0  0
 29 24  2  0  0  0  0
 29 28  1  0  0  0  0
 30 31  1  0  0  0  0
 30 32  2  0  0  0  0
 31 33  1  0  0  0  0
 34 31  1  0  0  0  0
M  END
>  <minimizedAffinity>
-7.8665719

$$$$

 OpenBabel10152418133D

 34 37  0  0  1  0  0  0  0  0999 V2000
    1.0180  -10.8000  -23.8630 C   0  0  0  0  0  1  0  0  0  0  0  0
    0.8900  -11.4490  -25.2460 C   0  0  2  0  0  3  0  0  0  0  0  0
    2.2750  -11.5750  -25.8800 C   0  0  0  0  0  0  0  0  0  0  0  0
    3.4060  -12.0230  -25.1920 C   0  0  0  0  0  3  0  0  0  0  0  0
    4.6760  -11.8090  -25.7200 C   0  0  0  0  0  3  0  0  0  0  0  0
    4.8260  -11.3210  -27.0160 C   0  0  0  0  0  3  0  0  0  0  0  0
    3.7190  -11.1630  -27.8320 C   0  0  0  0  0  0  0  0  0  0  0  0
    2.4470  -11.2210  -27.2340 C   0  0  0  0  0  3  0  0  0  0  0  0
    3.7520  -11.0300  -29.2280 N   0  0  0  0  0  0  0  0  0  0  0  0
    4.3700  -10.1890  -30.1200 C   0  0  0  0  0  0  0  0  0  0  0  0
    4.3060  -10.4930  -31.3120 O   0  0  0  0  0  0  0  0  0  0  0  0
    3.3060  -11.7810  -29.7450 H   0  0  0  0  0  0  0  0  0  0  0  0
    4.9620   -8.8880  -29.7670 C   0  0  1  0  0  3  0  0  0  0  0  0
    4.9220   -7.5860  -30.5420 C   0  0  0  0  0  2  0  0  0  0  0  0
    3.9800   -7.8120  -29.4340 C   0  0  0  0  0  0  0  0  0  0  0  0
    2.6420   -7.8760  -29.7510 F   0  0  0  0  0  0  0  0  0  0  0  0
    4.0980   -7.0570  -28.2910 F   0  0  0  0  0  0  0  0  0  0  0  0
   -0.1570  -10.7400  -26.0020 N   0  0  0  0  0  0  0  0  0  0  0  0
   -0.8340  -11.3570  -26.4440 H   0  0  0  0  0  0  0  0  0  0  0  0
   -0.8210   -9.5910  -25.6320 C   0  0  0  0  0  0  0  0  0  0  0  0
   -1.7760   -9.8460  -24.7230 N   0  0  0  0  0  0  0  0  0  0  0  0
   -2.2510   -8.7980  -24.0540 C   0  0  0  0  0  3  0  0  0  0  0  0
   -1.8340   -7.5360  -24.1820 N   0  0  0  0  0  0  0  0  0  0  0  0
   -0.9380   -7.2620  -25.1590 C   0  0  0  0  0  0  0  0  0  0  0  0
   -0.4120   -5.9700  -25.3550 C   0  0  0  0  0  0  0  0  0  0  0  0
    0.4450   -5.6840  -26.4350 C   0  0  0  0  0  3  0  0  0  0  0  0
    0.8220   -6.6830  -27.3190 C   0  0  0  0  0  3  0  0  0  0  0  0
    0.3880   -7.9810  -27.0910 C   0  0  0  0  0  3  0  0  0  0  0  0
   -0.4580   -8.2860  -25.9970 C   0  0  0  0  0  0  0  0  0  0  0  0
   -0.6520   -4.8390  -24.4020 C   0  0  0  0  0  0  0  0  0  0  0  0
   -0.4130   -5.0510  -23.0740 N   0  0  0  0  0  0  0  0  0  0  0  0
   -1.0040   -3.7340  -24.7910 O   0  0  0  0  0  0  0  0  0  0  0  0
   -0.5450   -4.2880  -22.4250 H   0  0  0  0  0  0  0  0  0  0  0  0
   -0.1540   -5.9690  -22.7300 H   0  0  0  0  0  0  0  0  0  0  0  0
  2  1  1  1  0  0  0
  3  2  1  0  0  0  0
  3  4  1  0  0  0  0
  5  4  2  0  0  0  0
  6  5  1  0  0  0  0
  7  8  1  0  0  0  0
  7  6  2  0  0  0  0
  8  3  2  0  0  0  0
  9  7  1  0  0  0  0
 10  9  1  0  0  0  0
 11 10  2  0  0  0  0
 12  9  1  0  0  0  0
 13 10  1  6  0  0  0
 13 15  1  0  0  0  0
 14 13  1  0  0  0  0
 14 15  1  0  0  0  0
 15 17  1  0  0  0  0
 16 15  1  0  0  0  0
 18 20  1  0  0  0  0
 18  2  1  0  0  0  0
 19 18  1  0  0  0  0
 20 21  1  0  0  0  0
 21 22  2  0  0  0  0
 23 22  1  0  0  0  0
 24 23  2  0  0  0  0
 25 24  1  0  0  0  0
 25 30  1  0  0  0  0
 26 25  2  0  0  0  0
 27 28  2  0  0  0  0
 27 26  1  0  0  0  0
 28 29  1  0  0  0  0
 29 20  2  0  0  0  0
 29 24  1  0  0  0  0
 30 31  1  0  0  0  0
 31 34  1  0  0  0  0
 31 33  1  0  0  0  0
 32 30  2  0  0  0  0
M  END
>  <minimizedAffinity>
-7.29538441

$$$$

 OpenBabel10152418133D

 34 37  0  0  1  0  0  0  0  0999 V2000
   -2.1920  -10.5420  -26.0250 C   0  0  0  0  0  1  0  0  0  0  0  0
   -1.2460  -11.5330  -25.3380 C   0  0  2  0  0  3  0  0  0  0  0  0
   -1.1000  -11.1580  -23.8630 C   0  0  0  0  0  0  0  0  0  0  0  0
   -0.6350  -12.0380  -22.8810 C   0  0  0  0  0  3  0  0  0  0  0  0
   -0.8300  -11.7470  -21.5350 C   0  0  0  0  0  3  0  0  0  0  0  0
   -1.3160  -10.5010  -21.1460 C   0  0  0  0  0  3  0  0  0  0  0  0
   -1.4890   -9.5000  -22.0860 C   0  0  0  0  0  0  0  0  0  0  0  0
   -1.4500   -9.8590  -23.4450 C   0  0  0  0  0  3  0  0  0  0  0  0
   -1.6220   -8.1320  -21.7990 N   0  0  0  0  0  0  0  0  0  0  0  0
   -1.5600   -6.9660  -22.5210 C   0  0  0  0  0  0  0  0  0  0  0  0
   -1.9140   -5.9350  -21.9480 O   0  0  0  0  0  0  0  0  0  0  0  0
   -1.9450   -7.9170  -20.8610 H   0  0  0  0  0  0  0  0  0  0  0  0
   -0.9600   -6.8460  -23.8610 C   0  0  1  0  0  3  0  0  0  0  0  0
   -0.8640   -5.6230  -24.7500 C   0  0  0  0  0  2  0  0  0  0  0  0
    0.2880   -6.0270  -23.9270 C   0  0  0  0  0  0  0  0  0  0  0  0
    0.6860   -5.1610  -22.9350 F   0  0  0  0  0  0  0  0  0  0  0  0
    1.4230   -6.4930  -24.5490 F   0  0  0  0  0  0  0  0  0  0  0  0
   -0.0200  -11.6520  -26.1480 N   0  0  0  0  0  0  0  0  0  0  0  0
   -0.1950  -11.7530  -27.1440 H   0  0  0  0  0  0  0  0  0  0  0  0
    1.1500  -10.9400  -26.0010 C   0  0  0  0  0  0  0  0  0  0  0  0
    2.1350  -11.7100  -25.5120 N   0  0  0  0  0  0  0  0  0  0  0  0
    3.3730  -11.2370  -25.6350 C   0  0  0  0  0  3  0  0  0  0  0  0
    3.7150  -10.0930  -26.2350 N   0  0  0  0  0  0  0  0  0  0  0  0
    2.7210   -9.2740  -26.6480 C   0  0  0  0  0  0  0  0  0  0  0  0
    2.9760   -8.0620  -27.3180 C   0  0  0  0  0  0  0  0  0  0  0  0
    1.9340   -7.1770  -27.6550 C   0  0  0  0  0  3  0  0  0  0  0  0
    0.6170   -7.4950  -27.3630 C   0  0  0  0  0  3  0  0  0  0  0  0
    0.3360   -8.7250  -26.7850 C   0  0  0  0  0  3  0  0  0  0  0  0
    1.3730   -9.6320  -26.4590 C   0  0  0  0  0  0  0  0  0  0  0  0
    4.3410   -7.6630  -27.7900 C   0  0  0  0  0  0  0  0  0  0  0  0
    4.9460   -8.4330  -28.7420 N   0  0  0  0  0  0  0  0  0  0  0  0
    4.8920   -6.6500  -27.3830 O   0  0  0  0  0  0  0  0  0  0  0  0
    5.8550   -8.1600  -29.0880 H   0  0  0  0  0  0  0  0  0  0  0  0
    4.5200   -9.2950  -29.0670 H   0  0  0  0  0  0  0  0  0  0  0  0
  2  1  1  6  0  0  0
  2  3  1  0  0  0  0
  3  8  2  0  0  0  0
  3  4  1  0  0  0  0
  4  5  2  0  0  0  0
  5  6  1  0  0  0  0
  7  9  1  0  0  0  0
  7  6  2  0  0  0  0
  8  7  1  0  0  0  0
  9 12  1  0  0  0  0
 10 11  2  0  0  0  0
 10  9  1  0  0  0  0
 13 10  1  1  0  0  0
 14 15  1  0  0  0  0
 14 13  1  0  0  0  0
 15 13  1  0  0  0  0
 15 16  1  0  0  0  0
 17 15  1  0  0  0  0
 18 20  1  0  0  0  0
 18  2  1  0  0  0  0
 19 18  1  0  0  0  0
 20 21  1  0  0  0  0
 22 21  2  0  0  0  0
 23 22  1  0  0  0  0
 24 29  1  0  0  0  0
 24 23  2  0  0  0  0
 25 24  1  0  0  0  0
 26 27  1  0  0  0  0
 26 25  2  0  0  0  0
 27 28  2  0  0  0  0
 28 29  1  0  0  0  0
 29 20  2  0  0  0  0
 30 32  2  0  0  0  0
 30 25  1  0  0  0  0
 31 30  1  0  0  0  0
 33 31  1  0  0  0  0
 34 31  1  0  0  0  0
M  END
>  <minimizedAffinity>
-6.96386766

$$$$

 OpenBabel10152418133D

 34 37  0  0  1  0  0  0  0  0999 V2000
    3.0790  -10.6040  -26.2890 C   0  0  0  0  0  1  0  0  0  0  0  0
    2.0170   -9.5200  -26.0710 C   0  0  2  0  0  3  0  0  0  0  0  0
    0.7190  -10.1680  -25.5890 C   0  0  0  0  0  0  0  0  0  0  0  0
   -0.3370  -10.5150  -26.4360 C   0  0  0  0  0  3  0  0  0  0  0  0
   -1.5930  -10.7950  -25.9070 C   0  0  0  0  0  3  0  0  0  0  0  0
   -1.7680  -10.9160  -24.5300 C   0  0  0  0  0  3  0  0  0  0  0  0
   -0.6710  -10.8840  -23.6860 C   0  0  0  0  0  0  0  0  0  0  0  0
    0.5540  -10.4370  -24.2150 C   0  0  0  0  0  3  0  0  0  0  0  0
   -0.6560  -11.3390  -22.3590 N   0  0  0  0  0  0  0  0  0  0  0  0
   -1.4020  -11.1040  -21.2310 C   0  0  0  0  0  0  0  0  0  0  0  0
   -1.2010  -11.8390  -20.2640 O   0  0  0  0  0  0  0  0  0  0  0  0
   -0.0170  -12.1050  -22.1720 H   0  0  0  0  0  0  0  0  0  0  0  0
   -2.3030   -9.9520  -21.0530 C   0  0  1  0  0  3  0  0  0  0  0  0
   -2.1110   -8.7250  -20.1840 C   0  0  0  0  0  2  0  0  0  0  0  0
   -1.8060   -8.6630  -21.6230 C   0  0  0  0  0  0  0  0  0  0  0  0
   -0.4950   -8.4400  -21.9770 F   0  0  0  0  0  0  0  0  0  0  0  0
   -2.5930   -7.8860  -22.4390 F   0  0  0  0  0  0  0  0  0  0  0  0
    1.9620   -8.6690  -27.2730 N   0  0  0  0  0  0  0  0  0  0  0  0
    1.4200   -9.0680  -28.0350 H   0  0  0  0  0  0  0  0  0  0  0  0
    1.8040   -7.3010  -27.3210 C   0  0  0  0  0  0  0  0  0  0  0  0
    2.2640   -6.7930  -28.4750 N   0  0  0  0  0  0  0  0  0  0  0  0
    1.8750   -5.5570  -28.7760 C   0  0  0  0  0  3  0  0  0  0  0  0
    1.0400   -4.8050  -28.0530 N   0  0  0  0  0  0  0  0  0  0  0  0
    0.6460   -5.2770  -26.8470 C   0  0  0  0  0  0  0  0  0  0  0  0
   -0.2560   -4.5750  -26.0240 C   0  0  0  0  0  0  0  0  0  0  0  0
   -0.5800   -5.0360  -24.7330 C   0  0  0  0  0  3  0  0  0  0  0  0
   -0.0410   -6.2180  -24.2510 C   0  0  0  0  0  3  0  0  0  0  0  0
    0.7780   -6.9700  -25.0800 C   0  0  0  0  0  3  0  0  0  0  0  0
    1.0960   -6.5290  -26.3880 C   0  0  0  0  0  0  0  0  0  0  0  0
   -0.9920   -3.3520  -26.4790 C   0  0  0  0  0  0  0  0  0  0  0  0
   -0.2690   -2.3260  -27.0200 N   0  0  0  0  0  0  0  0  0  0  0  0
   -2.2110   -3.2770  -26.4230 O   0  0  0  0  0  0  0  0  0  0  0  0
   -0.7560   -1.5080  -27.3540 H   0  0  0  0  0  0  0  0  0  0  0  0
    0.7450   -2.3570  -27.0430 H   0  0  0  0  0  0  0  0  0  0  0  0
  2  1  1  6  0  0  0
  2  3  1  0  0  0  0
  3  8  1  0  0  0  0
  4  5  1  0  0  0  0
  4  3  2  0  0  0  0
  5  6  2  0  0  0  0
  6  7  1  0  0  0  0
  7  9  1  0  0  0  0
  8  7  2  0  0  0  0
  9 12  1  0  0  0  0
  9 10  1  0  0  0  0
 10 11  2  0  0  0  0
 13 10  1  1  0  0  0
 13 14  1  0  0  0  0
 15 13  1  0  0  0  0
 15 14  1  0  0  0  0
 16 15  1  0  0  0  0
 17 15  1  0  0  0  0
 18  2  1  0  0  0  0
 19 18  1  0  0  0  0
 20 18  1  0  0  0  0
 20 29  1  0  0  0  0
 21 20  2  0  0  0  0
 22 21  1  0  0  0  0
 22 23  2  0  0  0  0
 23 24  1  0  0  0  0
 24 29  2  0  0  0  0
 24 25  1  0  0  0  0
 25 26  2  0  0  0  0
 26 27  1  0  0  0  0
 28 27  2  0  0  0  0
 29 28  1  0  0  0  0
 30 32  2  0  0  0  0
 30 25  1  0  0  0  0
 31 30  1  0  0  0  0
 33 31  1  0  0  0  0
 34 31  1  0  0  0  0
M  END
>  <minimizedAffinity>
-6.92128849

$$$$
