
 OpenBabel10152418133D

 34 37  0  0  1  0  0  0  0  0999 V2000
    0.3180  -10.7690  -26.3860 C   0  0  0  0  0  1  0  0  0  0  0  0
    0.8180  -11.1800  -24.9970 C   0  0  2  0  0  3  0  0  0  0  0  0
    0.0200  -10.4350  -23.9270 C   0  0  0  0  0  0  0  0  0  0  0  0
   -0.6120  -11.0650  -22.8510 C   0  0  0  0  0  3  0  0  0  0  0  0
   -1.5730  -10.3850  -22.1100 C   0  0  0  0  0  3  0  0  0  0  0  0
   -1.7820   -9.0220  -22.3090 C   0  0  0  0  0  3  0  0  0  0  0  0
   -0.9490   -8.3080  -23.1530 C   0  0  0  0  0  0  0  0  0  0  0  0
   -0.1020   -9.0340  -24.0110 C   0  0  0  0  0  3  0  0  0  0  0  0
   -0.8170   -6.9110  -23.1720 N   0  0  0  0  0  0  0  0  0  0  0  0
   -0.5090   -5.9650  -24.1180 C   0  0  0  0  0  0  0  0  0  0  0  0
   -0.6680   -4.7860  -23.8020 O   0  0  0  0  0  0  0  0  0  0  0  0
   -1.1120   -6.4380  -22.3240 H   0  0  0  0  0  0  0  0  0  0  0  0
    0.1330   -6.2580  -25.4110 C   0  0  1  0  0  3  0  0  0  0  0  0
   -0.5140   -6.6500  -26.7230 C   0  0  0  0  0  2  0  0  0  0  0  0
   -0.1180   -5.2520  -26.4870 C   0  0  0  0  0  0  0  0  0  0  0  0
   -1.1240   -4.3150  -26.4360 F   0  0  0  0  0  0  0  0  0  0  0  0
    0.9110   -4.7150  -27.2250 F   0  0  0  0  0  0  0  0  0  0  0  0
    2.2880  -11.0640  -24.9730 N   0  0  0  0  0  0  0  0  0  0  0  0
    2.7410  -11.7190  -24.3430 H   0  0  0  0  0  0  0  0  0  0  0  0
    3.1270  -10.8710  -26.0480 C   0  0  0  0  0  0  0  0  0  0  0  0
    3.5750  -12.0390  -26.5380 N   0  0  0  0  0  0  0  0  0  0  0  0
    4.1140  -12.0030  -27.7540 C   0  0  0  0  0  3  0  0  0  0  0  0
    4.2080  -10.9230  -28.5340 N   0  0  0  0  0  0  0  0  0  0  0  0
    3.8410   -9.7310  -28.0100 C   0  0  0  0  0  0  0  0  0  0  0  0
    3.8730   -8.5390  -28.7610 C   0  0  0  0  0  0  0  0  0  0  0  0
    3.5800   -7.2940  -28.1720 C   0  0  0  0  0  3  0  0  0  0  0  0
    3.2160   -7.2140  -26.8360 C   0  0  0  0  0  3  0  0  0  0  0  0
    3.0910   -8.3860  -26.1040 C   0  0  0  0  0  3  0  0  0  0  0  0
    3.3640   -9.6460  -26.6890 C   0  0  0  0  0  0  0  0  0  0  0  0
    4.1360   -8.5110  -30.2360 C   0  0  0  0  0  0  0  0  0  0  0  0
    3.6400   -9.5290  -31.0000 N   0  0  0  0  0  0  0  0  0  0  0  0
    4.7320   -7.5840  -30.7650 O   0  0  0  0  0  0  0  0  0  0  0  0
    3.7870   -9.5080  -31.9990 H   0  0  0  0  0  0  0  0  0  0  0  0
    3.1730  -10.3230  -30.5740 H   0  0  0  0  0  0  0  0  0  0  0  0
  2  1  1  6  0  0  0
  2 18  1  0  0  0  0
  2  3  1  0  0  0  0
  3  4  1  0  0  0  0
  4  5  2  0  0  0  0
  6  5  1  0  0  0  0
  7  6  2  0  0  0  0
  8  3  2  0  0  0  0
  8  7  1  0  0  0  0
  9  7  1  0  0  0  0
  9 12  1  0  0  0  0
 10 11  2  0  0  0  0
 10  9  1  0  0  0  0
 13 10  1  1  0  0  0
 14 15  1  0  0  0  0
 14 13  1  0  0  0  0
 15 16  1  0  0  0  0
 15 13  1  0  0  0  0
 17 15  1  0  0  0  0
 18 19  1  0  0  0  0
 20 18  1  0  0  0  0
 21 20  1  0  0  0  0
 22 21  2  0  0  0  0
 23 24  2  0  0  0  0
 23 22  1  0  0  0  0
 24 29  1  0  0  0  0
 25 26  2  0  0  0  0
 25 24  1  0  0  0  0
 26 27  1  0  0  0  0
 27 28  2  0  0  0  0
 29 28  1  0  0  0  0
 29 20  2  0  0  0  0
 30 25  1  0  0  0  0
 31 34  1  0  0  0  0
 31 30  1  0  0  0  0
 32 30  2  0  0  0  0
 33 31  1  0  0  0  0
M  END
>  <minimizedAffinity>
-8.37405205

$$$$
