
 OpenBabel10152418133D

 34 37  0  0  1  0  0  0  0  0999 V2000
   -2.1920  -10.5420  -26.0250 C   0  0  0  0  0  1  0  0  0  0  0  0
   -1.2460  -11.5330  -25.3380 C   0  0  2  0  0  3  0  0  0  0  0  0
   -1.1000  -11.1580  -23.8630 C   0  0  0  0  0  0  0  0  0  0  0  0
   -0.6350  -12.0380  -22.8810 C   0  0  0  0  0  3  0  0  0  0  0  0
   -0.8300  -11.7470  -21.5350 C   0  0  0  0  0  3  0  0  0  0  0  0
   -1.3160  -10.5010  -21.1460 C   0  0  0  0  0  3  0  0  0  0  0  0
   -1.4890   -9.5000  -22.0860 C   0  0  0  0  0  0  0  0  0  0  0  0
   -1.4500   -9.8590  -23.4450 C   0  0  0  0  0  3  0  0  0  0  0  0
   -1.6220   -8.1320  -21.7990 N   0  0  0  0  0  0  0  0  0  0  0  0
   -1.5600   -6.9660  -22.5210 C   0  0  0  0  0  0  0  0  0  0  0  0
   -1.9140   -5.9350  -21.9480 O   0  0  0  0  0  0  0  0  0  0  0  0
   -1.9450   -7.9170  -20.8610 H   0  0  0  0  0  0  0  0  0  0  0  0
   -0.9600   -6.8460  -23.8610 C   0  0  1  0  0  3  0  0  0  0  0  0
   -0.8640   -5.6230  -24.7500 C   0  0  0  0  0  2  0  0  0  0  0  0
    0.2880   -6.0270  -23.9270 C   0  0  0  0  0  0  0  0  0  0  0  0
    0.6860   -5.1610  -22.9350 F   0  0  0  0  0  0  0  0  0  0  0  0
    1.4230   -6.4930  -24.5490 F   0  0  0  0  0  0  0  0  0  0  0  0
   -0.0200  -11.6520  -26.1480 N   0  0  0  0  0  0  0  0  0  0  0  0
   -0.1950  -11.7530  -27.1440 H   0  0  0  0  0  0  0  0  0  0  0  0
    1.1500  -10.9400  -26.0010 C   0  0  0  0  0  0  0  0  0  0  0  0
    2.1350  -11.7100  -25.5120 N   0  0  0  0  0  0  0  0  0  0  0  0
    3.3730  -11.2370  -25.6350 C   0  0  0  0  0  3  0  0  0  0  0  0
    3.7150  -10.0930  -26.2350 N   0  0  0  0  0  0  0  0  0  0  0  0
    2.7210   -9.2740  -26.6480 C   0  0  0  0  0  0  0  0  0  0  0  0
    2.9760   -8.0620  -27.3180 C   0  0  0  0  0  0  0  0  0  0  0  0
    1.9340   -7.1770  -27.6550 C   0  0  0  0  0  3  0  0  0  0  0  0
    0.6170   -7.4950  -27.3630 C   0  0  0  0  0  3  0  0  0  0  0  0
    0.3360   -8.7250  -26.7850 C   0  0  0  0  0  3  0  0  0  0  0  0
    1.3730   -9.6320  -26.4590 C   0  0  0  0  0  0  0  0  0  0  0  0
    4.3410   -7.6630  -27.7900 C   0  0  0  0  0  0  0  0  0  0  0  0
    4.9460   -8.4330  -28.7420 N   0  0  0  0  0  0  0  0  0  0  0  0
    4.8920   -6.6500  -27.3830 O   0  0  0  0  0  0  0  0  0  0  0  0
    5.8550   -8.1600  -29.0880 H   0  0  0  0  0  0  0  0  0  0  0  0
    4.5200   -9.2950  -29.0670 H   0  0  0  0  0  0  0  0  0  0  0  0
  2  1  1  6  0  0  0
  2  3  1  0  0  0  0
  3  8  2  0  0  0  0
  3  4  1  0  0  0  0
  4  5  2  0  0  0  0
  5  6  1  0  0  0  0
  7  9  1  0  0  0  0
  7  6  2  0  0  0  0
  8  7  1  0  0  0  0
  9 12  1  0  0  0  0
 10 11  2  0  0  0  0
 10  9  1  0  0  0  0
 13 10  1  1  0  0  0
 14 15  1  0  0  0  0
 14 13  1  0  0  0  0
 15 13  1  0  0  0  0
 15 16  1  0  0  0  0
 17 15  1  0  0  0  0
 18 20  1  0  0  0  0
 18  2  1  0  0  0  0
 19 18  1  0  0  0  0
 20 21  1  0  0  0  0
 22 21  2  0  0  0  0
 23 22  1  0  0  0  0
 24 29  1  0  0  0  0
 24 23  2  0  0  0  0
 25 24  1  0  0  0  0
 26 27  1  0  0  0  0
 26 25  2  0  0  0  0
 27 28  2  0  0  0  0
 28 29  1  0  0  0  0
 29 20  2  0  0  0  0
 30 32  2  0  0  0  0
 30 25  1  0  0  0  0
 31 30  1  0  0  0  0
 33 31  1  0  0  0  0
 34 31  1  0  0  0  0
M  END
>  <minimizedAffinity>
-6.96386766

$$$$
