
 OpenBabel11232420063D

 41 46  0  0  1  0  0  0  0  0999 V2000
   -0.9220    1.0980  -22.1430 C   0  0  0  0  0  0  0  0  0  0  0  0
   -0.2940    2.2450  -21.6400 C   0  0  0  0  0  3  0  0  0  0  0  0
   -0.6160    2.7140  -20.3680 C   0  0  0  0  0  3  0  0  0  0  0  0
   -1.5970    2.0620  -19.6220 C   0  0  0  0  0  0  0  0  0  0  0  0
   -2.2510    0.9300  -20.1310 C   0  0  0  0  0  0  0  0  0  0  0  0
   -1.9160    0.4480  -21.3970 C   0  0  0  0  0  3  0  0  0  0  0  0
   -3.2550    0.3110  -19.2890 C   0  0  0  0  0  0  0  0  0  0  0  0
   -3.9040   -0.8310  -19.4210 N   0  0  0  0  0  0  0  0  0  0  0  0
   -4.7440   -0.8890  -18.3340 C   0  0  0  0  0  0  0  0  0  0  0  0
   -4.5920    0.2160  -17.5060 C   0  0  0  0  0  0  0  0  0  0  0  0
   -3.6390    0.9640  -18.1500 N   0  0  0  0  0  0  0  0  0  0  0  0
   -3.1290    2.2750  -17.8010 C   0  0  0  0  0  2  0  0  0  0  0  0
   -1.8350    2.5530  -18.3640 O   0  0  0  0  0  0  0  0  0  0  0  0
   -5.2010    0.5580  -16.2270 C   0  0  0  0  0  0  0  0  0  0  0  0
   -5.4900   -0.4330  -15.2820 C   0  0  0  0  0  3  0  0  0  0  0  0
   -6.0660   -0.0870  -14.0580 C   0  0  0  0  0  3  0  0  0  0  0  0
   -6.3500    1.2470  -13.7690 C   0  0  0  0  0  3  0  0  0  0  0  0
   -6.0570    2.2410  -14.7020 C   0  0  0  0  0  3  0  0  0  0  0  0
   -5.4840    1.8970  -15.9260 C   0  0  0  0  0  3  0  0  0  0  0  0
   -5.6600   -1.9780  -18.0600 C   0  0  0  0  0  0  0  0  0  0  0  0
   -6.6900   -1.8090  -17.1350 C   0  0  0  0  0  3  0  0  0  0  0  0
   -7.4340   -2.9070  -16.6900 C   0  0  0  0  0  3  0  0  0  0  0  0
   -7.1880   -4.2230  -17.1440 C   0  0  0  0  0  0  0  0  0  0  0  0
   -6.1990   -4.3340  -18.1520 C   0  0  0  0  0  3  0  0  0  0  0  0
   -5.4490   -3.2380  -18.6070 C   0  0  0  0  0  3  0  0  0  0  0  0
   -7.8960   -5.5170  -16.5300 C   0  0  1  0  0  0  0  0  0  0  0  0
   -7.0760   -6.8220  -16.2750 C   0  0  0  0  0  2  0  0  0  0  0  0
   -7.9990   -7.0630  -15.0350 C   0  0  1  0  0  0  0  0  0  0  0  0
   -7.3300   -7.7070  -13.8370 C   0  0  0  0  0  1  0  0  0  0  0  0
   -8.1710   -5.5170  -14.9850 C   0  0  0  0  0  2  0  0  0  0  0  0
   -9.1440   -5.8460  -17.2760 N   0  0  0  0  0  4  0  0  0  0  0  0
   -9.8460   -5.1030  -17.2050 H   0  0  0  0  0  0  0  0  0  0  0  0
   -8.9600   -6.0470  -18.2650 H   0  0  0  0  0  0  0  0  0  0  0  0
   -9.5740   -6.7010  -16.8680 H   0  0  0  0  0  0  0  0  0  0  0  0
   -9.2350   -7.7500  -15.3760 O   0  0  0  0  0  0  0  0  0  0  0  0
   -9.5510   -8.1620  -14.5440 H   0  0  0  0  0  0  0  0  0  0  0  0
   -2.0810   -1.4690  -23.2750 C   0  0  0  0  0  1  0  0  0  0  0  0
   -1.0940   -0.6250  -23.9100 N   0  0  0  0  0  0  0  0  0  0  0  0
   -0.6030    0.5880  -23.4950 C   0  0  0  0  0  0  0  0  0  0  0  0
    0.0970    1.2620  -24.2430 O   0  0  0  0  0  0  0  0  0  0  0  0
   -0.7640   -0.8920  -24.8300 H   0  0  0  0  0  0  0  0  0  0  0  0
  1  2  2  0  0  0  0
  1  6  1  0  0  0  0
  2  3  1  0  0  0  0
  3  4  2  0  0  0  0
  4 13  1  0  0  0  0
  5  4  1  0  0  0  0
  5  7  1  0  0  0  0
  6  5  2  0  0  0  0
  7 11  1  0  0  0  0
  8  7  2  0  0  0  0
  8  9  1  0  0  0  0
  9 20  1  0  0  0  0
  9 10  2  0  0  0  0
 10 14  1  0  0  0  0
 11 12  1  0  0  0  0
 11 10  1  0  0  0  0
 13 12  1  0  0  0  0
 14 19  2  0  0  0  0
 14 15  1  0  0  0  0
 15 16  2  0  0  0  0
 16 17  1  0  0  0  0
 18 17  2  0  0  0  0
 19 18  1  0  0  0  0
 20 21  1  0  0  0  0
 21 22  2  0  0  0  0
 23 22  1  0  0  0  0
 23 26  1  0  0  0  0
 24 23  2  0  0  0  0
 25 24  1  0  0  0  0
 25 20  2  0  0  0  0
 26 31  1  6  0  0  0
 26 27  1  0  0  0  0
 26 30  1  0  0  0  0
 27 28  1  0  0  0  0
 28 30  1  0  0  0  0
 28 29  1  1  0  0  0
 31 32  1  0  0  0  0
 31 34  1  0  0  0  0
 33 31  1  0  0  0  0
 35 28  1  0  0  0  0
 35 36  1  0  0  0  0
 38 39  1  0  0  0  0
 38 37  1  0  0  0  0
 39  1  1  0  0  0  0
 40 39  2  0  0  0  0
 41 38  1  0  0  0  0
M  END
>  <minimizedAffinity>
69.876152

$$$$
