
 OpenBabel10152419173D

 39 42  0  0  0  0  0  0  0  0999 V2000
    8.1100   -9.7130   13.5980 C   0  0  0  0  0  0  0  0  0  0  0  0
    9.0840   -8.7120   13.6620 C   0  0  0  0  0  3  0  0  0  0  0  0
   10.4120   -9.0080   13.3590 C   0  0  0  0  0  3  0  0  0  0  0  0
   10.7850  -10.3080   13.0050 C   0  0  0  0  0  3  0  0  0  0  0  0
    9.8380  -11.3330   12.9760 C   0  0  0  0  0  0  0  0  0  0  0  0
    8.5010  -11.0210   13.2630 C   0  0  0  0  0  3  0  0  0  0  0  0
   10.1060  -12.6660   12.6150 N   0  0  0  0  0  0  0  0  0  0  0  0
    9.3330  -13.8000   12.5680 C   0  0  0  0  0  0  0  0  0  0  0  0
    9.8710  -14.9040   12.4630 O   0  0  0  0  0  0  0  0  0  0  0  0
   11.0660  -12.8770   12.3670 H   0  0  0  0  0  0  0  0  0  0  0  0
    7.8670  -13.7600   12.5920 C   0  0  0  0  0  0  0  0  0  0  0  0
    7.2120  -13.7010   13.8260 C   0  0  0  0  0  3  0  0  0  0  0  0
    5.8160  -13.7080   13.8710 C   0  0  0  0  0  3  0  0  0  0  0  0
    5.0620  -13.7880   12.6860 C   0  0  0  0  0  0  0  0  0  0  0  0
    5.7360  -13.8860   11.4570 C   0  0  0  0  0  3  0  0  0  0  0  0
    7.1300  -13.8780   11.4170 C   0  0  0  0  0  0  0  0  0  0  0  0
    7.7380  -13.9980   10.2290 F   0  0  0  0  0  0  0  0  0  0  0  0
    3.5530  -13.8210   12.7420 C   0  0  0  0  0  0  0  0  0  0  0  0
    3.0680  -13.2910   13.8970 F   0  0  0  0  0  0  0  0  0  0  0  0
    2.9740  -13.1180   11.7300 F   0  0  0  0  0  0  0  0  0  0  0  0
    3.0430  -15.0800   12.6610 F   0  0  0  0  0  0  0  0  0  0  0  0
    6.6650   -9.3930   13.9000 C   0  0  0  0  0  2  0  0  0  0  0  0
    5.4370  -10.9660    8.1310 C   0  0  0  0  0  0  0  0  0  0  0  0
    4.1980  -11.5970    8.3160 C   0  0  0  0  0  3  0  0  0  0  0  0
    3.6370  -11.6350    9.5820 C   0  0  0  0  0  3  0  0  0  0  0  0
    4.3190  -11.0440   10.6420 C   0  0  0  0  0  3  0  0  0  0  0  0
    5.5700  -10.3930   10.4520 C   0  0  0  0  0  0  0  0  0  0  0  0
    6.3080   -9.7790   11.4860 C   0  0  0  0  0  0  0  0  0  0  0  0
    5.8210   -9.7870   12.7900 N   0  0  0  0  0  0  0  0  0  0  0  0
    7.5060   -9.2140   11.2630 N   0  0  0  0  0  0  0  0  0  0  0  0
    7.9540   -9.2250   10.0070 C   0  0  0  0  0  3  0  0  0  0  0  0
    7.3260   -9.7470    8.9520 N   0  0  0  0  0  0  0  0  0  0  0  0
    6.1480  -10.3550    9.1710 C   0  0  0  0  0  0  0  0  0  0  0  0
    4.8400   -9.5650   12.8890 H   0  0  0  0  0  0  0  0  0  0  0  0
    6.5450   -9.8190    6.3340 N   0  0  0  0  0  0  0  0  0  0  0  0
    6.0050  -10.9970    6.7720 C   0  0  0  0  0  0  0  0  0  0  0  0
    5.9350  -11.9890    6.0610 O   0  0  0  0  0  0  0  0  0  0  0  0
    6.9390   -9.8050    5.4030 H   0  0  0  0  0  0  0  0  0  0  0  0
    6.6230   -8.9960    6.9130 H   0  0  0  0  0  0  0  0  0  0  0  0
  1  2  1  0  0  0  0
  1 22  1  0  0  0  0
  3  2  2  0  0  0  0
  4  3  1  0  0  0  0
  5  4  2  0  0  0  0
  5  6  1  0  0  0  0
  6  1  2  0  0  0  0
  7  5  1  0  0  0  0
  8 11  1  0  0  0  0
  8  7  1  0  0  0  0
  9  8  2  0  0  0  0
 10  7  1  0  0  0  0
 11 12  1  0  0  0  0
 12 13  2  0  0  0  0
 14 18  1  0  0  0  0
 14 13  1  0  0  0  0
 15 14  2  0  0  0  0
 16 15  1  0  0  0  0
 16 11  2  0  0  0  0
 17 16  1  0  0  0  0
 18 19  1  0  0  0  0
 20 18  1  0  0  0  0
 21 18  1  0  0  0  0
 23 24  2  0  0  0  0
 23 33  1  0  0  0  0
 24 25  1  0  0  0  0
 25 26  2  0  0  0  0
 27 26  1  0  0  0  0
 27 28  1  0  0  0  0
 28 29  1  0  0  0  0
 29 34  1  0  0  0  0
 29 22  1  0  0  0  0
 30 28  2  0  0  0  0
 31 30  1  0  0  0  0
 32 33  1  0  0  0  0
 32 31  2  0  0  0  0
 33 27  2  0  0  0  0
 35 36  1  0  0  0  0
 35 39  1  0  0  0  0
 36 23  1  0  0  0  0
 37 36  2  0  0  0  0
 38 35  1  0  0  0  0
M  END
>  <minimizedAffinity>
21.4778805

$$$$
