
 OpenBabel10152418163D

 32 35  0  0  1  0  0  0  0  0999 V2000
    2.2850  -10.5860  -25.6590 C   0  0  2  0  0  0  0  0  0  0  0  0
    1.8900  -10.9710  -24.2200 C   0  0  0  0  0  2  0  0  0  0  0  0
    0.7920  -12.0320  -24.0890 C   0  0  0  0  0  2  0  0  0  0  0  0
   -0.4170  -11.8290  -25.0060 C   0  0  2  0  0  3  0  0  0  0  0  0
   -0.0250  -11.4670  -26.4400 C   0  0  0  0  0  2  0  0  0  0  0  0
    1.0400  -10.3780  -26.5560 C   0  0  0  0  0  2  0  0  0  0  0  0
    4.1850  -12.0380  -25.8030 O   0  0  0  0  0  1  0  0  0  0  0  0
    3.1370  -11.6540  -26.4000 C   0  0  0  0  0  0  0  0  0  0  0  0
    2.7010  -12.0350  -27.5210 O   0  0  0  0  0  0  0  0  0  0  0  0
    3.0860   -9.2480  -25.6490 C   0  0  0  0  0  2  0  0  0  0  0  0
    3.0880   -8.4360  -26.9280 C   0  0  0  0  0  0  0  0  0  0  0  0
    3.4920   -9.0060  -28.1280 C   0  0  0  0  0  3  0  0  0  0  0  0
    3.4900   -8.2250  -29.2730 C   0  0  0  0  0  3  0  0  0  0  0  0
    3.0540   -6.9090  -29.1910 C   0  0  0  0  0  3  0  0  0  0  0  0
    2.6080   -6.4000  -27.9690 C   0  0  0  0  0  0  0  0  0  0  0  0
    2.6400   -7.1490  -26.8480 N   0  0  0  0  0  0  0  0  0  0  0  0
    2.0620   -5.0990  -27.9790 N   0  0  0  0  0  0  0  0  0  0  0  0
    0.8990   -4.7150  -27.4120 C   0  0  0  0  0  0  0  0  0  0  0  0
    0.3970   -5.0830  -26.2520 N   0  0  0  0  0  0  0  0  0  0  0  0
   -0.8000   -4.4400  -26.0140 C   0  0  0  0  0  3  0  0  0  0  0  0
   -1.2120   -3.5650  -26.9900 C   0  0  0  0  0  3  0  0  0  0  0  0
   -0.0410   -3.5040  -28.2310 S   0  0  0  0  0  0  0  0  0  0  0  0
    2.3600   -4.5850  -28.7930 H   0  0  0  0  0  0  0  0  0  0  0  0
   -1.5120  -11.0510  -24.4630 O   0  0  0  0  0  0  0  0  0  0  0  0
   -1.5330  -10.8710  -23.1120 C   0  0  0  0  0  0  0  0  0  0  0  0
   -1.4960  -11.9870  -22.2760 C   0  0  0  0  0  3  0  0  0  0  0  0
   -1.4780  -11.8200  -20.8910 C   0  0  0  0  0  3  0  0  0  0  0  0
   -1.5500  -10.5410  -20.3400 C   0  0  0  0  0  3  0  0  0  0  0  0
   -1.6830   -9.4330  -21.1780 C   0  0  0  0  0  0  0  0  0  0  0  0
   -1.8130   -7.8620  -20.4810 Cl  0  0  0  0  0  0  0  0  0  0  0  0
   -1.7010   -9.6020  -22.5610 C   0  0  0  0  0  0  0  0  0  0  0  0
   -1.8530   -8.5390  -23.3680 F   0  0  0  0  0  0  0  0  0  0  0  0
  1 10  1  1  0  0  0
  1  2  1  0  0  0  0
  2  3  1  0  0  0  0
  4 24  1  1  0  0  0
  4  3  1  0  0  0  0
  5  4  1  0  0  0  0
  6  5  1  0  0  0  0
  6  1  1  0  0  0  0
  8  7  1  0  0  0  0
  8  1  1  0  0  0  0
  9  8  2  0  0  0  0
 11 16  1  0  0  0  0
 11 10  1  0  0  0  0
 12 11  2  0  0  0  0
 13 14  2  0  0  0  0
 13 12  1  0  0  0  0
 14 15  1  0  0  0  0
 15 16  2  0  0  0  0
 17 15  1  0  0  0  0
 17 18  1  0  0  0  0
 18 19  2  0  0  0  0
 19 20  1  0  0  0  0
 21 20  2  0  0  0  0
 22 18  1  0  0  0  0
 22 21  1  0  0  0  0
 23 17  1  0  0  0  0
 24 25  1  0  0  0  0
 25 31  2  0  0  0  0
 25 26  1  0  0  0  0
 26 27  2  0  0  0  0
 27 28  1  0  0  0  0
 29 30  1  0  0  0  0
 29 28  2  0  0  0  0
 31 29  1  0  0  0  0
 32 31  1  0  0  0  0
M  END
>  <minimizedAffinity>
-4.87154245

$$$$
