
 OpenBabel10152418163D

 32 35  0  0  1  0  0  0  0  0999 V2000
    1.5140   -6.1870  -27.8750 C   0  0  2  0  0  0  0  0  0  0  0  0
    2.3100   -7.0240  -26.8550 C   0  0  0  0  0  2  0  0  0  0  0  0
    3.7110   -7.4610  -27.2960 C   0  0  0  0  0  2  0  0  0  0  0  0
    3.7970   -8.0150  -28.7210 C   0  0  2  0  0  3  0  0  0  0  0  0
    3.0240   -7.1720  -29.7370 C   0  0  0  0  0  2  0  0  0  0  0  0
    1.6130   -6.7800  -29.3010 C   0  0  0  0  0  2  0  0  0  0  0  0
    1.2130   -3.9310  -28.6240 O   0  0  0  0  0  0  0  0  0  0  0  0
    1.9990   -4.7170  -28.0180 C   0  0  0  0  0  0  0  0  0  0  0  0
    3.1260   -4.4510  -27.5180 O   0  0  0  0  0  1  0  0  0  0  0  0
    0.0050   -6.1640  -27.4790 C   0  0  0  0  0  2  0  0  0  0  0  0
   -0.3290   -6.4160  -26.0230 C   0  0  0  0  0  0  0  0  0  0  0  0
   -0.2730   -5.3860  -25.0940 C   0  0  0  0  0  3  0  0  0  0  0  0
   -0.5750   -5.6620  -23.7700 C   0  0  0  0  0  3  0  0  0  0  0  0
   -0.9550   -6.9510  -23.4200 C   0  0  0  0  0  3  0  0  0  0  0  0
   -1.0460   -7.9390  -24.4030 C   0  0  0  0  0  0  0  0  0  0  0  0
   -0.7210   -7.6790  -25.6860 N   0  0  0  0  0  0  0  0  0  0  0  0
   -1.5570   -9.1920  -24.0040 N   0  0  0  0  0  0  0  0  0  0  0  0
   -1.6880   -9.6370  -22.7370 C   0  0  0  0  0  0  0  0  0  0  0  0
   -2.0800   -8.9660  -21.6740 N   0  0  0  0  0  0  0  0  0  0  0  0
   -2.1150   -9.7860  -20.5660 C   0  0  0  0  0  3  0  0  0  0  0  0
   -1.7570  -11.0960  -20.7810 C   0  0  0  0  0  3  0  0  0  0  0  0
   -1.4110  -11.3260  -22.4370 S   0  0  0  0  0  0  0  0  0  0  0  0
   -1.4040   -9.8910  -24.7150 H   0  0  0  0  0  0  0  0  0  0  0  0
    3.6250   -9.4460  -28.8650 O   0  0  0  0  0  0  0  0  0  0  0  0
    3.7010  -10.1960  -27.7290 C   0  0  0  0  0  0  0  0  0  0  0  0
    4.8630  -10.9220  -27.4690 C   0  0  0  0  0  3  0  0  0  0  0  0
    4.9720  -11.6640  -26.2930 C   0  0  0  0  0  3  0  0  0  0  0  0
    3.9010  -11.7250  -25.4020 C   0  0  0  0  0  3  0  0  0  0  0  0
    2.7060  -11.0750  -25.7120 C   0  0  0  0  0  0  0  0  0  0  0  0
    1.3770  -11.1920  -24.6210 Cl  0  0  0  0  0  0  0  0  0  0  0  0
    2.5990  -10.3340  -26.8880 C   0  0  0  0  0  0  0  0  0  0  0  0
    1.4410   -9.7280  -27.1980 F   0  0  0  0  0  0  0  0  0  0  0  0
  1 10  1  1  0  0  0
  1  2  1  0  0  0  0
  3  2  1  0  0  0  0
  4 24  1  1  0  0  0
  4  3  1  0  0  0  0
  5  6  1  0  0  0  0
  5  4  1  0  0  0  0
  6  1  1  0  0  0  0
  7  8  2  0  0  0  0
  8  1  1  0  0  0  0
  8  9  1  0  0  0  0
 10 11  1  0  0  0  0
 11 16  2  0  0  0  0
 11 12  1  0  0  0  0
 12 13  2  0  0  0  0
 13 14  1  0  0  0  0
 15 17  1  0  0  0  0
 15 14  2  0  0  0  0
 16 15  1  0  0  0  0
 17 18  1  0  0  0  0
 18 22  1  0  0  0  0
 18 19  2  0  0  0  0
 19 20  1  0  0  0  0
 21 20  2  0  0  0  0
 22 21  1  0  0  0  0
 23 17  1  0  0  0  0
 24 25  1  0  0  0  0
 25 26  2  0  0  0  0
 25 31  1  0  0  0  0
 26 27  1  0  0  0  0
 27 28  2  0  0  0  0
 29 28  1  0  0  0  0
 29 30  1  0  0  0  0
 31 29  2  0  0  0  0
 32 31  1  0  0  0  0
M  END
>  <minimizedAffinity>
-5.93172979

$$$$
