
 OpenBabel10152418163D

 32 35  0  0  1  0  0  0  0  0999 V2000
   -0.6870   -8.0280  -25.0480 C   0  0  2  0  0  0  0  0  0  0  0  0
   -1.7540   -9.0580  -24.6280 C   0  0  0  0  0  2  0  0  0  0  0  0
   -1.4190   -9.9020  -23.3950 C   0  0  0  0  0  2  0  0  0  0  0  0
    0.0030  -10.4680  -23.3640 C   0  0  2  0  0  3  0  0  0  0  0  0
    1.0640   -9.4390  -23.7590 C   0  0  0  0  0  2  0  0  0  0  0  0
    0.7360   -8.6350  -25.0170 C   0  0  0  0  0  2  0  0  0  0  0  0
    0.4650   -6.1050  -24.2010 O   0  0  0  0  0  0  0  0  0  0  0  0
   -0.6070   -6.7750  -24.1320 C   0  0  0  0  0  0  0  0  0  0  0  0
   -1.6170   -6.5480  -23.4100 O   0  0  0  0  0  1  0  0  0  0  0  0
   -0.9600   -7.5450  -26.5060 C   0  0  0  0  0  2  0  0  0  0  0  0
    0.0730   -6.6310  -27.1340 C   0  0  0  0  0  0  0  0  0  0  0  0
   -0.1570   -5.2660  -27.2340 C   0  0  0  0  0  3  0  0  0  0  0  0
    0.8080   -4.4670  -27.8260 C   0  0  0  0  0  3  0  0  0  0  0  0
    1.9880   -5.0510  -28.2710 C   0  0  0  0  0  3  0  0  0  0  0  0
    2.1910   -6.4230  -28.0990 C   0  0  0  0  0  0  0  0  0  0  0  0
    1.2380   -7.2060  -27.5520 N   0  0  0  0  0  0  0  0  0  0  0  0
    3.4560   -6.9310  -28.4580 N   0  0  0  0  0  0  0  0  0  0  0  0
    3.7150   -7.8030  -29.4560 C   0  0  0  0  0  0  0  0  0  0  0  0
    3.1860   -7.8430  -30.6600 N   0  0  0  0  0  0  0  0  0  0  0  0
    3.7400   -8.8660  -31.4010 C   0  0  0  0  0  3  0  0  0  0  0  0
    4.7060   -9.6090  -30.7650 C   0  0  0  0  0  3  0  0  0  0  0  0
    4.9710   -8.9770  -29.2010 S   0  0  0  0  0  0  0  0  0  0  0  0
    4.0780   -6.9540  -27.6650 H   0  0  0  0  0  0  0  0  0  0  0  0
    0.1840  -11.7810  -23.9470 O   0  0  0  0  0  0  0  0  0  0  0  0
    1.0100  -11.8690  -25.0290 C   0  0  0  0  0  0  0  0  0  0  0  0
    0.4540  -11.9860  -26.3020 C   0  0  0  0  0  3  0  0  0  0  0  0
    1.2840  -12.0390  -27.4220 C   0  0  0  0  0  3  0  0  0  0  0  0
    2.6700  -12.0280  -27.2680 C   0  0  0  0  0  3  0  0  0  0  0  0
    3.2230  -12.0070  -25.9870 C   0  0  0  0  0  0  0  0  0  0  0  0
    4.9360  -12.0350  -25.8100 Cl  0  0  0  0  0  0  0  0  0  0  0  0
    2.3920  -11.9550  -24.8690 C   0  0  0  0  0  0  0  0  0  0  0  0
    2.9230  -11.9580  -23.6350 F   0  0  0  0  0  0  0  0  0  0  0  0
  1 10  1  6  0  0  0
  1  6  1  0  0  0  0
  1  2  1  0  0  0  0
  1  8  1  0  0  0  0
  2  3  1  0  0  0  0
  3  4  1  0  0  0  0
  4 24  1  6  0  0  0
  5  4  1  0  0  0  0
  6  5  1  0  0  0  0
  7  8  2  0  0  0  0
  8  9  1  0  0  0  0
 11 10  1  0  0  0  0
 12 11  1  0  0  0  0
 13 12  2  0  0  0  0
 14 15  2  0  0  0  0
 14 13  1  0  0  0  0
 15 16  1  0  0  0  0
 16 11  2  0  0  0  0
 17 15  1  0  0  0  0
 17 23  1  0  0  0  0
 18 22  1  0  0  0  0
 18 17  1  0  0  0  0
 19 18  2  0  0  0  0
 20 21  2  0  0  0  0
 20 19  1  0  0  0  0
 21 22  1  0  0  0  0
 25 31  1  0  0  0  0
 25 24  1  0  0  0  0
 26 25  2  0  0  0  0
 27 28  2  0  0  0  0
 27 26  1  0  0  0  0
 28 29  1  0  0  0  0
 29 30  1  0  0  0  0
 29 31  2  0  0  0  0
 31 32  1  0  0  0  0
M  END
>  <minimizedAffinity>
-7.84972906

$$$$

 OpenBabel10152418163D

 32 35  0  0  1  0  0  0  0  0999 V2000
    0.5290   -5.9000  -27.2970 C   0  0  2  0  0  0  0  0  0  0  0  0
   -0.8710   -6.5430  -27.3640 C   0  0  0  0  0  2  0  0  0  0  0  0
   -1.7280   -6.4130  -26.1010 C   0  0  0  0  0  2  0  0  0  0  0  0
   -0.9960   -6.7080  -24.7890 C   0  0  2  0  0  3  0  0  0  0  0  0
    0.3840   -6.0520  -24.7140 C   0  0  0  0  0  2  0  0  0  0  0  0
    1.2440   -6.2270  -25.9650 C   0  0  0  0  0  2  0  0  0  0  0  0
   -0.4560   -3.7650  -26.8340 O   0  0  0  0  0  1  0  0  0  0  0  0
    0.5270   -4.3480  -27.3800 C   0  0  0  0  0  0  0  0  0  0  0  0
    1.5030   -3.8210  -27.9800 O   0  0  0  0  0  0  0  0  0  0  0  0
    1.4190   -6.4460  -28.4560 C   0  0  0  0  0  2  0  0  0  0  0  0
    2.6240   -7.2770  -28.0660 C   0  0  0  0  0  0  0  0  0  0  0  0
    3.9000   -6.9130  -28.4780 C   0  0  0  0  0  3  0  0  0  0  0  0
    4.9730   -7.7070  -28.1090 C   0  0  0  0  0  3  0  0  0  0  0  0
    4.7450   -8.8220  -27.3120 C   0  0  0  0  0  3  0  0  0  0  0  0
    3.4490   -9.1140  -26.8810 C   0  0  0  0  0  0  0  0  0  0  0  0
    2.3990   -8.3600  -27.2670 N   0  0  0  0  0  0  0  0  0  0  0  0
    3.3020  -10.1850  -25.9740 N   0  0  0  0  0  0  0  0  0  0  0  0
    2.1560  -10.8330  -25.6800 C   0  0  0  0  0  0  0  0  0  0  0  0
    1.1890  -11.1910  -26.4980 N   0  0  0  0  0  0  0  0  0  0  0  0
    0.1990  -11.8670  -25.8160 C   0  0  0  0  0  3  0  0  0  0  0  0
    0.4120  -12.0380  -24.4690 C   0  0  0  0  0  3  0  0  0  0  0  0
    1.9270  -11.3740  -24.0440 S   0  0  0  0  0  0  0  0  0  0  0  0
    3.9980  -10.1440  -25.2460 H   0  0  0  0  0  0  0  0  0  0  0  0
   -1.0410   -8.0790  -24.3230 O   0  0  0  0  0  0  0  0  0  0  0  0
   -1.4030   -8.2800  -23.0240 C   0  0  0  0  0  0  0  0  0  0  0  0
   -1.4420   -7.1920  -22.1530 C   0  0  0  0  0  3  0  0  0  0  0  0
   -1.8470   -7.3720  -20.8300 C   0  0  0  0  0  3  0  0  0  0  0  0
   -2.1620   -8.6470  -20.3630 C   0  0  0  0  0  3  0  0  0  0  0  0
   -2.0300   -9.7470  -21.2120 C   0  0  0  0  0  0  0  0  0  0  0  0
   -2.3830  -11.3220  -20.6080 Cl  0  0  0  0  0  0  0  0  0  0  0  0
   -1.6250   -9.5640  -22.5330 C   0  0  0  0  0  0  0  0  0  0  0  0
   -1.4750  -10.6250  -23.3430 F   0  0  0  0  0  0  0  0  0  0  0  0
  1 10  1  6  0  0  0
  1  6  1  0  0  0  0
  2  1  1  0  0  0  0
  2  3  1  0  0  0  0
  3  4  1  0  0  0  0
  4  5  1  0  0  0  0
  4 24  1  6  0  0  0
  6  5  1  0  0  0  0
  8  1  1  0  0  0  0
  8  7  1  0  0  0  0
  9  8  2  0  0  0  0
 10 11  1  0  0  0  0
 11 16  1  0  0  0  0
 12 13  1  0  0  0  0
 12 11  2  0  0  0  0
 13 14  2  0  0  0  0
 14 15  1  0  0  0  0
 15 17  1  0  0  0  0
 16 15  2  0  0  0  0
 17 18  1  0  0  0  0
 17 23  1  0  0  0  0
 18 22  1  0  0  0  0
 19 20  1  0  0  0  0
 19 18  2  0  0  0  0
 20 21  2  0  0  0  0
 21 22  1  0  0  0  0
 24 25  1  0  0  0  0
 25 31  2  0  0  0  0
 25 26  1  0  0  0  0
 26 27  2  0  0  0  0
 27 28  1  0  0  0  0
 29 30  1  0  0  0  0
 29 28  2  0  0  0  0
 31 29  1  0  0  0  0
 32 31  1  0  0  0  0
M  END
>  <minimizedAffinity>
-7.47630596

$$$$

 OpenBabel10152418163D

 32 35  0  0  1  0  0  0  0  0999 V2000
    2.1730  -10.2160  -25.5410 C   0  0  2  0  0  0  0  0  0  0  0  0
    1.5480  -10.0310  -24.1440 C   0  0  0  0  0  2  0  0  0  0  0  0
    0.3120  -10.8870  -23.8460 C   0  0  0  0  0  2  0  0  0  0  0  0
   -0.7300  -10.9310  -24.9660 C   0  0  2  0  0  3  0  0  0  0  0  0
   -0.1120  -11.1350  -26.3500 C   0  0  0  0  0  2  0  0  0  0  0  0
    1.0930  -10.2440  -26.6490 C   0  0  0  0  0  2  0  0  0  0  0  0
    3.0360  -11.9880  -26.9030 O   0  0  0  0  0  0  0  0  0  0  0  0
    2.9660  -11.5400  -25.7210 C   0  0  0  0  0  0  0  0  0  0  0  0
    3.4620  -12.0380  -24.6730 O   0  0  0  0  0  1  0  0  0  0  0  0
    3.1350   -9.0280  -25.8520 C   0  0  0  0  0  2  0  0  0  0  0  0
    2.7690   -8.1320  -27.0180 C   0  0  0  0  0  0  0  0  0  0  0  0
    3.4810   -8.1910  -28.2080 C   0  0  0  0  0  3  0  0  0  0  0  0
    3.1210   -7.3460  -29.2450 C   0  0  0  0  0  3  0  0  0  0  0  0
    2.0400   -6.4900  -29.0740 C   0  0  0  0  0  3  0  0  0  0  0  0
    1.3240   -6.5080  -27.8750 C   0  0  0  0  0  0  0  0  0  0  0  0
    1.6940   -7.3070  -26.8530 N   0  0  0  0  0  0  0  0  0  0  0  0
    0.1640   -5.7080  -27.8110 N   0  0  0  0  0  0  0  0  0  0  0  0
    0.1130   -4.3960  -27.4950 C   0  0  0  0  0  0  0  0  0  0  0  0
    0.9410   -3.4390  -27.8550 N   0  0  0  0  0  0  0  0  0  0  0  0
    0.5270   -2.2230  -27.3550 C   0  0  0  0  0  3  0  0  0  0  0  0
   -0.6320   -2.2450  -26.6160 C   0  0  0  0  0  3  0  0  0  0  0  0
   -1.2550   -3.8340  -26.5840 S   0  0  0  0  0  0  0  0  0  0  0  0
   -0.6470   -6.2590  -27.5820 H   0  0  0  0  0  0  0  0  0  0  0  0
   -1.7750   -9.9280  -24.9110 O   0  0  0  0  0  0  0  0  0  0  0  0
   -1.7030   -9.0150  -23.9010 C   0  0  0  0  0  0  0  0  0  0  0  0
   -2.2940   -9.3110  -22.6730 C   0  0  0  0  0  3  0  0  0  0  0  0
   -2.1970   -8.4050  -21.6170 C   0  0  0  0  0  3  0  0  0  0  0  0
   -1.5570   -7.1800  -21.8030 C   0  0  0  0  0  3  0  0  0  0  0  0
   -1.0520   -6.8480  -23.0600 C   0  0  0  0  0  0  0  0  0  0  0  0
   -0.3000   -5.3130  -23.2850 Cl  0  0  0  0  0  0  0  0  0  0  0  0
   -1.1500   -7.7550  -24.1140 C   0  0  0  0  0  0  0  0  0  0  0  0
   -0.6840   -7.4260  -25.3300 F   0  0  0  0  0  0  0  0  0  0  0  0
  1 10  1  6  0  0  0
  1  2  1  0  0  0  0
  2  3  1  0  0  0  0
  4 24  1  6  0  0  0
  4  3  1  0  0  0  0
  5  4  1  0  0  0  0
  6  5  1  0  0  0  0
  6  1  1  0  0  0  0
  7  8  2  0  0  0  0
  8  1  1  0  0  0  0
  8  9  1  0  0  0  0
 11 16  1  0  0  0  0
 11 10  1  0  0  0  0
 12 11  2  0  0  0  0
 13 14  2  0  0  0  0
 13 12  1  0  0  0  0
 14 15  1  0  0  0  0
 15 17  1  0  0  0  0
 15 16  2  0  0  0  0
 17 23  1  0  0  0  0
 17 18  1  0  0  0  0
 18 22  1  0  0  0  0
 19 18  2  0  0  0  0
 19 20  1  0  0  0  0
 20 21  2  0  0  0  0
 21 22  1  0  0  0  0
 24 25  1  0  0  0  0
 25 26  1  0  0  0  0
 26 27  2  0  0  0  0
 28 27  1  0  0  0  0
 29 28  2  0  0  0  0
 30 29  1  0  0  0  0
 31 25  2  0  0  0  0
 31 29  1  0  0  0  0
 32 31  1  0  0  0  0
M  END
>  <minimizedAffinity>
-7.38871908

$$$$

 OpenBabel10152418163D

 32 35  0  0  1  0  0  0  0  0999 V2000
   -0.7590   -9.9470  -24.6350 C   0  0  2  0  0  0  0  0  0  0  0  0
   -0.3670   -9.8960  -26.1250 C   0  0  0  0  0  2  0  0  0  0  0  0
    0.9340  -10.6130  -26.4990 C   0  0  0  0  0  2  0  0  0  0  0  0
    2.1140  -10.3440  -25.5610 C   0  0  2  0  0  3  0  0  0  0  0  0
    1.7290  -10.4160  -24.0820 C   0  0  0  0  0  2  0  0  0  0  0  0
    0.4520   -9.6600  -23.7170 C   0  0  0  0  0  2  0  0  0  0  0  0
   -1.8760  -12.0270  -25.0440 O   0  0  0  0  0  0  0  0  0  0  0  0
   -1.3040  -11.3230  -24.1610 C   0  0  0  0  0  0  0  0  0  0  0  0
   -1.1220  -11.6050  -22.9440 O   0  0  0  0  0  1  0  0  0  0  0  0
   -1.8440   -8.8670  -24.3350 C   0  0  0  0  0  2  0  0  0  0  0  0
   -1.3600   -7.4480  -24.1160 C   0  0  0  0  0  0  0  0  0  0  0  0
   -0.9700   -7.0190  -22.8550 C   0  0  0  0  0  3  0  0  0  0  0  0
   -0.5450   -5.7090  -22.6950 C   0  0  0  0  0  3  0  0  0  0  0  0
   -0.4910   -4.8780  -23.8060 C   0  0  0  0  0  3  0  0  0  0  0  0
   -0.8450   -5.3750  -25.0630 C   0  0  0  0  0  0  0  0  0  0  0  0
   -1.2900   -6.6390  -25.2140 N   0  0  0  0  0  0  0  0  0  0  0  0
   -0.6500   -4.5190  -26.1670 N   0  0  0  0  0  0  0  0  0  0  0  0
    0.1160   -4.7700  -27.2500 C   0  0  0  0  0  0  0  0  0  0  0  0
    0.2520   -5.9020  -27.9070 N   0  0  0  0  0  0  0  0  0  0  0  0
    1.1030   -5.7430  -28.9800 C   0  0  0  0  0  3  0  0  0  0  0  0
    1.6160   -4.4790  -29.1540 C   0  0  0  0  0  3  0  0  0  0  0  0
    0.9740   -3.4370  -27.9630 S   0  0  0  0  0  0  0  0  0  0  0  0
   -0.7550   -3.5520  -25.9020 H   0  0  0  0  0  0  0  0  0  0  0  0
    2.9720   -9.2300  -25.9110 O   0  0  0  0  0  0  0  0  0  0  0  0
    3.6320   -9.3080  -27.1010 C   0  0  0  0  0  0  0  0  0  0  0  0
    4.2530  -10.5040  -27.4580 C   0  0  0  0  0  3  0  0  0  0  0  0
    4.9010  -10.6140  -28.6890 C   0  0  0  0  0  3  0  0  0  0  0  0
    4.9740   -9.5120  -29.5410 C   0  0  0  0  0  3  0  0  0  0  0  0
    4.4340   -8.2900  -29.1390 C   0  0  0  0  0  0  0  0  0  0  0  0
    4.5670   -6.9270  -30.1850 Cl  0  0  0  0  0  0  0  0  0  0  0  0
    3.7880   -8.1830  -27.9090 C   0  0  0  0  0  0  0  0  0  0  0  0
    3.2880   -7.0010  -27.5110 F   0  0  0  0  0  0  0  0  0  0  0  0
  1 10  1  1  0  0  0
  1  8  1  0  0  0  0
  1  6  1  0  0  0  0
  2  1  1  0  0  0  0
  3  2  1  0  0  0  0
  3  4  1  0  0  0  0
  4 24  1  6  0  0  0
  4  5  1  0  0  0  0
  5  6  1  0  0  0  0
  7  8  2  0  0  0  0
  8  9  1  0  0  0  0
 10 11  1  0  0  0  0
 11 12  1  0  0  0  0
 12 13  2  0  0  0  0
 14 13  1  0  0  0  0
 15 14  2  0  0  0  0
 16 15  1  0  0  0  0
 16 11  2  0  0  0  0
 17 23  1  0  0  0  0
 17 15  1  0  0  0  0
 18 17  1  0  0  0  0
 19 18  2  0  0  0  0
 20 19  1  0  0  0  0
 21 20  2  0  0  0  0
 21 22  1  0  0  0  0
 22 18  1  0  0  0  0
 25 24  1  0  0  0  0
 26 25  1  0  0  0  0
 27 26  2  0  0  0  0
 28 29  2  0  0  0  0
 28 27  1  0  0  0  0
 29 31  1  0  0  0  0
 30 29  1  0  0  0  0
 31 32  1  0  0  0  0
 31 25  2  0  0  0  0
M  END
>  <minimizedAffinity>
-6.6819334

$$$$

 OpenBabel10152418163D

 32 35  0  0  1  0  0  0  0  0999 V2000
    0.1000  -10.2850  -26.1520 C   0  0  2  0  0  0  0  0  0  0  0  0
    0.8830  -11.0080  -27.2650 C   0  0  0  0  0  2  0  0  0  0  0  0
    1.9150  -12.0390  -26.7960 C   0  0  0  0  0  2  0  0  0  0  0  0
    2.8060  -11.5810  -25.6390 C   0  0  2  0  0  3  0  0  0  0  0  0
    2.0260  -10.8820  -24.5240 C   0  0  0  0  0  2  0  0  0  0  0  0
    1.0320   -9.8270  -25.0050 C   0  0  0  0  0  2  0  0  0  0  0  0
   -0.5620  -12.0380  -24.6590 O   0  0  0  0  0  1  0  0  0  0  0  0
   -0.9870  -11.1560  -25.4610 C   0  0  0  0  0  0  0  0  0  0  0  0
   -2.1840  -10.8980  -25.7650 O   0  0  0  0  0  0  0  0  0  0  0  0
   -0.5940   -9.0130  -26.7310 C   0  0  0  0  0  2  0  0  0  0  0  0
   -0.5450   -7.7570  -25.8870 C   0  0  0  0  0  0  0  0  0  0  0  0
   -0.3650   -6.5130  -26.4770 C   0  0  0  0  0  3  0  0  0  0  0  0
   -0.3130   -5.3890  -25.6670 C   0  0  0  0  0  3  0  0  0  0  0  0
   -0.4760   -5.5390  -24.2960 C   0  0  0  0  0  3  0  0  0  0  0  0
   -0.7080   -6.8070  -23.7580 C   0  0  0  0  0  0  0  0  0  0  0  0
   -0.7250   -7.9050  -24.5420 N   0  0  0  0  0  0  0  0  0  0  0  0
   -0.9890   -6.8750  -22.3780 N   0  0  0  0  0  0  0  0  0  0  0  0
   -1.3670   -7.9730  -21.6900 C   0  0  0  0  0  0  0  0  0  0  0  0
   -0.9260   -9.2070  -21.8180 N   0  0  0  0  0  0  0  0  0  0  0  0
   -1.5400  -10.0400  -20.9070 C   0  0  0  0  0  3  0  0  0  0  0  0
   -2.4500   -9.4410  -20.0680 C   0  0  0  0  0  3  0  0  0  0  0  0
   -2.5070   -7.7660  -20.3940 S   0  0  0  0  0  0  0  0  0  0  0  0
   -1.3160   -5.9880  -22.0280 H   0  0  0  0  0  0  0  0  0  0  0  0
    4.0510  -10.9360  -26.0040 O   0  0  0  0  0  0  0  0  0  0  0  0
    4.0860  -10.2930  -27.2050 C   0  0  0  0  0  0  0  0  0  0  0  0
    4.6350  -10.9440  -28.3100 C   0  0  0  0  0  3  0  0  0  0  0  0
    4.6450  -10.3150  -29.5550 C   0  0  0  0  0  3  0  0  0  0  0  0
    4.1540   -9.0170  -29.6870 C   0  0  0  0  0  3  0  0  0  0  0  0
    3.6930   -8.3340  -28.5610 C   0  0  0  0  0  0  0  0  0  0  0  0
    3.1280   -6.7150  -28.7320 Cl  0  0  0  0  0  0  0  0  0  0  0  0
    3.6850   -8.9630  -27.3180 C   0  0  0  0  0  0  0  0  0  0  0  0
    3.2640   -8.2980  -26.2290 F   0  0  0  0  0  0  0  0  0  0  0  0
  1 10  1  6  0  0  0
  1  8  1  0  0  0  0
  1  6  1  0  0  0  0
  2  3  1  0  0  0  0
  2  1  1  0  0  0  0
  3  4  1  0  0  0  0
  4 24  1  6  0  0  0
  4  5  1  0  0  0  0
  6  5  1  0  0  0  0
  8  7  1  0  0  0  0
  9  8  2  0  0  0  0
 10 11  1  0  0  0  0
 11 16  1  0  0  0  0
 12 11  2  0  0  0  0
 12 13  1  0  0  0  0
 13 14  2  0  0  0  0
 14 15  1  0  0  0  0
 15 17  1  0  0  0  0
 16 15  2  0  0  0  0
 17 23  1  0  0  0  0
 17 18  1  0  0  0  0
 18 22  1  0  0  0  0
 19 18  2  0  0  0  0
 19 20  1  0  0  0  0
 20 21  2  0  0  0  0
 22 21  1  0  0  0  0
 25 24  1  0  0  0  0
 26 25  2  0  0  0  0
 27 26  1  0  0  0  0
 28 27  2  0  0  0  0
 28 29  1  0  0  0  0
 29 31  2  0  0  0  0
 30 29  1  0  0  0  0
 31 25  1  0  0  0  0
 31 32  1  0  0  0  0
M  END
>  <minimizedAffinity>
-6.07088327

$$$$

 OpenBabel10152418163D

 32 35  0  0  1  0  0  0  0  0999 V2000
    1.5140   -6.1870  -27.8750 C   0  0  2  0  0  0  0  0  0  0  0  0
    2.3100   -7.0240  -26.8550 C   0  0  0  0  0  2  0  0  0  0  0  0
    3.7110   -7.4610  -27.2960 C   0  0  0  0  0  2  0  0  0  0  0  0
    3.7970   -8.0150  -28.7210 C   0  0  2  0  0  3  0  0  0  0  0  0
    3.0240   -7.1720  -29.7370 C   0  0  0  0  0  2  0  0  0  0  0  0
    1.6130   -6.7800  -29.3010 C   0  0  0  0  0  2  0  0  0  0  0  0
    1.2130   -3.9310  -28.6240 O   0  0  0  0  0  0  0  0  0  0  0  0
    1.9990   -4.7170  -28.0180 C   0  0  0  0  0  0  0  0  0  0  0  0
    3.1260   -4.4510  -27.5180 O   0  0  0  0  0  1  0  0  0  0  0  0
    0.0050   -6.1640  -27.4790 C   0  0  0  0  0  2  0  0  0  0  0  0
   -0.3290   -6.4160  -26.0230 C   0  0  0  0  0  0  0  0  0  0  0  0
   -0.2730   -5.3860  -25.0940 C   0  0  0  0  0  3  0  0  0  0  0  0
   -0.5750   -5.6620  -23.7700 C   0  0  0  0  0  3  0  0  0  0  0  0
   -0.9550   -6.9510  -23.4200 C   0  0  0  0  0  3  0  0  0  0  0  0
   -1.0460   -7.9390  -24.4030 C   0  0  0  0  0  0  0  0  0  0  0  0
   -0.7210   -7.6790  -25.6860 N   0  0  0  0  0  0  0  0  0  0  0  0
   -1.5570   -9.1920  -24.0040 N   0  0  0  0  0  0  0  0  0  0  0  0
   -1.6880   -9.6370  -22.7370 C   0  0  0  0  0  0  0  0  0  0  0  0
   -2.0800   -8.9660  -21.6740 N   0  0  0  0  0  0  0  0  0  0  0  0
   -2.1150   -9.7860  -20.5660 C   0  0  0  0  0  3  0  0  0  0  0  0
   -1.7570  -11.0960  -20.7810 C   0  0  0  0  0  3  0  0  0  0  0  0
   -1.4110  -11.3260  -22.4370 S   0  0  0  0  0  0  0  0  0  0  0  0
   -1.4040   -9.8910  -24.7150 H   0  0  0  0  0  0  0  0  0  0  0  0
    3.6250   -9.4460  -28.8650 O   0  0  0  0  0  0  0  0  0  0  0  0
    3.7010  -10.1960  -27.7290 C   0  0  0  0  0  0  0  0  0  0  0  0
    4.8630  -10.9220  -27.4690 C   0  0  0  0  0  3  0  0  0  0  0  0
    4.9720  -11.6640  -26.2930 C   0  0  0  0  0  3  0  0  0  0  0  0
    3.9010  -11.7250  -25.4020 C   0  0  0  0  0  3  0  0  0  0  0  0
    2.7060  -11.0750  -25.7120 C   0  0  0  0  0  0  0  0  0  0  0  0
    1.3770  -11.1920  -24.6210 Cl  0  0  0  0  0  0  0  0  0  0  0  0
    2.5990  -10.3340  -26.8880 C   0  0  0  0  0  0  0  0  0  0  0  0
    1.4410   -9.7280  -27.1980 F   0  0  0  0  0  0  0  0  0  0  0  0
  1 10  1  1  0  0  0
  1  2  1  0  0  0  0
  3  2  1  0  0  0  0
  4 24  1  1  0  0  0
  4  3  1  0  0  0  0
  5  6  1  0  0  0  0
  5  4  1  0  0  0  0
  6  1  1  0  0  0  0
  7  8  2  0  0  0  0
  8  1  1  0  0  0  0
  8  9  1  0  0  0  0
 10 11  1  0  0  0  0
 11 16  2  0  0  0  0
 11 12  1  0  0  0  0
 12 13  2  0  0  0  0
 13 14  1  0  0  0  0
 15 17  1  0  0  0  0
 15 14  2  0  0  0  0
 16 15  1  0  0  0  0
 17 18  1  0  0  0  0
 18 22  1  0  0  0  0
 18 19  2  0  0  0  0
 19 20  1  0  0  0  0
 21 20  2  0  0  0  0
 22 21  1  0  0  0  0
 23 17  1  0  0  0  0
 24 25  1  0  0  0  0
 25 26  2  0  0  0  0
 25 31  1  0  0  0  0
 26 27  1  0  0  0  0
 27 28  2  0  0  0  0
 29 28  1  0  0  0  0
 29 30  1  0  0  0  0
 31 29  2  0  0  0  0
 32 31  1  0  0  0  0
M  END
>  <minimizedAffinity>
-5.93172979

$$$$

 OpenBabel10152418163D

 32 35  0  0  1  0  0  0  0  0999 V2000
    3.1110  -10.6350  -26.3990 C   0  0  2  0  0  0  0  0  0  0  0  0
    3.4440  -11.2380  -25.0200 C   0  0  0  0  0  2  0  0  0  0  0  0
    2.3220  -12.0390  -24.3510 C   0  0  0  0  0  2  0  0  0  0  0  0
    0.9410  -11.3810  -24.3980 C   0  0  2  0  0  3  0  0  0  0  0  0
    0.6010  -10.8010  -25.7730 C   0  0  0  0  0  2  0  0  0  0  0  0
    1.7140   -9.9690  -26.4080 C   0  0  0  0  0  2  0  0  0  0  0  0
    4.1910  -12.0390  -28.0130 O   0  0  0  0  0  0  0  0  0  0  0  0
    3.0680  -11.6690  -27.5590 C   0  0  0  0  0  0  0  0  0  0  0  0
    1.9220  -12.0390  -27.9340 O   0  0  0  0  0  1  0  0  0  0  0  0
    4.1570   -9.5380  -26.7650 C   0  0  0  0  0  2  0  0  0  0  0  0
    3.6960   -8.4250  -27.6840 C   0  0  0  0  0  0  0  0  0  0  0  0
    4.4250   -8.0940  -28.8190 C   0  0  0  0  0  3  0  0  0  0  0  0
    3.9750   -7.0620  -29.6260 C   0  0  0  0  0  3  0  0  0  0  0  0
    2.7920   -6.4130  -29.2930 C   0  0  0  0  0  3  0  0  0  0  0  0
    2.0690   -6.8200  -28.1700 C   0  0  0  0  0  0  0  0  0  0  0  0
    2.5240   -7.8030  -27.3650 N   0  0  0  0  0  0  0  0  0  0  0  0
    0.8170   -6.2060  -27.9580 N   0  0  0  0  0  0  0  0  0  0  0  0
    0.6000   -4.8990  -27.6970 C   0  0  0  0  0  0  0  0  0  0  0  0
    1.1980   -3.8520  -28.2260 N   0  0  0  0  0  0  0  0  0  0  0  0
    0.6690   -2.6830  -27.7200 C   0  0  0  0  0  3  0  0  0  0  0  0
   -0.3470   -2.8330  -26.8070 C   0  0  0  0  0  3  0  0  0  0  0  0
   -0.6900   -4.4940  -26.6060 S   0  0  0  0  0  0  0  0  0  0  0  0
    0.1490   -6.8590  -27.5800 H   0  0  0  0  0  0  0  0  0  0  0  0
    0.5980  -10.5260  -23.2790 O   0  0  0  0  0  0  0  0  0  0  0  0
   -0.1350   -9.4100  -23.5550 C   0  0  0  0  0  0  0  0  0  0  0  0
    0.4990   -8.3040  -24.1200 C   0  0  0  0  0  3  0  0  0  0  0  0
   -0.2420   -7.1670  -24.4440 C   0  0  0  0  0  3  0  0  0  0  0  0
   -1.6060   -7.1140  -24.1540 C   0  0  0  0  0  3  0  0  0  0  0  0
   -2.2150   -8.1860  -23.5010 C   0  0  0  0  0  0  0  0  0  0  0  0
   -3.8910   -8.0900  -23.1130 Cl  0  0  0  0  0  0  0  0  0  0  0  0
   -1.4730   -9.3210  -23.1790 C   0  0  0  0  0  0  0  0  0  0  0  0
   -2.0540  -10.3430  -22.5290 F   0  0  0  0  0  0  0  0  0  0  0  0
  1 10  1  6  0  0  0
  1  2  1  0  0  0  0
  2  3  1  0  0  0  0
  4  3  1  0  0  0  0
  4 24  1  1  0  0  0
  5  4  1  0  0  0  0
  6  1  1  0  0  0  0
  6  5  1  0  0  0  0
  7  8  2  0  0  0  0
  8  1  1  0  0  0  0
  9  8  1  0  0  0  0
 11 16  1  0  0  0  0
 11 10  1  0  0  0  0
 12 11  2  0  0  0  0
 13 14  2  0  0  0  0
 13 12  1  0  0  0  0
 14 15  1  0  0  0  0
 15 17  1  0  0  0  0
 15 16  2  0  0  0  0
 17 18  1  0  0  0  0
 17 23  1  0  0  0  0
 18 22  1  0  0  0  0
 19 20  1  0  0  0  0
 19 18  2  0  0  0  0
 20 21  2  0  0  0  0
 21 22  1  0  0  0  0
 25 24  1  0  0  0  0
 25 31  1  0  0  0  0
 26 25  2  0  0  0  0
 27 28  2  0  0  0  0
 27 26  1  0  0  0  0
 28 29  1  0  0  0  0
 29 31  2  0  0  0  0
 29 30  1  0  0  0  0
 31 32  1  0  0  0  0
M  END
>  <minimizedAffinity>
-5.04068232

$$$$

 OpenBabel10152418163D

 32 35  0  0  1  0  0  0  0  0999 V2000
    2.2850  -10.5860  -25.6590 C   0  0  2  0  0  0  0  0  0  0  0  0
    1.8900  -10.9710  -24.2200 C   0  0  0  0  0  2  0  0  0  0  0  0
    0.7920  -12.0320  -24.0890 C   0  0  0  0  0  2  0  0  0  0  0  0
   -0.4170  -11.8290  -25.0060 C   0  0  2  0  0  3  0  0  0  0  0  0
   -0.0250  -11.4670  -26.4400 C   0  0  0  0  0  2  0  0  0  0  0  0
    1.0400  -10.3780  -26.5560 C   0  0  0  0  0  2  0  0  0  0  0  0
    4.1850  -12.0380  -25.8030 O   0  0  0  0  0  1  0  0  0  0  0  0
    3.1370  -11.6540  -26.4000 C   0  0  0  0  0  0  0  0  0  0  0  0
    2.7010  -12.0350  -27.5210 O   0  0  0  0  0  0  0  0  0  0  0  0
    3.0860   -9.2480  -25.6490 C   0  0  0  0  0  2  0  0  0  0  0  0
    3.0880   -8.4360  -26.9280 C   0  0  0  0  0  0  0  0  0  0  0  0
    3.4920   -9.0060  -28.1280 C   0  0  0  0  0  3  0  0  0  0  0  0
    3.4900   -8.2250  -29.2730 C   0  0  0  0  0  3  0  0  0  0  0  0
    3.0540   -6.9090  -29.1910 C   0  0  0  0  0  3  0  0  0  0  0  0
    2.6080   -6.4000  -27.9690 C   0  0  0  0  0  0  0  0  0  0  0  0
    2.6400   -7.1490  -26.8480 N   0  0  0  0  0  0  0  0  0  0  0  0
    2.0620   -5.0990  -27.9790 N   0  0  0  0  0  0  0  0  0  0  0  0
    0.8990   -4.7150  -27.4120 C   0  0  0  0  0  0  0  0  0  0  0  0
    0.3970   -5.0830  -26.2520 N   0  0  0  0  0  0  0  0  0  0  0  0
   -0.8000   -4.4400  -26.0140 C   0  0  0  0  0  3  0  0  0  0  0  0
   -1.2120   -3.5650  -26.9900 C   0  0  0  0  0  3  0  0  0  0  0  0
   -0.0410   -3.5040  -28.2310 S   0  0  0  0  0  0  0  0  0  0  0  0
    2.3600   -4.5850  -28.7930 H   0  0  0  0  0  0  0  0  0  0  0  0
   -1.5120  -11.0510  -24.4630 O   0  0  0  0  0  0  0  0  0  0  0  0
   -1.5330  -10.8710  -23.1120 C   0  0  0  0  0  0  0  0  0  0  0  0
   -1.4960  -11.9870  -22.2760 C   0  0  0  0  0  3  0  0  0  0  0  0
   -1.4780  -11.8200  -20.8910 C   0  0  0  0  0  3  0  0  0  0  0  0
   -1.5500  -10.5410  -20.3400 C   0  0  0  0  0  3  0  0  0  0  0  0
   -1.6830   -9.4330  -21.1780 C   0  0  0  0  0  0  0  0  0  0  0  0
   -1.8130   -7.8620  -20.4810 Cl  0  0  0  0  0  0  0  0  0  0  0  0
   -1.7010   -9.6020  -22.5610 C   0  0  0  0  0  0  0  0  0  0  0  0
   -1.8530   -8.5390  -23.3680 F   0  0  0  0  0  0  0  0  0  0  0  0
  1 10  1  1  0  0  0
  1  2  1  0  0  0  0
  2  3  1  0  0  0  0
  4 24  1  1  0  0  0
  4  3  1  0  0  0  0
  5  4  1  0  0  0  0
  6  5  1  0  0  0  0
  6  1  1  0  0  0  0
  8  7  1  0  0  0  0
  8  1  1  0  0  0  0
  9  8  2  0  0  0  0
 11 16  1  0  0  0  0
 11 10  1  0  0  0  0
 12 11  2  0  0  0  0
 13 14  2  0  0  0  0
 13 12  1  0  0  0  0
 14 15  1  0  0  0  0
 15 16  2  0  0  0  0
 17 15  1  0  0  0  0
 17 18  1  0  0  0  0
 18 19  2  0  0  0  0
 19 20  1  0  0  0  0
 21 20  2  0  0  0  0
 22 18  1  0  0  0  0
 22 21  1  0  0  0  0
 23 17  1  0  0  0  0
 24 25  1  0  0  0  0
 25 31  2  0  0  0  0
 25 26  1  0  0  0  0
 26 27  2  0  0  0  0
 27 28  1  0  0  0  0
 29 30  1  0  0  0  0
 29 28  2  0  0  0  0
 31 29  1  0  0  0  0
 32 31  1  0  0  0  0
M  END
>  <minimizedAffinity>
-4.87154245

$$$$
