
 OpenBabel10152418163D

 32 35  0  0  1  0  0  0  0  0999 V2000
   -0.7590   -9.9470  -24.6350 C   0  0  2  0  0  0  0  0  0  0  0  0
   -0.3670   -9.8960  -26.1250 C   0  0  0  0  0  2  0  0  0  0  0  0
    0.9340  -10.6130  -26.4990 C   0  0  0  0  0  2  0  0  0  0  0  0
    2.1140  -10.3440  -25.5610 C   0  0  2  0  0  3  0  0  0  0  0  0
    1.7290  -10.4160  -24.0820 C   0  0  0  0  0  2  0  0  0  0  0  0
    0.4520   -9.6600  -23.7170 C   0  0  0  0  0  2  0  0  0  0  0  0
   -1.8760  -12.0270  -25.0440 O   0  0  0  0  0  0  0  0  0  0  0  0
   -1.3040  -11.3230  -24.1610 C   0  0  0  0  0  0  0  0  0  0  0  0
   -1.1220  -11.6050  -22.9440 O   0  0  0  0  0  1  0  0  0  0  0  0
   -1.8440   -8.8670  -24.3350 C   0  0  0  0  0  2  0  0  0  0  0  0
   -1.3600   -7.4480  -24.1160 C   0  0  0  0  0  0  0  0  0  0  0  0
   -0.9700   -7.0190  -22.8550 C   0  0  0  0  0  3  0  0  0  0  0  0
   -0.5450   -5.7090  -22.6950 C   0  0  0  0  0  3  0  0  0  0  0  0
   -0.4910   -4.8780  -23.8060 C   0  0  0  0  0  3  0  0  0  0  0  0
   -0.8450   -5.3750  -25.0630 C   0  0  0  0  0  0  0  0  0  0  0  0
   -1.2900   -6.6390  -25.2140 N   0  0  0  0  0  0  0  0  0  0  0  0
   -0.6500   -4.5190  -26.1670 N   0  0  0  0  0  0  0  0  0  0  0  0
    0.1160   -4.7700  -27.2500 C   0  0  0  0  0  0  0  0  0  0  0  0
    0.2520   -5.9020  -27.9070 N   0  0  0  0  0  0  0  0  0  0  0  0
    1.1030   -5.7430  -28.9800 C   0  0  0  0  0  3  0  0  0  0  0  0
    1.6160   -4.4790  -29.1540 C   0  0  0  0  0  3  0  0  0  0  0  0
    0.9740   -3.4370  -27.9630 S   0  0  0  0  0  0  0  0  0  0  0  0
   -0.7550   -3.5520  -25.9020 H   0  0  0  0  0  0  0  0  0  0  0  0
    2.9720   -9.2300  -25.9110 O   0  0  0  0  0  0  0  0  0  0  0  0
    3.6320   -9.3080  -27.1010 C   0  0  0  0  0  0  0  0  0  0  0  0
    4.2530  -10.5040  -27.4580 C   0  0  0  0  0  3  0  0  0  0  0  0
    4.9010  -10.6140  -28.6890 C   0  0  0  0  0  3  0  0  0  0  0  0
    4.9740   -9.5120  -29.5410 C   0  0  0  0  0  3  0  0  0  0  0  0
    4.4340   -8.2900  -29.1390 C   0  0  0  0  0  0  0  0  0  0  0  0
    4.5670   -6.9270  -30.1850 Cl  0  0  0  0  0  0  0  0  0  0  0  0
    3.7880   -8.1830  -27.9090 C   0  0  0  0  0  0  0  0  0  0  0  0
    3.2880   -7.0010  -27.5110 F   0  0  0  0  0  0  0  0  0  0  0  0
  1 10  1  1  0  0  0
  1  8  1  0  0  0  0
  1  6  1  0  0  0  0
  2  1  1  0  0  0  0
  3  2  1  0  0  0  0
  3  4  1  0  0  0  0
  4 24  1  6  0  0  0
  4  5  1  0  0  0  0
  5  6  1  0  0  0  0
  7  8  2  0  0  0  0
  8  9  1  0  0  0  0
 10 11  1  0  0  0  0
 11 12  1  0  0  0  0
 12 13  2  0  0  0  0
 14 13  1  0  0  0  0
 15 14  2  0  0  0  0
 16 15  1  0  0  0  0
 16 11  2  0  0  0  0
 17 23  1  0  0  0  0
 17 15  1  0  0  0  0
 18 17  1  0  0  0  0
 19 18  2  0  0  0  0
 20 19  1  0  0  0  0
 21 20  2  0  0  0  0
 21 22  1  0  0  0  0
 22 18  1  0  0  0  0
 25 24  1  0  0  0  0
 26 25  1  0  0  0  0
 27 26  2  0  0  0  0
 28 29  2  0  0  0  0
 28 27  1  0  0  0  0
 29 31  1  0  0  0  0
 30 29  1  0  0  0  0
 31 32  1  0  0  0  0
 31 25  2  0  0  0  0
M  END
>  <minimizedAffinity>
-6.6819334

$$$$
