
 OpenBabel10152418163D

 32 35  0  0  1  0  0  0  0  0999 V2000
   -0.6870   -8.0280  -25.0480 C   0  0  2  0  0  0  0  0  0  0  0  0
   -1.7540   -9.0580  -24.6280 C   0  0  0  0  0  2  0  0  0  0  0  0
   -1.4190   -9.9020  -23.3950 C   0  0  0  0  0  2  0  0  0  0  0  0
    0.0030  -10.4680  -23.3640 C   0  0  2  0  0  3  0  0  0  0  0  0
    1.0640   -9.4390  -23.7590 C   0  0  0  0  0  2  0  0  0  0  0  0
    0.7360   -8.6350  -25.0170 C   0  0  0  0  0  2  0  0  0  0  0  0
    0.4650   -6.1050  -24.2010 O   0  0  0  0  0  0  0  0  0  0  0  0
   -0.6070   -6.7750  -24.1320 C   0  0  0  0  0  0  0  0  0  0  0  0
   -1.6170   -6.5480  -23.4100 O   0  0  0  0  0  1  0  0  0  0  0  0
   -0.9600   -7.5450  -26.5060 C   0  0  0  0  0  2  0  0  0  0  0  0
    0.0730   -6.6310  -27.1340 C   0  0  0  0  0  0  0  0  0  0  0  0
   -0.1570   -5.2660  -27.2340 C   0  0  0  0  0  3  0  0  0  0  0  0
    0.8080   -4.4670  -27.8260 C   0  0  0  0  0  3  0  0  0  0  0  0
    1.9880   -5.0510  -28.2710 C   0  0  0  0  0  3  0  0  0  0  0  0
    2.1910   -6.4230  -28.0990 C   0  0  0  0  0  0  0  0  0  0  0  0
    1.2380   -7.2060  -27.5520 N   0  0  0  0  0  0  0  0  0  0  0  0
    3.4560   -6.9310  -28.4580 N   0  0  0  0  0  0  0  0  0  0  0  0
    3.7150   -7.8030  -29.4560 C   0  0  0  0  0  0  0  0  0  0  0  0
    3.1860   -7.8430  -30.6600 N   0  0  0  0  0  0  0  0  0  0  0  0
    3.7400   -8.8660  -31.4010 C   0  0  0  0  0  3  0  0  0  0  0  0
    4.7060   -9.6090  -30.7650 C   0  0  0  0  0  3  0  0  0  0  0  0
    4.9710   -8.9770  -29.2010 S   0  0  0  0  0  0  0  0  0  0  0  0
    4.0780   -6.9540  -27.6650 H   0  0  0  0  0  0  0  0  0  0  0  0
    0.1840  -11.7810  -23.9470 O   0  0  0  0  0  0  0  0  0  0  0  0
    1.0100  -11.8690  -25.0290 C   0  0  0  0  0  0  0  0  0  0  0  0
    0.4540  -11.9860  -26.3020 C   0  0  0  0  0  3  0  0  0  0  0  0
    1.2840  -12.0390  -27.4220 C   0  0  0  0  0  3  0  0  0  0  0  0
    2.6700  -12.0280  -27.2680 C   0  0  0  0  0  3  0  0  0  0  0  0
    3.2230  -12.0070  -25.9870 C   0  0  0  0  0  0  0  0  0  0  0  0
    4.9360  -12.0350  -25.8100 Cl  0  0  0  0  0  0  0  0  0  0  0  0
    2.3920  -11.9550  -24.8690 C   0  0  0  0  0  0  0  0  0  0  0  0
    2.9230  -11.9580  -23.6350 F   0  0  0  0  0  0  0  0  0  0  0  0
  1 10  1  6  0  0  0
  1  6  1  0  0  0  0
  1  2  1  0  0  0  0
  1  8  1  0  0  0  0
  2  3  1  0  0  0  0
  3  4  1  0  0  0  0
  4 24  1  6  0  0  0
  5  4  1  0  0  0  0
  6  5  1  0  0  0  0
  7  8  2  0  0  0  0
  8  9  1  0  0  0  0
 11 10  1  0  0  0  0
 12 11  1  0  0  0  0
 13 12  2  0  0  0  0
 14 15  2  0  0  0  0
 14 13  1  0  0  0  0
 15 16  1  0  0  0  0
 16 11  2  0  0  0  0
 17 15  1  0  0  0  0
 17 23  1  0  0  0  0
 18 22  1  0  0  0  0
 18 17  1  0  0  0  0
 19 18  2  0  0  0  0
 20 21  2  0  0  0  0
 20 19  1  0  0  0  0
 21 22  1  0  0  0  0
 25 31  1  0  0  0  0
 25 24  1  0  0  0  0
 26 25  2  0  0  0  0
 27 28  2  0  0  0  0
 27 26  1  0  0  0  0
 28 29  1  0  0  0  0
 29 30  1  0  0  0  0
 29 31  2  0  0  0  0
 31 32  1  0  0  0  0
M  END
>  <minimizedAffinity>
-7.84972906

$$$$
