
 OpenBabel10152418163D

 32 35  0  0  1  0  0  0  0  0999 V2000
    2.1730  -10.2160  -25.5410 C   0  0  2  0  0  0  0  0  0  0  0  0
    1.5480  -10.0310  -24.1440 C   0  0  0  0  0  2  0  0  0  0  0  0
    0.3120  -10.8870  -23.8460 C   0  0  0  0  0  2  0  0  0  0  0  0
   -0.7300  -10.9310  -24.9660 C   0  0  2  0  0  3  0  0  0  0  0  0
   -0.1120  -11.1350  -26.3500 C   0  0  0  0  0  2  0  0  0  0  0  0
    1.0930  -10.2440  -26.6490 C   0  0  0  0  0  2  0  0  0  0  0  0
    3.0360  -11.9880  -26.9030 O   0  0  0  0  0  0  0  0  0  0  0  0
    2.9660  -11.5400  -25.7210 C   0  0  0  0  0  0  0  0  0  0  0  0
    3.4620  -12.0380  -24.6730 O   0  0  0  0  0  1  0  0  0  0  0  0
    3.1350   -9.0280  -25.8520 C   0  0  0  0  0  2  0  0  0  0  0  0
    2.7690   -8.1320  -27.0180 C   0  0  0  0  0  0  0  0  0  0  0  0
    3.4810   -8.1910  -28.2080 C   0  0  0  0  0  3  0  0  0  0  0  0
    3.1210   -7.3460  -29.2450 C   0  0  0  0  0  3  0  0  0  0  0  0
    2.0400   -6.4900  -29.0740 C   0  0  0  0  0  3  0  0  0  0  0  0
    1.3240   -6.5080  -27.8750 C   0  0  0  0  0  0  0  0  0  0  0  0
    1.6940   -7.3070  -26.8530 N   0  0  0  0  0  0  0  0  0  0  0  0
    0.1640   -5.7080  -27.8110 N   0  0  0  0  0  0  0  0  0  0  0  0
    0.1130   -4.3960  -27.4950 C   0  0  0  0  0  0  0  0  0  0  0  0
    0.9410   -3.4390  -27.8550 N   0  0  0  0  0  0  0  0  0  0  0  0
    0.5270   -2.2230  -27.3550 C   0  0  0  0  0  3  0  0  0  0  0  0
   -0.6320   -2.2450  -26.6160 C   0  0  0  0  0  3  0  0  0  0  0  0
   -1.2550   -3.8340  -26.5840 S   0  0  0  0  0  0  0  0  0  0  0  0
   -0.6470   -6.2590  -27.5820 H   0  0  0  0  0  0  0  0  0  0  0  0
   -1.7750   -9.9280  -24.9110 O   0  0  0  0  0  0  0  0  0  0  0  0
   -1.7030   -9.0150  -23.9010 C   0  0  0  0  0  0  0  0  0  0  0  0
   -2.2940   -9.3110  -22.6730 C   0  0  0  0  0  3  0  0  0  0  0  0
   -2.1970   -8.4050  -21.6170 C   0  0  0  0  0  3  0  0  0  0  0  0
   -1.5570   -7.1800  -21.8030 C   0  0  0  0  0  3  0  0  0  0  0  0
   -1.0520   -6.8480  -23.0600 C   0  0  0  0  0  0  0  0  0  0  0  0
   -0.3000   -5.3130  -23.2850 Cl  0  0  0  0  0  0  0  0  0  0  0  0
   -1.1500   -7.7550  -24.1140 C   0  0  0  0  0  0  0  0  0  0  0  0
   -0.6840   -7.4260  -25.3300 F   0  0  0  0  0  0  0  0  0  0  0  0
  1 10  1  6  0  0  0
  1  2  1  0  0  0  0
  2  3  1  0  0  0  0
  4 24  1  6  0  0  0
  4  3  1  0  0  0  0
  5  4  1  0  0  0  0
  6  5  1  0  0  0  0
  6  1  1  0  0  0  0
  7  8  2  0  0  0  0
  8  1  1  0  0  0  0
  8  9  1  0  0  0  0
 11 16  1  0  0  0  0
 11 10  1  0  0  0  0
 12 11  2  0  0  0  0
 13 14  2  0  0  0  0
 13 12  1  0  0  0  0
 14 15  1  0  0  0  0
 15 17  1  0  0  0  0
 15 16  2  0  0  0  0
 17 23  1  0  0  0  0
 17 18  1  0  0  0  0
 18 22  1  0  0  0  0
 19 18  2  0  0  0  0
 19 20  1  0  0  0  0
 20 21  2  0  0  0  0
 21 22  1  0  0  0  0
 24 25  1  0  0  0  0
 25 26  1  0  0  0  0
 26 27  2  0  0  0  0
 28 27  1  0  0  0  0
 29 28  2  0  0  0  0
 30 29  1  0  0  0  0
 31 25  2  0  0  0  0
 31 29  1  0  0  0  0
 32 31  1  0  0  0  0
M  END
>  <minimizedAffinity>
-7.38871908

$$$$
