
 OpenBabel10152418163D

 32 35  0  0  1  0  0  0  0  0999 V2000
    3.1110  -10.6350  -26.3990 C   0  0  2  0  0  0  0  0  0  0  0  0
    3.4440  -11.2380  -25.0200 C   0  0  0  0  0  2  0  0  0  0  0  0
    2.3220  -12.0390  -24.3510 C   0  0  0  0  0  2  0  0  0  0  0  0
    0.9410  -11.3810  -24.3980 C   0  0  2  0  0  3  0  0  0  0  0  0
    0.6010  -10.8010  -25.7730 C   0  0  0  0  0  2  0  0  0  0  0  0
    1.7140   -9.9690  -26.4080 C   0  0  0  0  0  2  0  0  0  0  0  0
    4.1910  -12.0390  -28.0130 O   0  0  0  0  0  0  0  0  0  0  0  0
    3.0680  -11.6690  -27.5590 C   0  0  0  0  0  0  0  0  0  0  0  0
    1.9220  -12.0390  -27.9340 O   0  0  0  0  0  1  0  0  0  0  0  0
    4.1570   -9.5380  -26.7650 C   0  0  0  0  0  2  0  0  0  0  0  0
    3.6960   -8.4250  -27.6840 C   0  0  0  0  0  0  0  0  0  0  0  0
    4.4250   -8.0940  -28.8190 C   0  0  0  0  0  3  0  0  0  0  0  0
    3.9750   -7.0620  -29.6260 C   0  0  0  0  0  3  0  0  0  0  0  0
    2.7920   -6.4130  -29.2930 C   0  0  0  0  0  3  0  0  0  0  0  0
    2.0690   -6.8200  -28.1700 C   0  0  0  0  0  0  0  0  0  0  0  0
    2.5240   -7.8030  -27.3650 N   0  0  0  0  0  0  0  0  0  0  0  0
    0.8170   -6.2060  -27.9580 N   0  0  0  0  0  0  0  0  0  0  0  0
    0.6000   -4.8990  -27.6970 C   0  0  0  0  0  0  0  0  0  0  0  0
    1.1980   -3.8520  -28.2260 N   0  0  0  0  0  0  0  0  0  0  0  0
    0.6690   -2.6830  -27.7200 C   0  0  0  0  0  3  0  0  0  0  0  0
   -0.3470   -2.8330  -26.8070 C   0  0  0  0  0  3  0  0  0  0  0  0
   -0.6900   -4.4940  -26.6060 S   0  0  0  0  0  0  0  0  0  0  0  0
    0.1490   -6.8590  -27.5800 H   0  0  0  0  0  0  0  0  0  0  0  0
    0.5980  -10.5260  -23.2790 O   0  0  0  0  0  0  0  0  0  0  0  0
   -0.1350   -9.4100  -23.5550 C   0  0  0  0  0  0  0  0  0  0  0  0
    0.4990   -8.3040  -24.1200 C   0  0  0  0  0  3  0  0  0  0  0  0
   -0.2420   -7.1670  -24.4440 C   0  0  0  0  0  3  0  0  0  0  0  0
   -1.6060   -7.1140  -24.1540 C   0  0  0  0  0  3  0  0  0  0  0  0
   -2.2150   -8.1860  -23.5010 C   0  0  0  0  0  0  0  0  0  0  0  0
   -3.8910   -8.0900  -23.1130 Cl  0  0  0  0  0  0  0  0  0  0  0  0
   -1.4730   -9.3210  -23.1790 C   0  0  0  0  0  0  0  0  0  0  0  0
   -2.0540  -10.3430  -22.5290 F   0  0  0  0  0  0  0  0  0  0  0  0
  1 10  1  6  0  0  0
  1  2  1  0  0  0  0
  2  3  1  0  0  0  0
  4  3  1  0  0  0  0
  4 24  1  1  0  0  0
  5  4  1  0  0  0  0
  6  1  1  0  0  0  0
  6  5  1  0  0  0  0
  7  8  2  0  0  0  0
  8  1  1  0  0  0  0
  9  8  1  0  0  0  0
 11 16  1  0  0  0  0
 11 10  1  0  0  0  0
 12 11  2  0  0  0  0
 13 14  2  0  0  0  0
 13 12  1  0  0  0  0
 14 15  1  0  0  0  0
 15 17  1  0  0  0  0
 15 16  2  0  0  0  0
 17 18  1  0  0  0  0
 17 23  1  0  0  0  0
 18 22  1  0  0  0  0
 19 20  1  0  0  0  0
 19 18  2  0  0  0  0
 20 21  2  0  0  0  0
 21 22  1  0  0  0  0
 25 24  1  0  0  0  0
 25 31  1  0  0  0  0
 26 25  2  0  0  0  0
 27 28  2  0  0  0  0
 27 26  1  0  0  0  0
 28 29  1  0  0  0  0
 29 31  2  0  0  0  0
 29 30  1  0  0  0  0
 31 32  1  0  0  0  0
M  END
>  <minimizedAffinity>
-5.04068232

$$$$
