
 OpenBabel11232419563D

 37 41  0  0  1  0  0  0  0  0999 V2000
    1.3960    5.6380   -7.2200 C   0  0  0  0  0  0  0  0  0  0  0  0
    2.0860    6.8230   -7.1060 C   0  0  0  0  0  3  0  0  0  0  0  0
    3.3170    6.5820   -7.6620 N   0  0  0  0  0  0  0  0  0  0  0  0
    3.3110    5.3020   -8.1700 C   0  0  0  0  0  0  0  0  0  0  0  0
    2.1960    4.6970   -7.8180 N   0  0  0  0  0  0  0  0  0  0  0  0
   -1.8690    3.9130   -6.5150 C   0  0  0  0  0  0  0  0  0  0  0  0
   -0.5690    4.1190   -6.9760 C   0  0  0  0  0  3  0  0  0  0  0  0
    0.0390    5.3630   -6.7800 C   0  0  0  0  0  0  0  0  0  0  0  0
   -0.6780    6.3570   -6.1150 C   0  0  0  0  0  3  0  0  0  0  0  0
   -1.9640    6.0760   -5.6950 C   0  0  0  0  0  3  0  0  0  0  0  0
   -2.5700    4.8870   -5.8890 N   0  0  0  0  0  0  0  0  0  0  0  0
   -4.0830    2.7040   -6.4670 C   0  0  0  0  0  1  0  0  0  0  0  0
   -2.5730    2.5780   -6.6660 C   0  0  0  0  0  3  0  0  0  0  0  0
   -2.2450    1.9210   -8.0090 C   0  0  0  0  0  1  0  0  0  0  0  0
    4.3950    4.6820   -9.0150 C   0  0  2  0  0  3  0  0  0  0  0  0
    3.8620    3.4610   -9.7800 C   0  0  0  0  0  2  0  0  0  0  0  0
    3.7900    2.2030   -8.9140 C   0  0  0  0  0  2  0  0  0  0  0  0
    5.0540    1.9720   -8.2190 N   0  0  0  0  0  0  0  0  0  0  0  0
    5.5130    3.0620   -7.3640 C   0  0  0  0  0  2  0  0  0  0  0  0
    5.6490    4.3470   -8.1870 C   0  0  0  0  0  2  0  0  0  0  0  0
    6.0210    1.1930   -8.8470 C   0  0  0  0  0  0  0  0  0  0  0  0
    6.3740    1.5510  -10.0990 N   0  0  0  0  0  0  0  0  0  0  0  0
    7.3270    0.8210  -10.6970 C   0  0  0  0  0  3  0  0  0  0  0  0
    7.9690   -0.2260  -10.1720 N   0  0  0  0  0  0  0  0  0  0  0  0
    7.5860   -0.5960   -8.9420 C   0  0  0  0  0  0  0  0  0  0  0  0
    8.2840   -1.6710   -8.4180 N   0  0  0  0  0  0  0  0  0  0  0  0
    6.6110    0.0910   -8.2250 C   0  0  0  0  0  0  0  0  0  0  0  0
    6.0550   -0.5470   -6.5170 Br  0  0  0  0  0  0  0  0  0  0  0  0
    8.9500   -2.0760   -9.0630 H   0  0  0  0  0  0  0  0  0  0  0  0
    7.7790   -2.3050   -7.8120 H   0  0  0  0  0  0  0  0  0  0  0  0
    4.4260    7.5150   -7.6060 C   0  0  0  0  0  2  0  0  0  0  0  0
    5.0540    7.5780   -6.2050 C   0  0  0  0  0  2  0  0  0  0  0  0
    4.4390    8.6410   -5.3490 N   0  0  0  0  0  4  0  0  0  0  0  0
    5.4240    9.3790   -4.5330 C   0  0  0  0  0  2  0  0  0  0  0  0
    4.7010   10.6730   -4.9290 C   0  0  0  0  0  2  0  0  0  0  0  0
    4.1850    9.8740   -6.1340 C   0  0  0  0  0  2  0  0  0  0  0  0
    3.5960    8.3370   -4.8310 H   0  0  0  0  0  0  0  0  0  0  0  0
  1  2  2  0  0  0  0
  1  8  1  0  0  0  0
  3 31  1  0  0  0  0
  3  2  1  0  0  0  0
  4  5  2  0  0  0  0
  4  3  1  0  0  0  0
  5  1  1  0  0  0  0
  6 11  1  0  0  0  0
  7  8  1  0  0  0  0
  7  6  2  0  0  0  0
  8  9  2  0  0  0  0
  9 10  1  0  0  0  0
 11 10  2  0  0  0  0
 13  6  1  0  0  0  0
 13 12  1  0  0  0  0
 14 13  1  0  0  0  0
 15 20  1  0  0  0  0
 15  4  1  1  0  0  0
 16 15  1  0  0  0  0
 16 17  1  0  0  0  0
 17 18  1  0  0  0  0
 18 19  1  0  0  0  0
 20 19  1  0  0  0  0
 21 27  1  0  0  0  0
 21 18  1  0  0  0  0
 22 21  2  0  0  0  0
 23 24  2  0  0  0  0
 23 22  1  0  0  0  0
 24 25  1  0  0  0  0
 25 26  1  0  0  0  0
 25 27  2  0  0  0  0
 26 30  1  0  0  0  0
 27 28  1  0  0  0  0
 29 26  1  0  0  0  0
 31 32  1  0  0  0  0
 32 33  1  0  0  0  0
 33 37  1  0  0  0  0
 33 34  1  0  0  0  0
 35 34  1  0  0  0  0
 36 33  1  0  0  0  0
 36 35  1  0  0  0  0
M  END
>  <minimizedAffinity>
-8.14624405

$$$$
