
 OpenBabel11232419563D

 37 41  0  0  1  0  0  0  0  0999 V2000
    1.9490    6.2850   -7.0670 C   0  0  0  0  0  0  0  0  0  0  0  0
    2.8630    7.3110   -7.1340 C   0  0  0  0  0  3  0  0  0  0  0  0
    3.9400    6.7970   -7.8120 N   0  0  0  0  0  0  0  0  0  0  0  0
    3.6200    5.5170   -8.2080 C   0  0  0  0  0  0  0  0  0  0  0  0
    2.4660    5.1700   -7.6770 N   0  0  0  0  0  0  0  0  0  0  0  0
   -1.0930    7.3850   -5.1510 C   0  0  0  0  0  0  0  0  0  0  0  0
    0.1850    7.4120   -5.7080 C   0  0  0  0  0  3  0  0  0  0  0  0
    0.6360    6.3140   -6.4460 C   0  0  0  0  0  0  0  0  0  0  0  0
   -0.2200    5.2250   -6.6100 C   0  0  0  0  0  3  0  0  0  0  0  0
   -1.4690    5.2710   -6.0210 C   0  0  0  0  0  3  0  0  0  0  0  0
   -1.9130    6.3170   -5.2940 N   0  0  0  0  0  0  0  0  0  0  0  0
   -0.8610    8.8190   -3.0890 C   0  0  0  0  0  1  0  0  0  0  0  0
   -1.6540    8.5560   -4.3690 C   0  0  0  0  0  3  0  0  0  0  0  0
   -1.7430    9.8160   -5.2320 C   0  0  0  0  0  1  0  0  0  0  0  0
    4.4420    4.6450   -9.1230 C   0  0  2  0  0  3  0  0  0  0  0  0
    3.6170    3.4520   -9.6280 C   0  0  0  0  0  2  0  0  0  0  0  0
    3.5220    2.3210   -8.6040 C   0  0  0  0  0  2  0  0  0  0  0  0
    4.8420    1.9650   -8.0900 N   0  0  0  0  0  0  0  0  0  0  0  0
    5.5920    3.0520   -7.4690 C   0  0  0  0  0  2  0  0  0  0  0  0
    5.7610    4.2030   -8.4650 C   0  0  0  0  0  2  0  0  0  0  0  0
    5.5660    0.9790   -8.7530 C   0  0  0  0  0  0  0  0  0  0  0  0
    5.4650    0.9480  -10.0990 N   0  0  0  0  0  0  0  0  0  0  0  0
    6.1840    0.0180  -10.7440 C   0  0  0  0  0  3  0  0  0  0  0  0
    6.9980   -0.8810  -10.1860 N   0  0  0  0  0  0  0  0  0  0  0  0
    7.0630   -0.8670   -8.8480 C   0  0  0  0  0  0  0  0  0  0  0  0
    7.9310   -1.7980   -8.3000 N   0  0  0  0  0  0  0  0  0  0  0  0
    6.3660    0.0570   -8.0750 C   0  0  0  0  0  0  0  0  0  0  0  0
    6.4370   -0.0410   -6.1730 Br  0  0  0  0  0  0  0  0  0  0  0  0
    8.3530   -2.4100   -8.9860 H   0  0  0  0  0  0  0  0  0  0  0  0
    7.6800   -2.2020   -7.4070 H   0  0  0  0  0  0  0  0  0  0  0  0
    5.2040    7.4900   -7.9660 C   0  0  0  0  0  2  0  0  0  0  0  0
    5.0260    9.0160   -7.9880 C   0  0  0  0  0  2  0  0  0  0  0  0
    5.4600    9.6630   -6.7100 N   0  0  0  0  0  4  0  0  0  0  0  0
    4.3380   10.1970   -5.9130 C   0  0  0  0  0  2  0  0  0  0  0  0
    5.0010    9.5880   -4.6710 C   0  0  0  0  0  2  0  0  0  0  0  0
    5.7050    8.6460   -5.6570 C   0  0  0  0  0  2  0  0  0  0  0  0
    6.2610   10.3100   -6.8100 H   0  0  0  0  0  0  0  0  0  0  0  0
  1  8  1  0  0  0  0
  2  1  2  0  0  0  0
  3  2  1  0  0  0  0
  4  3  1  0  0  0  0
  4  5  2  0  0  0  0
  5  1  1  0  0  0  0
  6 13  1  0  0  0  0
  7  6  2  0  0  0  0
  8  7  1  0  0  0  0
  9  8  2  0  0  0  0
  9 10  1  0  0  0  0
 10 11  2  0  0  0  0
 11  6  1  0  0  0  0
 13 12  1  0  0  0  0
 14 13  1  0  0  0  0
 15 20  1  0  0  0  0
 15  4  1  1  0  0  0
 16 15  1  0  0  0  0
 16 17  1  0  0  0  0
 17 18  1  0  0  0  0
 18 19  1  0  0  0  0
 20 19  1  0  0  0  0
 21 18  1  0  0  0  0
 21 27  1  0  0  0  0
 22 21  2  0  0  0  0
 23 24  2  0  0  0  0
 23 22  1  0  0  0  0
 24 25  1  0  0  0  0
 25 26  1  0  0  0  0
 25 27  2  0  0  0  0
 26 30  1  0  0  0  0
 27 28  1  0  0  0  0
 29 26  1  0  0  0  0
 31  3  1  0  0  0  0
 32 31  1  0  0  0  0
 32 33  1  0  0  0  0
 33 34  1  0  0  0  0
 33 36  1  0  0  0  0
 34 35  1  0  0  0  0
 36 35  1  0  0  0  0
 37 33  1  0  0  0  0
M  END
>  <minimizedAffinity>
-8.06613636

$$$$
