
 OpenBabel11232419563D

 37 41  0  0  1  0  0  0  0  0999 V2000
    2.5610    5.7390   -7.3560 C   0  0  0  0  0  0  0  0  0  0  0  0
    2.6050    6.8780   -6.5850 C   0  0  0  0  0  3  0  0  0  0  0  0
    1.2970    7.1720   -6.2930 N   0  0  0  0  0  0  0  0  0  0  0  0
    0.5100    6.1690   -6.8150 C   0  0  0  0  0  0  0  0  0  0  0  0
    1.2540    5.3610   -7.5390 N   0  0  0  0  0  0  0  0  0  0  0  0
    4.7520    3.0060   -8.7200 C   0  0  0  0  0  0  0  0  0  0  0  0
    3.6460    3.6380   -8.1520 C   0  0  0  0  0  3  0  0  0  0  0  0
    3.6850    5.0170   -7.9280 C   0  0  0  0  0  0  0  0  0  0  0  0
    4.8330    5.7200   -8.2920 C   0  0  0  0  0  3  0  0  0  0  0  0
    5.8890    5.0200   -8.8420 C   0  0  0  0  0  3  0  0  0  0  0  0
    5.8730    3.6870   -9.0530 N   0  0  0  0  0  0  0  0  0  0  0  0
    5.2240    1.2290  -10.4480 C   0  0  0  0  0  1  0  0  0  0  0  0
    4.7620    1.5200   -9.0210 C   0  0  0  0  0  3  0  0  0  0  0  0
    5.6000    0.7470   -8.0000 C   0  0  0  0  0  1  0  0  0  0  0  0
   -0.9700    5.9990   -6.5850 C   0  0  2  0  0  3  0  0  0  0  0  0
   -1.2360    5.1160   -5.3570 C   0  0  0  0  0  2  0  0  0  0  0  0
   -1.0910    3.6230   -5.6570 C   0  0  0  0  0  2  0  0  0  0  0  0
   -1.8580    3.2500   -6.8430 N   0  0  0  0  0  0  0  0  0  0  0  0
   -1.5230    3.9740   -8.0650 C   0  0  0  0  0  2  0  0  0  0  0  0
   -1.6920    5.4790   -7.8420 C   0  0  0  0  0  2  0  0  0  0  0  0
   -3.1770    2.8430   -6.6760 C   0  0  0  0  0  0  0  0  0  0  0  0
   -3.8480    3.3600   -5.6250 N   0  0  0  0  0  0  0  0  0  0  0  0
   -5.1290    2.9930   -5.4770 C   0  0  0  0  0  3  0  0  0  0  0  0
   -5.8130    2.1670   -6.2730 N   0  0  0  0  0  0  0  0  0  0  0  0
   -5.1290    1.6300   -7.2920 C   0  0  0  0  0  0  0  0  0  0  0  0
   -5.8700    0.7930   -8.1100 N   0  0  0  0  0  0  0  0  0  0  0  0
   -3.7960    1.9420   -7.5460 C   0  0  0  0  0  0  0  0  0  0  0  0
   -2.8630    1.0700   -8.9590 Br  0  0  0  0  0  0  0  0  0  0  0  0
   -6.8190    0.6500   -7.7890 H   0  0  0  0  0  0  0  0  0  0  0  0
   -5.3940    0.0030   -8.5240 H   0  0  0  0  0  0  0  0  0  0  0  0
    0.8700    8.3910   -5.6350 C   0  0  0  0  0  2  0  0  0  0  0  0
    0.5850    8.1700   -4.1410 C   0  0  0  0  0  2  0  0  0  0  0  0
   -0.8510    8.4050   -3.7900 N   0  0  0  0  0  4  0  0  0  0  0  0
   -1.0430    9.4920   -2.8090 C   0  0  0  0  0  2  0  0  0  0  0  0
   -2.2050    9.9950   -3.6760 C   0  0  0  0  0  2  0  0  0  0  0  0
   -1.5200    9.2360   -4.8210 C   0  0  0  0  0  2  0  0  0  0  0  0
   -1.3860    7.5440   -3.5870 H   0  0  0  0  0  0  0  0  0  0  0  0
  1  2  2  0  0  0  0
  2  3  1  0  0  0  0
  3 31  1  0  0  0  0
  4  3  1  0  0  0  0
  5  1  1  0  0  0  0
  5  4  2  0  0  0  0
  6  7  1  0  0  0  0
  7  8  2  0  0  0  0
  8  1  1  0  0  0  0
  9  8  1  0  0  0  0
 10  9  2  0  0  0  0
 11 10  1  0  0  0  0
 11  6  2  0  0  0  0
 12 13  1  0  0  0  0
 13  6  1  0  0  0  0
 13 14  1  0  0  0  0
 15  4  1  6  0  0  0
 15 16  1  0  0  0  0
 17 16  1  0  0  0  0
 18 21  1  0  0  0  0
 18 17  1  0  0  0  0
 19 20  1  0  0  0  0
 19 18  1  0  0  0  0
 20 15  1  0  0  0  0
 21 22  1  0  0  0  0
 22 23  2  0  0  0  0
 24 23  1  0  0  0  0
 25 24  2  0  0  0  0
 26 29  1  0  0  0  0
 26 25  1  0  0  0  0
 27 25  1  0  0  0  0
 27 21  2  0  0  0  0
 28 27  1  0  0  0  0
 30 26  1  0  0  0  0
 31 32  1  0  0  0  0
 32 33  1  0  0  0  0
 33 37  1  0  0  0  0
 33 34  1  0  0  0  0
 35 34  1  0  0  0  0
 36 33  1  0  0  0  0
 36 35  1  0  0  0  0
M  END
>  <minimizedAffinity>
-9.72592449

$$$$
