
 OpenBabel11232419563D

 37 41  0  0  1  0  0  0  0  0999 V2000
    2.8460    6.6500   -6.9710 C   0  0  0  0  0  0  0  0  0  0  0  0
    2.9470    7.6210   -6.0020 C   0  0  0  0  0  3  0  0  0  0  0  0
    1.6550    7.9450   -5.6720 N   0  0  0  0  0  0  0  0  0  0  0  0
    0.8160    7.1110   -6.3780 C   0  0  0  0  0  0  0  0  0  0  0  0
    1.5220    6.4010   -7.2330 N   0  0  0  0  0  0  0  0  0  0  0  0
    5.0030    3.9970   -8.5340 C   0  0  0  0  0  0  0  0  0  0  0  0
    3.9380    4.5870   -7.8530 C   0  0  0  0  0  3  0  0  0  0  0  0
    3.9320    5.9710   -7.6560 C   0  0  0  0  0  0  0  0  0  0  0  0
    4.9940    6.7200   -8.1620 C   0  0  0  0  0  3  0  0  0  0  0  0
    6.0150    6.0610   -8.8190 C   0  0  0  0  0  3  0  0  0  0  0  0
    6.0430    4.7250   -9.0040 N   0  0  0  0  0  0  0  0  0  0  0  0
    5.8580    2.1870  -10.0690 C   0  0  0  0  0  1  0  0  0  0  0  0
    5.0540    2.5070   -8.8090 C   0  0  0  0  0  3  0  0  0  0  0  0
    5.5870    1.7320   -7.6020 C   0  0  0  0  0  1  0  0  0  0  0  0
   -0.6770    7.0020   -6.1980 C   0  0  2  0  0  3  0  0  0  0  0  0
   -1.0210    6.0460   -5.0460 C   0  0  0  0  0  2  0  0  0  0  0  0
   -0.9430    4.5740   -5.4530 C   0  0  0  0  0  2  0  0  0  0  0  0
   -1.6940    4.3300   -6.6810 N   0  0  0  0  0  0  0  0  0  0  0  0
   -1.2890    5.1230   -7.8380 C   0  0  0  0  0  2  0  0  0  0  0  0
   -1.3890    6.6150   -7.5060 C   0  0  0  0  0  2  0  0  0  0  0  0
   -3.0370    3.9810   -6.5770 C   0  0  0  0  0  0  0  0  0  0  0  0
   -3.8600    4.8840   -6.0040 N   0  0  0  0  0  0  0  0  0  0  0  0
   -5.1600    4.5650   -5.9280 C   0  0  0  0  0  3  0  0  0  0  0  0
   -5.7250    3.4390   -6.3710 N   0  0  0  0  0  0  0  0  0  0  0  0
   -4.8960    2.5330   -6.9050 C   0  0  0  0  0  0  0  0  0  0  0  0
   -5.5150    1.3860   -7.3730 N   0  0  0  0  0  0  0  0  0  0  0  0
   -3.5290    2.7590   -7.0400 C   0  0  0  0  0  0  0  0  0  0  0  0
   -2.3980    1.3880   -7.7280 Br  0  0  0  0  0  0  0  0  0  0  0  0
   -6.5100    1.3580   -7.1890 H   0  0  0  0  0  0  0  0  0  0  0  0
   -5.0040    0.5160   -7.2980 H   0  0  0  0  0  0  0  0  0  0  0  0
    1.2940    9.0480   -4.8040 C   0  0  0  0  0  2  0  0  0  0  0  0
    1.5080    8.7060   -3.3210 C   0  0  0  0  0  2  0  0  0  0  0  0
    2.3560    9.7190   -2.6160 N   0  0  0  0  0  4  0  0  0  0  0  0
    3.3920    9.1160   -1.7530 C   0  0  0  0  0  2  0  0  0  0  0  0
    4.3820   10.1430   -2.3170 C   0  0  0  0  0  2  0  0  0  0  0  0
    3.4220   10.2340   -3.5110 C   0  0  0  0  0  2  0  0  0  0  0  0
    1.8230   10.4880   -2.1740 H   0  0  0  0  0  0  0  0  0  0  0  0
  1  2  2  0  0  0  0
  2  3  1  0  0  0  0
  3 31  1  0  0  0  0
  4  3  1  0  0  0  0
  5  1  1  0  0  0  0
  5  4  2  0  0  0  0
  6  7  1  0  0  0  0
  7  8  2  0  0  0  0
  8  1  1  0  0  0  0
  9  8  1  0  0  0  0
 10  9  2  0  0  0  0
 11 10  1  0  0  0  0
 11  6  2  0  0  0  0
 12 13  1  0  0  0  0
 13  6  1  0  0  0  0
 13 14  1  0  0  0  0
 15  4  1  6  0  0  0
 15 16  1  0  0  0  0
 17 16  1  0  0  0  0
 18 21  1  0  0  0  0
 18 17  1  0  0  0  0
 19 20  1  0  0  0  0
 19 18  1  0  0  0  0
 20 15  1  0  0  0  0
 21 22  1  0  0  0  0
 22 23  2  0  0  0  0
 24 23  1  0  0  0  0
 25 24  2  0  0  0  0
 26 30  1  0  0  0  0
 26 29  1  0  0  0  0
 26 25  1  0  0  0  0
 27 25  1  0  0  0  0
 27 21  2  0  0  0  0
 28 27  1  0  0  0  0
 31 32  1  0  0  0  0
 32 33  1  0  0  0  0
 33 37  1  0  0  0  0
 33 34  1  0  0  0  0
 35 34  1  0  0  0  0
 36 33  1  0  0  0  0
 36 35  1  0  0  0  0
M  END
>  <minimizedAffinity>
-9.27314758

$$$$
