
 OpenBabel11232419563D

 37 41  0  0  1  0  0  0  0  0999 V2000
    1.3610    5.2960   -7.5100 C   0  0  0  0  0  0  0  0  0  0  0  0
    1.1970    6.5940   -7.0840 C   0  0  0  0  0  3  0  0  0  0  0  0
    0.0600    6.5860   -6.3170 N   0  0  0  0  0  0  0  0  0  0  0  0
   -0.3830    5.2840   -6.2280 C   0  0  0  0  0  0  0  0  0  0  0  0
    0.3370    4.5220   -7.0240 N   0  0  0  0  0  0  0  0  0  0  0  0
    4.7020    4.7110   -9.1320 C   0  0  0  0  0  0  0  0  0  0  0  0
    3.7260    5.2690   -8.3060 C   0  0  0  0  0  3  0  0  0  0  0  0
    2.4200    4.7720   -8.3550 C   0  0  0  0  0  0  0  0  0  0  0  0
    2.1400    3.7210   -9.2280 C   0  0  0  0  0  3  0  0  0  0  0  0
    3.1600    3.2280  -10.0180 C   0  0  0  0  0  3  0  0  0  0  0  0
    4.4220    3.7060   -9.9930 N   0  0  0  0  0  0  0  0  0  0  0  0
    6.7130    5.3600  -10.5100 C   0  0  0  0  0  1  0  0  0  0  0  0
    6.1430    5.1820   -9.1030 C   0  0  0  0  0  3  0  0  0  0  0  0
    6.2980    6.4620   -8.2780 C   0  0  0  0  0  1  0  0  0  0  0  0
   -1.5010    4.7900   -5.3460 C   0  0  2  0  0  3  0  0  0  0  0  0
   -1.5960    3.2580   -5.3870 C   0  0  0  0  0  2  0  0  0  0  0  0
   -2.3210    2.7410   -6.6300 C   0  0  0  0  0  2  0  0  0  0  0  0
   -3.5970    3.4270   -6.8150 N   0  0  0  0  0  0  0  0  0  0  0  0
   -3.5230    4.8800   -6.9280 C   0  0  0  0  0  2  0  0  0  0  0  0
   -2.8430    5.4640   -5.6860 C   0  0  0  0  0  2  0  0  0  0  0  0
   -4.7320    2.8840   -6.2220 C   0  0  0  0  0  0  0  0  0  0  0  0
   -4.9640    3.2110   -4.9330 N   0  0  0  0  0  0  0  0  0  0  0  0
   -6.0720    2.7140   -4.3660 C   0  0  0  0  0  3  0  0  0  0  0  0
   -6.9780    1.9270   -4.9540 N   0  0  0  0  0  0  0  0  0  0  0  0
   -6.7200    1.5770   -6.2210 C   0  0  0  0  0  0  0  0  0  0  0  0
   -7.6870    0.7780   -6.8090 N   0  0  0  0  0  0  0  0  0  0  0  0
   -5.6030    2.0380   -6.9120 C   0  0  0  0  0  0  0  0  0  0  0  0
   -5.2560    1.4260   -8.6830 Br  0  0  0  0  0  0  0  0  0  0  0  0
   -8.4310    0.5110   -6.1770 H   0  0  0  0  0  0  0  0  0  0  0  0
   -7.3770    0.0880   -7.4810 H   0  0  0  0  0  0  0  0  0  0  0  0
   -0.5760    7.7820   -5.8010 C   0  0  0  0  0  2  0  0  0  0  0  0
    0.4510    8.8030   -5.2870 C   0  0  0  0  0  2  0  0  0  0  0  0
   -0.0930    9.6560   -4.1820 N   0  0  0  0  0  4  0  0  0  0  0  0
   -1.5520    9.8660   -4.2690 C   0  0  0  0  0  2  0  0  0  0  0  0
   -1.6240    9.6020   -2.7590 C   0  0  0  0  0  2  0  0  0  0  0  0
   -0.2950    8.8590   -2.9470 C   0  0  0  0  0  2  0  0  0  0  0  0
    0.4540   10.5140   -3.9980 H   0  0  0  0  0  0  0  0  0  0  0  0
  1  2  2  0  0  0  0
  1  5  1  0  0  0  0
  2  3  1  0  0  0  0
  3  4  1  0  0  0  0
  3 31  1  0  0  0  0
  5  4  2  0  0  0  0
  6 13  1  0  0  0  0
  6  7  1  0  0  0  0
  8  7  2  0  0  0  0
  8  1  1  0  0  0  0
  9  8  1  0  0  0  0
 10 11  1  0  0  0  0
 10  9  2  0  0  0  0
 11  6  2  0  0  0  0
 12 13  1  0  0  0  0
 13 14  1  0  0  0  0
 15  4  1  6  0  0  0
 16 15  1  0  0  0  0
 17 16  1  0  0  0  0
 18 17  1  0  0  0  0
 18 21  1  0  0  0  0
 19 18  1  0  0  0  0
 19 20  1  0  0  0  0
 20 15  1  0  0  0  0
 21 22  1  0  0  0  0
 22 23  2  0  0  0  0
 24 23  1  0  0  0  0
 25 24  2  0  0  0  0
 26 25  1  0  0  0  0
 26 29  1  0  0  0  0
 27 21  2  0  0  0  0
 27 25  1  0  0  0  0
 28 27  1  0  0  0  0
 30 26  1  0  0  0  0
 31 32  1  0  0  0  0
 32 33  1  0  0  0  0
 33 37  1  0  0  0  0
 33 36  1  0  0  0  0
 34 33  1  0  0  0  0
 34 35  1  0  0  0  0
 36 35  1  0  0  0  0
M  END
>  <minimizedAffinity>
-8.83812618

$$$$
