
 OpenBabel11232419563D

 37 41  0  0  1  0  0  0  0  0999 V2000
    2.6860    5.3250   -7.7440 C   0  0  0  0  0  0  0  0  0  0  0  0
    3.1040    6.3980   -6.9900 C   0  0  0  0  0  3  0  0  0  0  0  0
    1.9570    6.9610   -6.4910 N   0  0  0  0  0  0  0  0  0  0  0  0
    0.8940    6.1750   -6.8790 C   0  0  0  0  0  0  0  0  0  0  0  0
    1.3160    5.2500   -7.7140 N   0  0  0  0  0  0  0  0  0  0  0  0
    5.5050    3.0620   -8.7770 C   0  0  0  0  0  0  0  0  0  0  0  0
    4.7640    3.9700   -8.0210 C   0  0  0  0  0  3  0  0  0  0  0  0
    3.5170    4.3950   -8.4900 C   0  0  0  0  0  0  0  0  0  0  0  0
    3.0510    3.8840   -9.7010 C   0  0  0  0  0  3  0  0  0  0  0  0
    3.8490    2.9940  -10.3940 C   0  0  0  0  0  3  0  0  0  0  0  0
    5.0600    2.5850   -9.9620 N   0  0  0  0  0  0  0  0  0  0  0  0
    6.7190    1.6850   -7.0450 C   0  0  0  0  0  1  0  0  0  0  0  0
    6.8480    2.5360   -8.3090 C   0  0  0  0  0  3  0  0  0  0  0  0
    7.5670    1.7680   -9.4200 C   0  0  0  0  0  1  0  0  0  0  0  0
   -0.5320    6.3260   -6.4130 C   0  0  2  0  0  3  0  0  0  0  0  0
   -0.7970    5.4600   -5.1730 C   0  0  0  0  0  2  0  0  0  0  0  0
   -1.0450    3.9910   -5.5180 C   0  0  0  0  0  2  0  0  0  0  0  0
   -2.0510    3.8610   -6.5680 N   0  0  0  0  0  0  0  0  0  0  0  0
   -1.7540    4.5560   -7.8170 C   0  0  0  0  0  2  0  0  0  0  0  0
   -1.5390    6.0470   -7.5430 C   0  0  0  0  0  2  0  0  0  0  0  0
   -3.3860    3.7480   -6.1950 C   0  0  0  0  0  0  0  0  0  0  0  0
   -3.8700    4.6960   -5.3650 N   0  0  0  0  0  0  0  0  0  0  0  0
   -5.1640    4.6090   -5.0260 C   0  0  0  0  0  3  0  0  0  0  0  0
   -6.0280    3.6760   -5.4340 N   0  0  0  0  0  0  0  0  0  0  0  0
   -5.5310    2.7180   -6.2280 C   0  0  0  0  0  0  0  0  0  0  0  0
   -6.4550    1.7770   -6.6500 N   0  0  0  0  0  0  0  0  0  0  0  0
   -4.2040    2.7110   -6.6490 C   0  0  0  0  0  0  0  0  0  0  0  0
   -3.5450    1.2680   -7.7040 Br  0  0  0  0  0  0  0  0  0  0  0  0
   -7.3750    1.9040   -6.2480 H   0  0  0  0  0  0  0  0  0  0  0  0
   -6.1300    0.8280   -6.7780 H   0  0  0  0  0  0  0  0  0  0  0  0
    1.9210    8.2200   -5.7730 C   0  0  0  0  0  2  0  0  0  0  0  0
    3.3230    8.8240   -5.5990 C   0  0  0  0  0  2  0  0  0  0  0  0
    3.6700    9.0660   -4.1630 N   0  0  0  0  0  4  0  0  0  0  0  0
    4.1730   10.4300   -3.9050 C   0  0  0  0  0  2  0  0  0  0  0  0
    3.2740   10.4680   -2.6630 C   0  0  0  0  0  2  0  0  0  0  0  0
    2.4550    9.3800   -3.3700 C   0  0  0  0  0  2  0  0  0  0  0  0
    4.2280    8.3130   -3.7260 H   0  0  0  0  0  0  0  0  0  0  0  0
  1  5  1  0  0  0  0
  1  2  2  0  0  0  0
  2  3  1  0  0  0  0
  3 31  1  0  0  0  0
  4  3  1  0  0  0  0
  5  4  2  0  0  0  0
  6 13  1  0  0  0  0
  6  7  1  0  0  0  0
  8  7  2  0  0  0  0
  8  1  1  0  0  0  0
  9  8  1  0  0  0  0
 10 11  1  0  0  0  0
 10  9  2  0  0  0  0
 11  6  2  0  0  0  0
 13 12  1  0  0  0  0
 14 13  1  0  0  0  0
 15  4  1  6  0  0  0
 15 16  1  0  0  0  0
 17 16  1  0  0  0  0
 18 21  1  0  0  0  0
 18 17  1  0  0  0  0
 19 20  1  0  0  0  0
 19 18  1  0  0  0  0
 20 15  1  0  0  0  0
 21 22  1  0  0  0  0
 22 23  2  0  0  0  0
 24 23  1  0  0  0  0
 25 24  2  0  0  0  0
 26 29  1  0  0  0  0
 26 25  1  0  0  0  0
 27 25  1  0  0  0  0
 27 21  2  0  0  0  0
 28 27  1  0  0  0  0
 30 26  1  0  0  0  0
 31 32  1  0  0  0  0
 32 33  1  0  0  0  0
 33 34  1  0  0  0  0
 33 37  1  0  0  0  0
 33 36  1  0  0  0  0
 34 35  1  0  0  0  0
 36 35  1  0  0  0  0
M  END
>  <minimizedAffinity>
-9.30265903

$$$$
