
 OpenBabel11232419563D

 37 41  0  0  1  0  0  0  0  0999 V2000
    3.2300    6.1050   -7.2420 C   0  0  0  0  0  0  0  0  0  0  0  0
    1.9410    5.6720   -7.4450 C   0  0  0  0  0  3  0  0  0  0  0  0
    2.0390    4.6470   -8.3530 N   0  0  0  0  0  0  0  0  0  0  0  0
    3.3750    4.4320   -8.6060 C   0  0  0  0  0  0  0  0  0  0  0  0
    4.0890    5.3700   -8.0200 N   0  0  0  0  0  0  0  0  0  0  0  0
    3.2860    8.8570   -4.6810 C   0  0  0  0  0  0  0  0  0  0  0  0
    2.7950    7.8470   -5.5080 C   0  0  0  0  0  3  0  0  0  0  0  0
    3.6720    7.1780   -6.3670 C   0  0  0  0  0  0  0  0  0  0  0  0
    5.0190    7.5410   -6.3590 C   0  0  0  0  0  3  0  0  0  0  0  0
    5.4250    8.5570   -5.5160 C   0  0  0  0  0  3  0  0  0  0  0  0
    4.5890    9.2220   -4.6910 N   0  0  0  0  0  0  0  0  0  0  0  0
    1.2400    8.7250   -3.2100 C   0  0  0  0  0  1  0  0  0  0  0  0
    2.3940    9.5980   -3.7030 C   0  0  0  0  0  3  0  0  0  0  0  0
    3.1980   10.1650   -2.5310 C   0  0  0  0  0  1  0  0  0  0  0  0
    3.9490    3.2930   -9.4110 C   0  0  2  0  0  3  0  0  0  0  0  0
    3.9520    1.9920   -8.5950 C   0  0  0  0  0  2  0  0  0  0  0  0
    5.1200    1.9110   -7.6120 C   0  0  0  0  0  2  0  0  0  0  0  0
    6.3860    2.2060   -8.2770 N   0  0  0  0  0  0  0  0  0  0  0  0
    6.4650    3.5050   -8.9390 C   0  0  0  0  0  2  0  0  0  0  0  0
    5.3420    3.6300   -9.9730 C   0  0  0  0  0  2  0  0  0  0  0  0
    7.1000    1.1520   -8.8390 C   0  0  0  0  0  0  0  0  0  0  0  0
    7.1540    1.1000  -10.1860 N   0  0  0  0  0  0  0  0  0  0  0  0
    7.8640    0.1030  -10.7320 C   0  0  0  0  0  3  0  0  0  0  0  0
    8.5330   -0.8460  -10.0700 N   0  0  0  0  0  0  0  0  0  0  0  0
    8.4430   -0.8080   -8.7340 C   0  0  0  0  0  0  0  0  0  0  0  0
    9.1630   -1.7930   -8.0780 N   0  0  0  0  0  0  0  0  0  0  0  0
    7.7380    0.1840   -8.0600 C   0  0  0  0  0  0  0  0  0  0  0  0
    7.5800    0.1220   -6.1620 Br  0  0  0  0  0  0  0  0  0  0  0  0
    9.6110   -2.4520   -8.7020 H   0  0  0  0  0  0  0  0  0  0  0  0
    8.7780   -2.1570   -7.2160 H   0  0  0  0  0  0  0  0  0  0  0  0
    0.8970    4.0080   -8.9770 C   0  0  0  0  0  2  0  0  0  0  0  0
    0.2490    2.9620   -8.0570 C   0  0  0  0  0  2  0  0  0  0  0  0
   -1.1840    3.2730   -7.7550 N   0  0  0  0  0  4  0  0  0  0  0  0
   -1.3680    4.0180   -6.4930 C   0  0  0  0  0  2  0  0  0  0  0  0
   -2.3610    4.9210   -7.2340 C   0  0  0  0  0  2  0  0  0  0  0  0
   -1.6380    4.4680   -8.5090 C   0  0  0  0  0  2  0  0  0  0  0  0
   -1.8300    2.4750   -7.8800 H   0  0  0  0  0  0  0  0  0  0  0  0
  1  8  1  0  0  0  0
  2  1  2  0  0  0  0
  3  2  1  0  0  0  0
  4  3  1  0  0  0  0
  4  5  2  0  0  0  0
  5  1  1  0  0  0  0
  6 13  1  0  0  0  0
  7  6  2  0  0  0  0
  8  9  2  0  0  0  0
  8  7  1  0  0  0  0
  9 10  1  0  0  0  0
 10 11  2  0  0  0  0
 11  6  1  0  0  0  0
 13 12  1  0  0  0  0
 13 14  1  0  0  0  0
 15  4  1  1  0  0  0
 15 16  1  0  0  0  0
 16 17  1  0  0  0  0
 18 17  1  0  0  0  0
 19 18  1  0  0  0  0
 20 15  1  0  0  0  0
 20 19  1  0  0  0  0
 21 18  1  0  0  0  0
 21 27  1  0  0  0  0
 22 21  2  0  0  0  0
 23 22  1  0  0  0  0
 23 24  2  0  0  0  0
 24 25  1  0  0  0  0
 25 26  1  0  0  0  0
 25 27  2  0  0  0  0
 26 30  1  0  0  0  0
 27 28  1  0  0  0  0
 29 26  1  0  0  0  0
 31  3  1  0  0  0  0
 31 32  1  0  0  0  0
 32 33  1  0  0  0  0
 33 34  1  0  0  0  0
 35 34  1  0  0  0  0
 36 33  1  0  0  0  0
 36 35  1  0  0  0  0
 37 33  1  0  0  0  0
M  END
>  <minimizedAffinity>
-8.40765667

$$$$
