
 OpenBabel11232419563D

 37 41  0  0  1  0  0  0  0  0999 V2000
    1.6920    6.3810   -6.5790 C   0  0  0  0  0  0  0  0  0  0  0  0
    2.5280    5.7640   -7.4810 C   0  0  0  0  0  3  0  0  0  0  0  0
    1.7590    4.8110   -8.0980 N   0  0  0  0  0  0  0  0  0  0  0  0
    0.4710    4.9310   -7.6220 C   0  0  0  0  0  0  0  0  0  0  0  0
    0.4480    5.8040   -6.6380 N   0  0  0  0  0  0  0  0  0  0  0  0
    3.5750    9.0040   -4.6520 C   0  0  0  0  0  0  0  0  0  0  0  0
    3.3270    7.9490   -5.5300 C   0  0  0  0  0  3  0  0  0  0  0  0
    2.0220    7.4660   -5.6690 C   0  0  0  0  0  0  0  0  0  0  0  0
    1.0060    8.0670   -4.9280 C   0  0  0  0  0  3  0  0  0  0  0  0
    1.3350    9.1030   -4.0740 C   0  0  0  0  0  3  0  0  0  0  0  0
    2.5900    9.5710   -3.9170 N   0  0  0  0  0  0  0  0  0  0  0  0
    5.1230   10.9020   -5.2560 C   0  0  0  0  0  1  0  0  0  0  0  0
    4.9600    9.5950   -4.4790 C   0  0  0  0  0  3  0  0  0  0  0  0
    5.3090    9.7840   -3.0020 C   0  0  0  0  0  1  0  0  0  0  0  0
   -0.7360    4.1980   -8.1490 C   0  0  2  0  0  3  0  0  0  0  0  0
   -2.0030    5.0550   -8.0040 C   0  0  0  0  0  2  0  0  0  0  0  0
   -2.5790    5.0260   -6.5880 C   0  0  0  0  0  2  0  0  0  0  0  0
   -2.7230    3.6540   -6.1080 N   0  0  0  0  0  0  0  0  0  0  0  0
   -1.5000    2.8580   -6.0960 C   0  0  0  0  0  2  0  0  0  0  0  0
   -0.8960    2.8100   -7.5020 C   0  0  0  0  0  2  0  0  0  0  0  0
   -3.9220    2.9910   -6.3510 C   0  0  0  0  0  0  0  0  0  0  0  0
   -3.9770    2.2120   -7.4520 N   0  0  0  0  0  0  0  0  0  0  0  0
   -5.1200    1.5480   -7.6730 C   0  0  0  0  0  3  0  0  0  0  0  0
   -6.2140    1.5760   -6.9060 N   0  0  0  0  0  0  0  0  0  0  0  0
   -6.1620    2.3790   -5.8360 C   0  0  0  0  0  0  0  0  0  0  0  0
   -7.3030    2.3710   -5.0510 N   0  0  0  0  0  0  0  0  0  0  0  0
   -5.0260    3.1120   -5.5050 C   0  0  0  0  0  0  0  0  0  0  0  0
   -5.0580    4.3030   -4.0180 Br  0  0  0  0  0  0  0  0  0  0  0  0
   -8.0510    1.8030   -5.4280 H   0  0  0  0  0  0  0  0  0  0  0  0
   -7.5610    3.2350   -4.5920 H   0  0  0  0  0  0  0  0  0  0  0  0
    2.2850    3.8130   -9.0080 C   0  0  0  0  0  2  0  0  0  0  0  0
    3.6690    4.2010   -9.5500 C   0  0  0  0  0  2  0  0  0  0  0  0
    4.7040    3.1520   -9.2850 N   0  0  0  0  0  4  0  0  0  0  0  0
    5.5870    3.4760   -8.1460 C   0  0  0  0  0  2  0  0  0  0  0  0
    5.4260    2.0240   -7.6790 C   0  0  0  0  0  2  0  0  0  0  0  0
    4.1310    2.0280   -8.5020 C   0  0  0  0  0  2  0  0  0  0  0  0
    5.1980    2.8170  -10.1290 H   0  0  0  0  0  0  0  0  0  0  0  0
  1  8  1  0  0  0  0
  2  1  2  0  0  0  0
  3  4  1  0  0  0  0
  3  2  1  0  0  0  0
  4  5  2  0  0  0  0
  5  1  1  0  0  0  0
  6 13  1  0  0  0  0
  6 11  1  0  0  0  0
  7  6  2  0  0  0  0
  8  7  1  0  0  0  0
  8  9  2  0  0  0  0
  9 10  1  0  0  0  0
 10 11  2  0  0  0  0
 12 13  1  0  0  0  0
 13 14  1  0  0  0  0
 15 16  1  0  0  0  0
 15  4  1  1  0  0  0
 15 20  1  0  0  0  0
 16 17  1  0  0  0  0
 17 18  1  0  0  0  0
 18 19  1  0  0  0  0
 20 19  1  0  0  0  0
 21 18  1  0  0  0  0
 21 27  1  0  0  0  0
 22 21  2  0  0  0  0
 23 22  1  0  0  0  0
 23 24  2  0  0  0  0
 24 25  1  0  0  0  0
 25 27  2  0  0  0  0
 25 26  1  0  0  0  0
 26 30  1  0  0  0  0
 27 28  1  0  0  0  0
 29 26  1  0  0  0  0
 31  3  1  0  0  0  0
 32 33  1  0  0  0  0
 32 31  1  0  0  0  0
 33 36  1  0  0  0  0
 33 34  1  0  0  0  0
 34 35  1  0  0  0  0
 36 35  1  0  0  0  0
 37 33  1  0  0  0  0
M  END
>  <minimizedAffinity>
-9.73639965

$$$$
