
 OpenBabel11232419563D

 37 41  0  0  1  0  0  0  0  0999 V2000
    1.5280    5.9410   -7.1750 C   0  0  0  0  0  0  0  0  0  0  0  0
    0.9910    6.7250   -6.1800 C   0  0  0  0  0  3  0  0  0  0  0  0
   -0.3660    6.6830   -6.3760 N   0  0  0  0  0  0  0  0  0  0  0  0
   -0.6180    5.8180   -7.4180 C   0  0  0  0  0  0  0  0  0  0  0  0
    0.5200    5.4480   -7.9650 N   0  0  0  0  0  0  0  0  0  0  0  0
    4.7260    4.2640   -8.2230 C   0  0  0  0  0  0  0  0  0  0  0  0
    3.3630    4.4680   -8.0070 C   0  0  0  0  0  3  0  0  0  0  0  0
    2.9340    5.6580   -7.4120 C   0  0  0  0  0  0  0  0  0  0  0  0
    3.8900    6.6110   -7.0620 C   0  0  0  0  0  3  0  0  0  0  0  0
    5.2220    6.3300   -7.3020 C   0  0  0  0  0  3  0  0  0  0  0  0
    5.6530    5.1810   -7.8620 N   0  0  0  0  0  0  0  0  0  0  0  0
    6.6720    2.6720   -8.4350 C   0  0  0  0  0  1  0  0  0  0  0  0
    5.2530    3.0110   -8.8940 C   0  0  0  0  0  3  0  0  0  0  0  0
    4.3090    1.8250   -8.6890 C   0  0  0  0  0  1  0  0  0  0  0  0
   -1.9790    5.3420   -7.8610 C   0  0  2  0  0  3  0  0  0  0  0  0
   -2.9960    5.4500   -6.7160 C   0  0  0  0  0  2  0  0  0  0  0  0
   -2.8950    4.2930   -5.7210 C   0  0  0  0  0  2  0  0  0  0  0  0
   -2.9010    3.0060   -6.4110 N   0  0  0  0  0  0  0  0  0  0  0  0
   -1.8490    2.8180   -7.4060 C   0  0  0  0  0  2  0  0  0  0  0  0
   -1.9260    3.9250   -8.4600 C   0  0  0  0  0  2  0  0  0  0  0  0
   -4.1240    2.3840   -6.6400 C   0  0  0  0  0  0  0  0  0  0  0  0
   -4.2150    1.6000   -7.7350 N   0  0  0  0  0  0  0  0  0  0  0  0
   -5.3820    0.9750   -7.9440 C   0  0  0  0  0  3  0  0  0  0  0  0
   -6.4690    1.0480   -7.1700 N   0  0  0  0  0  0  0  0  0  0  0  0
   -6.3810    1.8570   -6.1060 C   0  0  0  0  0  0  0  0  0  0  0  0
   -7.5170    1.8950   -5.3130 N   0  0  0  0  0  0  0  0  0  0  0  0
   -5.2180    2.5510   -5.7880 C   0  0  0  0  0  0  0  0  0  0  0  0
   -5.1970    3.7540   -4.3100 Br  0  0  0  0  0  0  0  0  0  0  0  0
   -8.2870    1.3520   -5.6820 H   0  0  0  0  0  0  0  0  0  0  0  0
   -7.7400    2.7710   -4.8600 H   0  0  0  0  0  0  0  0  0  0  0  0
   -1.3140    7.5060   -5.6500 C   0  0  0  0  0  2  0  0  0  0  0  0
   -1.1570    8.9970   -5.9860 C   0  0  0  0  0  2  0  0  0  0  0  0
   -1.0700    9.8540   -4.7610 N   0  0  0  0  0  4  0  0  0  0  0  0
   -2.2310    9.7060   -3.8600 C   0  0  0  0  0  2  0  0  0  0  0  0
   -1.2430    9.6590   -2.6860 C   0  0  0  0  0  2  0  0  0  0  0  0
   -0.2070    9.2240   -3.7320 C   0  0  0  0  0  2  0  0  0  0  0  0
   -0.7930   10.8340   -4.9450 H   0  0  0  0  0  0  0  0  0  0  0  0
  1  2  2  0  0  0  0
  3  2  1  0  0  0  0
  3 31  1  0  0  0  0
  4  3  1  0  0  0  0
  5  4  2  0  0  0  0
  5  1  1  0  0  0  0
  6  7  2  0  0  0  0
  6 11  1  0  0  0  0
  7  8  1  0  0  0  0
  8  1  1  0  0  0  0
  8  9  2  0  0  0  0
 10  9  1  0  0  0  0
 11 10  2  0  0  0  0
 13 14  1  0  0  0  0
 13 12  1  0  0  0  0
 13  6  1  0  0  0  0
 15  4  1  1  0  0  0
 15 16  1  0  0  0  0
 16 17  1  0  0  0  0
 18 17  1  0  0  0  0
 19 18  1  0  0  0  0
 20 15  1  0  0  0  0
 20 19  1  0  0  0  0
 21 18  1  0  0  0  0
 21 27  1  0  0  0  0
 22 21  2  0  0  0  0
 23 22  1  0  0  0  0
 23 24  2  0  0  0  0
 24 25  1  0  0  0  0
 25 27  2  0  0  0  0
 25 26  1  0  0  0  0
 26 30  1  0  0  0  0
 27 28  1  0  0  0  0
 29 26  1  0  0  0  0
 32 31  1  0  0  0  0
 32 33  1  0  0  0  0
 33 34  1  0  0  0  0
 33 36  1  0  0  0  0
 34 35  1  0  0  0  0
 36 35  1  0  0  0  0
 37 33  1  0  0  0  0
M  END
>  <minimizedAffinity>
-8.59733677

$$$$
