
 OpenBabel11232418523D

 42 47  0  0  1  0  0  0  0  0999 V2000
    5.7420   -4.3280    5.7290 C   0  0  0  0  0  0  0  0  0  0  0  0
    5.7100   -3.0280    5.2090 C   0  0  0  0  0  3  0  0  0  0  0  0
    6.0210   -1.9410    6.0300 C   0  0  0  0  0  3  0  0  0  0  0  0
    6.3300   -2.1550    7.3720 C   0  0  0  0  0  0  0  0  0  0  0  0
    6.3470   -3.4530    7.8940 C   0  0  0  0  0  0  0  0  0  0  0  0
    6.0460   -4.5430    7.0770 C   0  0  0  0  0  3  0  0  0  0  0  0
    6.7070   -3.6050    9.2840 C   0  0  0  0  0  0  0  0  0  0  0  0
    6.9750   -4.6900    9.9720 N   0  0  0  0  0  0  0  0  0  0  0  0
    7.2630   -4.2560   11.2520 C   0  0  0  0  0  0  0  0  0  0  0  0
    7.1660   -2.8710   11.3420 C   0  0  0  0  0  0  0  0  0  0  0  0
    6.8200   -2.4910   10.0640 N   0  0  0  0  0  0  0  0  0  0  0  0
    6.5230   -1.1660    9.5530 C   0  0  0  0  0  2  0  0  0  0  0  0
    6.6650   -1.0540    8.1190 O   0  0  0  0  0  0  0  0  0  0  0  0
    7.4010   -1.9300   12.4280 C   0  0  0  0  0  0  0  0  0  0  0  0
    8.4350   -0.9900   12.3420 C   0  0  0  0  0  3  0  0  0  0  0  0
    8.6630   -0.0960   13.3890 C   0  0  0  0  0  3  0  0  0  0  0  0
    7.8570   -0.1360   14.5270 C   0  0  0  0  0  3  0  0  0  0  0  0
    6.8250   -1.0670   14.6190 C   0  0  0  0  0  3  0  0  0  0  0  0
    6.5950   -1.9620   13.5720 C   0  0  0  0  0  3  0  0  0  0  0  0
    7.6160   -5.2060   12.2960 C   0  0  0  0  0  0  0  0  0  0  0  0
    6.7000   -6.1020   12.8480 C   0  0  0  0  0  3  0  0  0  0  0  0
    7.1050   -7.0270   13.8210 C   0  0  0  0  0  3  0  0  0  0  0  0
    8.4370   -7.1070   14.2780 C   0  0  0  0  0  0  0  0  0  0  0  0
    9.3410   -6.1900   13.7040 C   0  0  0  0  0  3  0  0  0  0  0  0
    8.9420   -5.2630   12.7340 C   0  0  0  0  0  3  0  0  0  0  0  0
    8.9020   -8.1870   15.3230 C   0  0  1  0  0  0  0  0  0  0  0  0
   10.3590   -8.7400   15.2690 C   0  0  0  0  0  2  0  0  0  0  0  0
   10.2580   -8.9310   16.8130 C   0  0  1  0  0  0  0  0  0  0  0  0
   11.5460   -8.6940   17.5790 C   0  0  0  0  0  1  0  0  0  0  0  0
    9.2360   -7.7560   16.7870 C   0  0  0  0  0  2  0  0  0  0  0  0
    7.9130   -9.2960   15.2940 N   0  0  0  0  0  4  0  0  0  0  0  0
    6.9730   -8.9830   15.5590 H   0  0  0  0  0  0  0  0  0  0  0  0
    7.8470   -9.7240   14.3640 H   0  0  0  0  0  0  0  0  0  0  0  0
    8.1980  -10.0410   15.9600 H   0  0  0  0  0  0  0  0  0  0  0  0
    9.6490  -10.1970   17.1860 O   0  0  0  0  0  0  0  0  0  0  0  0
    9.9980  -10.4130   18.0760 H   0  0  0  0  0  0  0  0  0  0  0  0
    6.3720   -6.1640    4.2040 N   0  0  0  0  0  0  0  0  0  0  0  0
    5.3940   -5.4970    4.8950 C   0  0  0  0  0  0  0  0  0  0  0  0
    4.2280   -5.8750    4.8470 O   0  0  0  0  0  0  0  0  0  0  0  0
    6.0050   -6.9030    3.6140 H   0  0  0  0  0  0  0  0  0  0  0  0
    8.2670   -4.9730    3.2070 C   0  0  0  0  0  1  0  0  0  0  0  0
    7.8100   -5.9710    4.2540 C   0  0  0  0  0  2  0  0  0  0  0  0
  1  6  1  0  0  0  0
  2  1  2  0  0  0  0
  2  3  1  0  0  0  0
  3  4  2  0  0  0  0
  4  5  1  0  0  0  0
  4 13  1  0  0  0  0
  5  7  1  0  0  0  0
  6  5  2  0  0  0  0
  7  8  2  0  0  0  0
  7 11  1  0  0  0  0
  8  9  1  0  0  0  0
  9 10  2  0  0  0  0
  9 20  1  0  0  0  0
 10 14  1  0  0  0  0
 11 10  1  0  0  0  0
 12 11  1  0  0  0  0
 13 12  1  0  0  0  0
 14 19  1  0  0  0  0
 15 14  2  0  0  0  0
 15 16  1  0  0  0  0
 16 17  2  0  0  0  0
 17 18  1  0  0  0  0
 19 18  2  0  0  0  0
 20 25  2  0  0  0  0
 20 21  1  0  0  0  0
 21 22  2  0  0  0  0
 22 23  1  0  0  0  0
 23 26  1  0  0  0  0
 24 23  2  0  0  0  0
 25 24  1  0  0  0  0
 26 31  1  1  0  0  0
 26 30  1  0  0  0  0
 27 26  1  0  0  0  0
 27 28  1  0  0  0  0
 28 35  1  0  0  0  0
 28 29  1  1  0  0  0
 30 28  1  0  0  0  0
 31 32  1  0  0  0  0
 31 34  1  0  0  0  0
 33 31  1  0  0  0  0
 35 36  1  0  0  0  0
 37 42  1  0  0  0  0
 37 38  1  0  0  0  0
 38  1  1  0  0  0  0
 39 38  2  0  0  0  0
 40 37  1  0  0  0  0
 41 42  1  0  0  0  0
M  END
>  <minimizedAffinity>
-13.4632359

$$$$
