
 OpenBabel11232418523D

 42 47  0  0  1  0  0  0  0  0999 V2000
    5.7420   -4.3280    5.7290 C   0  0  0  0  0  0  0  0  0  0  0  0
    5.7100   -3.0280    5.2090 C   0  0  0  0  0  3  0  0  0  0  0  0
    6.0210   -1.9410    6.0300 C   0  0  0  0  0  3  0  0  0  0  0  0
    6.3300   -2.1550    7.3720 C   0  0  0  0  0  0  0  0  0  0  0  0
    6.3470   -3.4530    7.8940 C   0  0  0  0  0  0  0  0  0  0  0  0
    6.0460   -4.5430    7.0770 C   0  0  0  0  0  3  0  0  0  0  0  0
    6.7070   -3.6050    9.2840 C   0  0  0  0  0  0  0  0  0  0  0  0
    6.9750   -4.6900    9.9720 N   0  0  0  0  0  0  0  0  0  0  0  0
    7.2630   -4.2560   11.2520 C   0  0  0  0  0  0  0  0  0  0  0  0
    7.1660   -2.8710   11.3420 C   0  0  0  0  0  0  0  0  0  0  0  0
    6.8200   -2.4910   10.0640 N   0  0  0  0  0  0  0  0  0  0  0  0
    6.5230   -1.1660    9.5530 C   0  0  0  0  0  2  0  0  0  0  0  0
    6.6650   -1.0540    8.1190 O   0  0  0  0  0  0  0  0  0  0  0  0
    7.4010   -1.9300   12.4280 C   0  0  0  0  0  0  0  0  0  0  0  0
    8.4350   -0.9900   12.3420 C   0  0  0  0  0  3  0  0  0  0  0  0
    8.6630   -0.0960   13.3890 C   0  0  0  0  0  3  0  0  0  0  0  0
    7.8570   -0.1360   14.5270 C   0  0  0  0  0  3  0  0  0  0  0  0
    6.8250   -1.0670   14.6190 C   0  0  0  0  0  3  0  0  0  0  0  0
    6.5950   -1.9620   13.5720 C   0  0  0  0  0  3  0  0  0  0  0  0
    7.6160   -5.2060   12.2960 C   0  0  0  0  0  0  0  0  0  0  0  0
    6.7000   -6.1020   12.8480 C   0  0  0  0  0  3  0  0  0  0  0  0
    7.1050   -7.0270   13.8210 C   0  0  0  0  0  3  0  0  0  0  0  0
    8.4370   -7.1070   14.2780 C   0  0  0  0  0  0  0  0  0  0  0  0
    9.3410   -6.1900   13.7040 C   0  0  0  0  0  3  0  0  0  0  0  0
    8.9420   -5.2630   12.7340 C   0  0  0  0  0  3  0  0  0  0  0  0
    8.9020   -8.1870   15.3230 C   0  0  1  0  0  0  0  0  0  0  0  0
   10.3590   -8.7400   15.2690 C   0  0  0  0  0  2  0  0  0  0  0  0
   10.2580   -8.9310   16.8130 C   0  0  1  0  0  0  0  0  0  0  0  0
   11.5460   -8.6940   17.5790 C   0  0  0  0  0  1  0  0  0  0  0  0
    9.2360   -7.7560   16.7870 C   0  0  0  0  0  2  0  0  0  0  0  0
    7.9130   -9.2960   15.2940 N   0  0  0  0  0  4  0  0  0  0  0  0
    6.9730   -8.9830   15.5590 H   0  0  0  0  0  0  0  0  0  0  0  0
    7.8470   -9.7240   14.3640 H   0  0  0  0  0  0  0  0  0  0  0  0
    8.1980  -10.0410   15.9600 H   0  0  0  0  0  0  0  0  0  0  0  0
    9.6490  -10.1970   17.1860 O   0  0  0  0  0  0  0  0  0  0  0  0
    9.9980  -10.4130   18.0760 H   0  0  0  0  0  0  0  0  0  0  0  0
    6.3720   -6.1640    4.2040 N   0  0  0  0  0  0  0  0  0  0  0  0
    5.3940   -5.4970    4.8950 C   0  0  0  0  0  0  0  0  0  0  0  0
    4.2280   -5.8750    4.8470 O   0  0  0  0  0  0  0  0  0  0  0  0
    6.0050   -6.9030    3.6140 H   0  0  0  0  0  0  0  0  0  0  0  0
    8.2670   -4.9730    3.2070 C   0  0  0  0  0  1  0  0  0  0  0  0
    7.8100   -5.9710    4.2540 C   0  0  0  0  0  2  0  0  0  0  0  0
  1  6  1  0  0  0  0
  2  1  2  0  0  0  0
  2  3  1  0  0  0  0
  3  4  2  0  0  0  0
  4  5  1  0  0  0  0
  4 13  1  0  0  0  0
  5  7  1  0  0  0  0
  6  5  2  0  0  0  0
  7  8  2  0  0  0  0
  7 11  1  0  0  0  0
  8  9  1  0  0  0  0
  9 10  2  0  0  0  0
  9 20  1  0  0  0  0
 10 14  1  0  0  0  0
 11 10  1  0  0  0  0
 12 11  1  0  0  0  0
 13 12  1  0  0  0  0
 14 19  1  0  0  0  0
 15 14  2  0  0  0  0
 15 16  1  0  0  0  0
 16 17  2  0  0  0  0
 17 18  1  0  0  0  0
 19 18  2  0  0  0  0
 20 25  2  0  0  0  0
 20 21  1  0  0  0  0
 21 22  2  0  0  0  0
 22 23  1  0  0  0  0
 23 26  1  0  0  0  0
 24 23  2  0  0  0  0
 25 24  1  0  0  0  0
 26 31  1  1  0  0  0
 26 30  1  0  0  0  0
 27 26  1  0  0  0  0
 27 28  1  0  0  0  0
 28 35  1  0  0  0  0
 28 29  1  1  0  0  0
 30 28  1  0  0  0  0
 31 32  1  0  0  0  0
 31 34  1  0  0  0  0
 33 31  1  0  0  0  0
 35 36  1  0  0  0  0
 37 42  1  0  0  0  0
 37 38  1  0  0  0  0
 38  1  1  0  0  0  0
 39 38  2  0  0  0  0
 40 37  1  0  0  0  0
 41 42  1  0  0  0  0
M  END
>  <minimizedAffinity>
-13.4632359

$$$$

 OpenBabel11232418523D

 42 47  0  0  1  0  0  0  0  0999 V2000
    6.9260   -0.7940   10.9510 C   0  0  0  0  0  0  0  0  0  0  0  0
    6.4030   -0.2990    9.7500 C   0  0  0  0  0  3  0  0  0  0  0  0
    6.1090   -1.1780    8.7040 C   0  0  0  0  0  3  0  0  0  0  0  0
    6.3690   -2.5400    8.8510 C   0  0  0  0  0  0  0  0  0  0  0  0
    6.9040   -3.0310   10.0470 C   0  0  0  0  0  0  0  0  0  0  0  0
    7.1920   -2.1590   11.0990 C   0  0  0  0  0  3  0  0  0  0  0  0
    7.1170   -4.4550   10.1440 C   0  0  0  0  0  0  0  0  0  0  0  0
    7.4280   -5.1930   11.1840 N   0  0  0  0  0  0  0  0  0  0  0  0
    7.5000   -6.4890   10.7110 C   0  0  0  0  0  0  0  0  0  0  0  0
    7.2270   -6.5380    9.3470 C   0  0  0  0  0  0  0  0  0  0  0  0
    6.9770   -5.2230    9.0240 N   0  0  0  0  0  0  0  0  0  0  0  0
    6.6880   -4.6380    7.7280 C   0  0  0  0  0  2  0  0  0  0  0  0
    6.0220   -3.3580    7.8060 O   0  0  0  0  0  0  0  0  0  0  0  0
    7.1350   -7.6340    8.3940 C   0  0  0  0  0  0  0  0  0  0  0  0
    6.4340   -8.8020    8.7200 C   0  0  0  0  0  3  0  0  0  0  0  0
    6.3560   -9.8540    7.8060 C   0  0  0  0  0  3  0  0  0  0  0  0
    6.9780   -9.7450    6.5630 C   0  0  0  0  0  3  0  0  0  0  0  0
    7.6750   -8.5850    6.2300 C   0  0  0  0  0  3  0  0  0  0  0  0
    7.7530   -7.5310    7.1420 C   0  0  0  0  0  3  0  0  0  0  0  0
    7.8220   -7.5900   11.6070 C   0  0  0  0  0  0  0  0  0  0  0  0
    9.1240   -8.0480   11.8070 C   0  0  0  0  0  3  0  0  0  0  0  0
    9.3850   -9.0830   12.7170 C   0  0  0  0  0  3  0  0  0  0  0  0
    8.3630   -9.6980   13.4710 C   0  0  0  0  0  0  0  0  0  0  0  0
    7.0570   -9.2160   13.2480 C   0  0  0  0  0  3  0  0  0  0  0  0
    6.7920   -8.1840   12.3410 C   0  0  0  0  0  3  0  0  0  0  0  0
    8.6640  -10.8160   14.5370 C   0  0  1  0  0  0  0  0  0  0  0  0
   10.0360  -10.8300   15.2780 C   0  0  0  0  0  2  0  0  0  0  0  0
    9.2850  -11.4650   16.4870 C   0  0  1  0  0  0  0  0  0  0  0  0
    9.7930  -11.0490   17.8540 C   0  0  0  0  0  1  0  0  0  0  0  0
    8.0210  -10.7250   15.9570 C   0  0  0  0  0  2  0  0  0  0  0  0
    8.3920  -12.1300   13.8980 N   0  0  0  0  0  4  0  0  0  0  0  0
    7.4140  -12.2240   13.6080 H   0  0  0  0  0  0  0  0  0  0  0  0
    8.9780  -12.2800   13.0690 H   0  0  0  0  0  0  0  0  0  0  0  0
    8.6000  -12.8970   14.5680 H   0  0  0  0  0  0  0  0  0  0  0  0
    9.1730  -12.9120   16.3850 O   0  0  0  0  0  0  0  0  0  0  0  0
    9.0960  -13.2420   17.3050 H   0  0  0  0  0  0  0  0  0  0  0  0
    7.8000    1.3490   11.8110 N   0  0  0  0  0  0  0  0  0  0  0  0
    7.2720    0.1100   12.0680 C   0  0  0  0  0  0  0  0  0  0  0  0
    7.0620   -0.2510   13.2220 O   0  0  0  0  0  0  0  0  0  0  0  0
    8.0620    1.8490   12.6530 H   0  0  0  0  0  0  0  0  0  0  0  0
    9.3910    1.8390   10.0130 C   0  0  0  0  0  1  0  0  0  0  0  0
    7.9750    2.0120   10.5310 C   0  0  0  0  0  2  0  0  0  0  0  0
  1  6  1  0  0  0  0
  1 38  1  0  0  0  0
  2  1  2  0  0  0  0
  3  4  2  0  0  0  0
  3  2  1  0  0  0  0
  4  5  1  0  0  0  0
  5  7  1  0  0  0  0
  5  6  2  0  0  0  0
  7  8  2  0  0  0  0
  9  8  1  0  0  0  0
  9 20  1  0  0  0  0
 10  9  2  0  0  0  0
 11 10  1  0  0  0  0
 11  7  1  0  0  0  0
 12 13  1  0  0  0  0
 12 11  1  0  0  0  0
 13  4  1  0  0  0  0
 14 15  1  0  0  0  0
 14 10  1  0  0  0  0
 16 15  2  0  0  0  0
 17 16  1  0  0  0  0
 18 17  2  0  0  0  0
 18 19  1  0  0  0  0
 19 14  2  0  0  0  0
 20 21  2  0  0  0  0
 20 25  1  0  0  0  0
 21 22  1  0  0  0  0
 22 23  2  0  0  0  0
 23 26  1  0  0  0  0
 24 23  1  0  0  0  0
 25 24  2  0  0  0  0
 26 31  1  6  0  0  0
 26 27  1  0  0  0  0
 26 30  1  0  0  0  0
 27 28  1  0  0  0  0
 28 29  1  1  0  0  0
 30 28  1  0  0  0  0
 31 34  1  0  0  0  0
 32 31  1  0  0  0  0
 33 31  1  0  0  0  0
 35 28  1  0  0  0  0
 35 36  1  0  0  0  0
 37 38  1  0  0  0  0
 37 40  1  0  0  0  0
 38 39  2  0  0  0  0
 41 42  1  0  0  0  0
 42 37  1  0  0  0  0
M  END
>  <minimizedAffinity>
-12.131299

$$$$

 OpenBabel11232418523D

 42 47  0  0  1  0  0  0  0  0999 V2000
    7.1610   -0.0700   10.7440 C   0  0  0  0  0  0  0  0  0  0  0  0
    6.4510    0.2260    9.5740 C   0  0  0  0  0  3  0  0  0  0  0  0
    5.9880   -0.8110    8.7600 C   0  0  0  0  0  3  0  0  0  0  0  0
    6.2660   -2.1340    9.1010 C   0  0  0  0  0  0  0  0  0  0  0  0
    6.9880   -2.4270   10.2640 C   0  0  0  0  0  0  0  0  0  0  0  0
    7.4450   -1.3960   11.0850 C   0  0  0  0  0  3  0  0  0  0  0  0
    7.2110   -3.8190   10.5740 C   0  0  0  0  0  0  0  0  0  0  0  0
    7.6860   -4.3750   11.6640 N   0  0  0  0  0  0  0  0  0  0  0  0
    7.6780   -5.7340   11.4210 C   0  0  0  0  0  0  0  0  0  0  0  0
    7.1860   -6.0110   10.1490 C   0  0  0  0  0  0  0  0  0  0  0  0
    6.8890   -4.7640    9.6440 N   0  0  0  0  0  0  0  0  0  0  0  0
    6.3930   -4.4050    8.3290 C   0  0  0  0  0  2  0  0  0  0  0  0
    5.7520   -3.1110    8.2850 O   0  0  0  0  0  0  0  0  0  0  0  0
    6.9380   -7.2530    9.4320 C   0  0  0  0  0  0  0  0  0  0  0  0
    7.3620   -7.4040    8.1060 C   0  0  0  0  0  3  0  0  0  0  0  0
    7.1140   -8.5940    7.4190 C   0  0  0  0  0  3  0  0  0  0  0  0
    6.4420   -9.6370    8.0530 C   0  0  0  0  0  3  0  0  0  0  0  0
    6.0190   -9.4960    9.3740 C   0  0  0  0  0  3  0  0  0  0  0  0
    6.2670   -8.3070   10.0620 C   0  0  0  0  0  3  0  0  0  0  0  0
    8.1400   -6.6730   12.4330 C   0  0  0  0  0  0  0  0  0  0  0  0
    9.2230   -7.5280   12.2360 C   0  0  0  0  0  3  0  0  0  0  0  0
    9.6560   -8.3810   13.2610 C   0  0  0  0  0  3  0  0  0  0  0  0
    9.0350   -8.4120   14.5280 C   0  0  0  0  0  0  0  0  0  0  0  0
    7.9420   -7.5370   14.7000 C   0  0  0  0  0  3  0  0  0  0  0  0
    7.5070   -6.6850   13.6790 C   0  0  0  0  0  3  0  0  0  0  0  0
    9.5600   -9.3230   15.6980 C   0  0  1  0  0  0  0  0  0  0  0  0
    9.8920  -10.8220   15.4240 C   0  0  0  0  0  2  0  0  0  0  0  0
   10.9670  -10.7060   16.5470 C   0  0  1  0  0  0  0  0  0  0  0  0
   12.2250  -11.5230   16.3230 C   0  0  0  0  0  1  0  0  0  0  0  0
   11.0420   -9.1950   16.1750 C   0  0  0  0  0  2  0  0  0  0  0  0
    8.6090   -9.1900   16.8330 N   0  0  0  0  0  4  0  0  0  0  0  0
    8.5540   -8.2270   17.1810 H   0  0  0  0  0  0  0  0  0  0  0  0
    7.6600   -9.4800   16.5720 H   0  0  0  0  0  0  0  0  0  0  0  0
    8.9130   -9.7950   17.6210 H   0  0  0  0  0  0  0  0  0  0  0  0
   10.4220  -10.9320   17.8750 O   0  0  0  0  0  0  0  0  0  0  0  0
   11.1680  -11.2540   18.4230 H   0  0  0  0  0  0  0  0  0  0  0  0
    8.1560    0.7040   12.8670 N   0  0  0  0  0  0  0  0  0  0  0  0
    7.6870    1.0040   11.6140 C   0  0  0  0  0  0  0  0  0  0  0  0
    7.7190    2.1560   11.1950 O   0  0  0  0  0  0  0  0  0  0  0  0
    8.4240    1.5270   13.3960 H   0  0  0  0  0  0  0  0  0  0  0  0
    7.5940   -0.7040   14.7920 C   0  0  0  0  0  1  0  0  0  0  0  0
    8.3450   -0.5990   13.4780 C   0  0  0  0  0  2  0  0  0  0  0  0
  1  6  1  0  0  0  0
  1 38  1  0  0  0  0
  2  1  2  0  0  0  0
  3  4  2  0  0  0  0
  3  2  1  0  0  0  0
  4  5  1  0  0  0  0
  5  7  1  0  0  0  0
  5  6  2  0  0  0  0
  7  8  2  0  0  0  0
  9  8  1  0  0  0  0
  9 20  1  0  0  0  0
 10  9  2  0  0  0  0
 11 10  1  0  0  0  0
 11  7  1  0  0  0  0
 12 11  1  0  0  0  0
 13 12  1  0  0  0  0
 13  4  1  0  0  0  0
 14 19  1  0  0  0  0
 14 10  1  0  0  0  0
 15 14  2  0  0  0  0
 16 17  2  0  0  0  0
 16 15  1  0  0  0  0
 17 18  1  0  0  0  0
 18 19  2  0  0  0  0
 20 25  1  0  0  0  0
 21 20  2  0  0  0  0
 21 22  1  0  0  0  0
 22 23  2  0  0  0  0
 23 24  1  0  0  0  0
 23 26  1  0  0  0  0
 25 24  2  0  0  0  0
 26 30  1  0  0  0  0
 26 31  1  1  0  0  0
 27 26  1  0  0  0  0
 27 28  1  0  0  0  0
 28 29  1  6  0  0  0
 28 35  1  0  0  0  0
 30 28  1  0  0  0  0
 31 32  1  0  0  0  0
 31 34  1  0  0  0  0
 33 31  1  0  0  0  0
 35 36  1  0  0  0  0
 37 40  1  0  0  0  0
 37 42  1  0  0  0  0
 38 37  1  0  0  0  0
 39 38  2  0  0  0  0
 42 41  1  0  0  0  0
M  END
>  <minimizedAffinity>
-12.0891285

$$$$

 OpenBabel11232418523D

 42 47  0  0  1  0  0  0  0  0999 V2000
    7.0350   -8.7280    5.2570 C   0  0  0  0  0  0  0  0  0  0  0  0
    6.8590   -7.5500    4.5200 C   0  0  0  0  0  3  0  0  0  0  0  0
    6.8620   -6.3140    5.1730 C   0  0  0  0  0  3  0  0  0  0  0  0
    7.0080   -6.2640    6.5580 C   0  0  0  0  0  0  0  0  0  0  0  0
    7.1700   -7.4440    7.2940 C   0  0  0  0  0  0  0  0  0  0  0  0
    7.1760   -8.6800    6.6470 C   0  0  0  0  0  3  0  0  0  0  0  0
    7.3490   -7.3170    8.7210 C   0  0  0  0  0  0  0  0  0  0  0  0
    7.6950   -8.2180    9.6110 N   0  0  0  0  0  0  0  0  0  0  0  0
    7.7210   -7.5520   10.8210 C   0  0  0  0  0  0  0  0  0  0  0  0
    7.3800   -6.2130   10.6610 C   0  0  0  0  0  0  0  0  0  0  0  0
    7.1600   -6.0990    9.3060 N   0  0  0  0  0  0  0  0  0  0  0  0
    6.7190   -4.9450    8.5440 C   0  0  0  0  0  2  0  0  0  0  0  0
    7.0430   -5.0210    7.1380 O   0  0  0  0  0  0  0  0  0  0  0  0
    7.2960   -5.0940   11.5880 C   0  0  0  0  0  0  0  0  0  0  0  0
    6.0690   -4.7340   12.1580 C   0  0  0  0  0  3  0  0  0  0  0  0
    5.9930   -3.6550   13.0410 C   0  0  0  0  0  3  0  0  0  0  0  0
    7.1410   -2.9320   13.3590 C   0  0  0  0  0  3  0  0  0  0  0  0
    8.3670   -3.2860   12.7980 C   0  0  0  0  0  3  0  0  0  0  0  0
    8.4460   -4.3650   11.9160 C   0  0  0  0  0  3  0  0  0  0  0  0
    8.0770   -8.2520   12.0460 C   0  0  0  0  0  0  0  0  0  0  0  0
    9.3870   -8.3370   12.5170 C   0  0  0  0  0  3  0  0  0  0  0  0
    9.6700   -8.9850   13.7280 C   0  0  0  0  0  3  0  0  0  0  0  0
    8.6610   -9.5670   14.5250 C   0  0  0  0  0  0  0  0  0  0  0  0
    7.3470   -9.4670   14.0250 C   0  0  0  0  0  3  0  0  0  0  0  0
    7.0600   -8.8220   12.8160 C   0  0  0  0  0  3  0  0  0  0  0  0
    8.9710  -10.2390   15.9130 C   0  0  1  0  0  0  0  0  0  0  0  0
    8.8670  -11.7870   16.0660 C   0  0  0  0  0  2  0  0  0  0  0  0
    9.9850  -11.6750   17.1460 C   0  0  1  0  0  0  0  0  0  0  0  0
   10.9590  -12.8370   17.1900 C   0  0  0  0  0  1  0  0  0  0  0  0
   10.4530  -10.4020   16.3810 C   0  0  0  0  0  2  0  0  0  0  0  0
    8.1480   -9.5480   16.9410 N   0  0  0  0  0  4  0  0  0  0  0  0
    8.3760   -8.5510   17.0130 H   0  0  0  0  0  0  0  0  0  0  0  0
    7.1450   -9.6230   16.7400 H   0  0  0  0  0  0  0  0  0  0  0  0
    8.3120   -9.9790   17.8720 H   0  0  0  0  0  0  0  0  0  0  0  0
    9.4620  -11.3760   18.4700 O   0  0  0  0  0  0  0  0  0  0  0  0
   10.1170  -11.7320   19.1060 H   0  0  0  0  0  0  0  0  0  0  0  0
    8.1860  -10.6810    4.2790 N   0  0  0  0  0  0  0  0  0  0  0  0
    7.0110  -10.0530    4.6020 C   0  0  0  0  0  0  0  0  0  0  0  0
    5.9330  -10.5910    4.3720 O   0  0  0  0  0  0  0  0  0  0  0  0
    8.0440  -11.5480    3.7720 H   0  0  0  0  0  0  0  0  0  0  0  0
   10.0320   -9.1840    3.6830 C   0  0  0  0  0  1  0  0  0  0  0  0
    9.5450  -10.2870    4.6040 C   0  0  0  0  0  2  0  0  0  0  0  0
  1  6  1  0  0  0  0
  2  3  1  0  0  0  0
  2  1  2  0  0  0  0
  3  4  2  0  0  0  0
  4 13  1  0  0  0  0
  4  5  1  0  0  0  0
  5  7  1  0  0  0  0
  6  5  2  0  0  0  0
  7 11  1  0  0  0  0
  7  8  2  0  0  0  0
  8  9  1  0  0  0  0
  9 20  1  0  0  0  0
 10  9  2  0  0  0  0
 10 14  1  0  0  0  0
 11 10  1  0  0  0  0
 12 11  1  0  0  0  0
 13 12  1  0  0  0  0
 14 19  2  0  0  0  0
 14 15  1  0  0  0  0
 15 16  2  0  0  0  0
 16 17  1  0  0  0  0
 18 17  2  0  0  0  0
 19 18  1  0  0  0  0
 20 21  2  0  0  0  0
 20 25  1  0  0  0  0
 21 22  1  0  0  0  0
 22 23  2  0  0  0  0
 23 26  1  0  0  0  0
 24 23  1  0  0  0  0
 25 24  2  0  0  0  0
 26 27  1  0  0  0  0
 26 30  1  0  0  0  0
 26 31  1  1  0  0  0
 27 28  1  0  0  0  0
 28 29  1  6  0  0  0
 28 35  1  0  0  0  0
 30 28  1  0  0  0  0
 31 32  1  0  0  0  0
 31 34  1  0  0  0  0
 33 31  1  0  0  0  0
 35 36  1  0  0  0  0
 37 38  1  0  0  0  0
 37 42  1  0  0  0  0
 38  1  1  0  0  0  0
 39 38  2  0  0  0  0
 40 37  1  0  0  0  0
 41 42  1  0  0  0  0
M  END
>  <minimizedAffinity>
-11.8274212

$$$$

 OpenBabel11232418523D

 42 47  0  0  1  0  0  0  0  0999 V2000
    6.8030   -7.6880    6.5840 C   0  0  0  0  0  0  0  0  0  0  0  0
    6.3490   -6.6370    5.7780 C   0  0  0  0  0  3  0  0  0  0  0  0
    6.2750   -5.3420    6.2970 C   0  0  0  0  0  3  0  0  0  0  0  0
    6.6240   -5.1100    7.6270 C   0  0  0  0  0  0  0  0  0  0  0  0
    7.0650   -6.1650    8.4350 C   0  0  0  0  0  0  0  0  0  0  0  0
    7.1480   -7.4580    7.9190 C   0  0  0  0  0  3  0  0  0  0  0  0
    7.4410   -5.8480    9.7930 C   0  0  0  0  0  0  0  0  0  0  0  0
    8.0450   -6.5860   10.6940 N   0  0  0  0  0  0  0  0  0  0  0  0
    8.1620   -5.7840   11.8130 C   0  0  0  0  0  0  0  0  0  0  0  0
    7.6120   -4.5260   11.5840 C   0  0  0  0  0  0  0  0  0  0  0  0
    7.1730   -4.6020   10.2810 N   0  0  0  0  0  0  0  0  0  0  0  0
    6.4590   -3.6110    9.4970 C   0  0  0  0  0  2  0  0  0  0  0  0
    6.5700   -3.8130    8.0700 O   0  0  0  0  0  0  0  0  0  0  0  0
    7.5130   -3.3250   12.4000 C   0  0  0  0  0  0  0  0  0  0  0  0
    8.5480   -2.3810   12.4030 C   0  0  0  0  0  3  0  0  0  0  0  0
    8.4520   -1.2350   13.1940 C   0  0  0  0  0  3  0  0  0  0  0  0
    7.3230   -1.0260   13.9850 C   0  0  0  0  0  3  0  0  0  0  0  0
    6.2880   -1.9590   13.9850 C   0  0  0  0  0  3  0  0  0  0  0  0
    6.3810   -3.1060   13.1940 C   0  0  0  0  0  3  0  0  0  0  0  0
    8.7990   -6.2840   13.0220 C   0  0  0  0  0  0  0  0  0  0  0  0
    8.8770   -5.5410   14.2000 C   0  0  0  0  0  3  0  0  0  0  0  0
    9.4620   -6.0880   15.3510 C   0  0  0  0  0  3  0  0  0  0  0  0
    9.9850   -7.3980   15.3810 C   0  0  0  0  0  0  0  0  0  0  0  0
    9.8930   -8.1250   14.1770 C   0  0  0  0  0  3  0  0  0  0  0  0
    9.3110   -7.5840   13.0260 C   0  0  0  0  0  3  0  0  0  0  0  0
   10.5840   -8.0320   16.6910 C   0  0  1  0  0  0  0  0  0  0  0  0
    9.8480   -9.2190   17.3830 C   0  0  0  0  0  2  0  0  0  0  0  0
   11.2500   -9.7060   17.8600 C   0  0  1  0  0  0  0  0  0  0  0  0
   11.4240  -11.2110   17.9250 C   0  0  0  0  0  1  0  0  0  0  0  0
   11.8120   -8.9920   16.5940 C   0  0  0  0  0  2  0  0  0  0  0  0
   10.8310   -6.9270   17.6530 N   0  0  0  0  0  4  0  0  0  0  0  0
   11.5060   -6.2440   17.2940 H   0  0  0  0  0  0  0  0  0  0  0  0
    9.9690   -6.4200   17.8810 H   0  0  0  0  0  0  0  0  0  0  0  0
   11.2100   -7.3110   18.5410 H   0  0  0  0  0  0  0  0  0  0  0  0
   11.6760   -9.0730   19.0970 O   0  0  0  0  0  0  0  0  0  0  0  0
   12.2990   -9.7000   19.5220 H   0  0  0  0  0  0  0  0  0  0  0  0
    7.2210   -9.3100    4.7700 N   0  0  0  0  0  0  0  0  0  0  0  0
    6.8680   -9.0740    6.0730 C   0  0  0  0  0  0  0  0  0  0  0  0
    6.6250  -10.0060    6.8320 O   0  0  0  0  0  0  0  0  0  0  0  0
    7.1630  -10.2900    4.5160 H   0  0  0  0  0  0  0  0  0  0  0  0
    9.1900   -8.1600    3.8720 C   0  0  0  0  0  1  0  0  0  0  0  0
    7.6900   -8.3660    3.7720 C   0  0  0  0  0  2  0  0  0  0  0  0
  1  6  1  0  0  0  0
  2  3  1  0  0  0  0
  2  1  2  0  0  0  0
  3  4  2  0  0  0  0
  4 13  1  0  0  0  0
  4  5  1  0  0  0  0
  5  7  1  0  0  0  0
  6  5  2  0  0  0  0
  7 11  1  0  0  0  0
  7  8  2  0  0  0  0
  8  9  1  0  0  0  0
  9 20  1  0  0  0  0
 10  9  2  0  0  0  0
 10 14  1  0  0  0  0
 11 10  1  0  0  0  0
 12 11  1  0  0  0  0
 13 12  1  0  0  0  0
 14 15  2  0  0  0  0
 14 19  1  0  0  0  0
 15 16  1  0  0  0  0
 16 17  2  0  0  0  0
 17 18  1  0  0  0  0
 19 18  2  0  0  0  0
 20 25  2  0  0  0  0
 20 21  1  0  0  0  0
 21 22  2  0  0  0  0
 22 23  1  0  0  0  0
 23 26  1  0  0  0  0
 24 23  2  0  0  0  0
 25 24  1  0  0  0  0
 26 27  1  0  0  0  0
 26 31  1  1  0  0  0
 27 28  1  0  0  0  0
 28 29  1  6  0  0  0
 28 35  1  0  0  0  0
 30 26  1  0  0  0  0
 30 28  1  0  0  0  0
 31 33  1  0  0  0  0
 31 34  1  0  0  0  0
 32 31  1  0  0  0  0
 35 36  1  0  0  0  0
 37 38  1  0  0  0  0
 38  1  1  0  0  0  0
 38 39  2  0  0  0  0
 40 37  1  0  0  0  0
 42 41  1  0  0  0  0
 42 37  1  0  0  0  0
M  END
>  <minimizedAffinity>
-11.5415812

$$$$

 OpenBabel11232418523D

 42 47  0  0  1  0  0  0  0  0999 V2000
    6.6540   -0.6560   11.0240 C   0  0  0  0  0  0  0  0  0  0  0  0
    7.0340   -0.3710   12.3420 C   0  0  0  0  0  3  0  0  0  0  0  0
    7.5030   -1.3950   13.1690 C   0  0  0  0  0  3  0  0  0  0  0  0
    7.5610   -2.7020   12.6860 C   0  0  0  0  0  0  0  0  0  0  0  0
    7.1680   -2.9870   11.3730 C   0  0  0  0  0  0  0  0  0  0  0  0
    6.7060   -1.9670   10.5400 C   0  0  0  0  0  3  0  0  0  0  0  0
    7.2850   -4.3560   10.9280 C   0  0  0  0  0  0  0  0  0  0  0  0
    7.1640   -4.8640    9.7240 N   0  0  0  0  0  0  0  0  0  0  0  0
    7.3800   -6.2210    9.8710 C   0  0  0  0  0  0  0  0  0  0  0  0
    7.6360   -6.5430   11.2000 C   0  0  0  0  0  0  0  0  0  0  0  0
    7.5780   -5.3260   11.8420 N   0  0  0  0  0  0  0  0  0  0  0  0
    7.7090   -5.0300   13.2560 C   0  0  0  0  0  2  0  0  0  0  0  0
    8.0680   -3.6580   13.5300 O   0  0  0  0  0  0  0  0  0  0  0  0
    7.9600   -7.7940   11.8710 C   0  0  0  0  0  0  0  0  0  0  0  0
    6.9540   -8.5540   12.4810 C   0  0  0  0  0  3  0  0  0  0  0  0
    7.2710   -9.7480   13.1310 C   0  0  0  0  0  3  0  0  0  0  0  0
    8.5930  -10.1900   13.1730 C   0  0  0  0  0  3  0  0  0  0  0  0
    9.5990   -9.4410   12.5650 C   0  0  0  0  0  3  0  0  0  0  0  0
    9.2840   -8.2460   11.9150 C   0  0  0  0  0  3  0  0  0  0  0  0
    7.3280   -7.1100    8.7200 C   0  0  0  0  0  0  0  0  0  0  0  0
    7.7440   -6.7250    7.4460 C   0  0  0  0  0  3  0  0  0  0  0  0
    7.7160   -7.6370    6.3810 C   0  0  0  0  0  3  0  0  0  0  0  0
    7.2820   -8.9700    6.5400 C   0  0  0  0  0  0  0  0  0  0  0  0
    6.8670   -9.3310    7.8380 C   0  0  0  0  0  3  0  0  0  0  0  0
    6.8920   -8.4250    8.9040 C   0  0  0  0  0  3  0  0  0  0  0  0
    7.3100  -10.0090    5.3590 C   0  0  1  0  0  0  0  0  0  0  0  0
    6.2300   -9.9350    4.2370 C   0  0  0  0  0  2  0  0  0  0  0  0
    7.3090  -10.5160    3.2720 C   0  0  1  0  0  0  0  0  0  0  0  0
    7.2460   -9.9980    1.8480 C   0  0  0  0  0  1  0  0  0  0  0  0
    8.3570   -9.8490    4.2110 C   0  0  0  0  0  2  0  0  0  0  0  0
    7.3620  -11.3690    5.9580 N   0  0  0  0  0  4  0  0  0  0  0  0
    8.2040  -11.5100    6.5240 H   0  0  0  0  0  0  0  0  0  0  0  0
    6.5500  -11.5530    6.5570 H   0  0  0  0  0  0  0  0  0  0  0  0
    7.3610  -12.0850    5.2050 H   0  0  0  0  0  0  0  0  0  0  0  0
    7.3700  -11.9680    3.3030 O   0  0  0  0  0  0  0  0  0  0  0  0
    7.7210  -12.2420    2.4300 H   0  0  0  0  0  0  0  0  0  0  0  0
    6.7400    1.6240   10.0820 N   0  0  0  0  0  0  0  0  0  0  0  0
    6.1290    0.3980   10.1310 C   0  0  0  0  0  0  0  0  0  0  0  0
    5.1570    0.1570    9.4220 O   0  0  0  0  0  0  0  0  0  0  0  0
    6.2510    2.2860    9.4900 H   0  0  0  0  0  0  0  0  0  0  0  0
    9.1310    2.0340    9.7340 C   0  0  0  0  0  1  0  0  0  0  0  0
    7.9750    2.0480   10.7170 C   0  0  0  0  0  2  0  0  0  0  0  0
  1  2  1  0  0  0  0
  2  3  2  0  0  0  0
  4  3  1  0  0  0  0
  4 13  1  0  0  0  0
  5  4  2  0  0  0  0
  6  1  2  0  0  0  0
  6  5  1  0  0  0  0
  7  5  1  0  0  0  0
  7 11  1  0  0  0  0
  8  9  1  0  0  0  0
  8  7  2  0  0  0  0
  9 10  2  0  0  0  0
 10 11  1  0  0  0  0
 10 14  1  0  0  0  0
 11 12  1  0  0  0  0
 12 13  1  0  0  0  0
 14 19  2  0  0  0  0
 14 15  1  0  0  0  0
 15 16  2  0  0  0  0
 16 17  1  0  0  0  0
 18 17  2  0  0  0  0
 19 18  1  0  0  0  0
 20 25  1  0  0  0  0
 20  9  1  0  0  0  0
 21 20  2  0  0  0  0
 22 23  2  0  0  0  0
 22 21  1  0  0  0  0
 23 24  1  0  0  0  0
 24 25  2  0  0  0  0
 26 31  1  1  0  0  0
 26 23  1  0  0  0  0
 27 26  1  0  0  0  0
 28 29  1  6  0  0  0
 28 35  1  0  0  0  0
 28 30  1  0  0  0  0
 28 27  1  0  0  0  0
 30 26  1  0  0  0  0
 31 32  1  0  0  0  0
 31 33  1  0  0  0  0
 34 31  1  0  0  0  0
 36 35  1  0  0  0  0
 37 38  1  0  0  0  0
 37 42  1  0  0  0  0
 38  1  1  0  0  0  0
 39 38  2  0  0  0  0
 40 37  1  0  0  0  0
 41 42  1  0  0  0  0
M  END
>  <minimizedAffinity>
-11.2384462

$$$$

 OpenBabel11232418523D

 42 47  0  0  1  0  0  0  0  0999 V2000
   10.4130  -10.2270   15.8160 C   0  0  0  0  0  0  0  0  0  0  0  0
   10.5450   -9.6740   17.0950 C   0  0  0  0  0  3  0  0  0  0  0  0
   10.1590   -8.3510   17.3260 C   0  0  0  0  0  3  0  0  0  0  0  0
    9.6740   -7.5790   16.2710 C   0  0  0  0  0  0  0  0  0  0  0  0
    9.5560   -8.1290   14.9900 C   0  0  0  0  0  0  0  0  0  0  0  0
    9.9320   -9.4520   14.7560 C   0  0  0  0  0  3  0  0  0  0  0  0
    9.0160   -7.2830   13.9520 C   0  0  0  0  0  0  0  0  0  0  0  0
    8.6340   -7.5840   12.7320 N   0  0  0  0  0  0  0  0  0  0  0  0
    8.1950   -6.3980   12.1780 C   0  0  0  0  0  0  0  0  0  0  0  0
    8.3150   -5.3490   13.0850 C   0  0  0  0  0  0  0  0  0  0  0  0
    8.8320   -5.9560   14.2080 N   0  0  0  0  0  0  0  0  0  0  0  0
    9.2270   -5.3590   15.4700 C   0  0  0  0  0  2  0  0  0  0  0  0
    9.2740   -6.3000   16.5660 O   0  0  0  0  0  0  0  0  0  0  0  0
    7.9660   -3.9370   13.0190 C   0  0  0  0  0  0  0  0  0  0  0  0
    8.8760   -3.0040   12.5080 C   0  0  0  0  0  3  0  0  0  0  0  0
    8.5400   -1.6500   12.4550 C   0  0  0  0  0  3  0  0  0  0  0  0
    7.2930   -1.2230   12.9100 C   0  0  0  0  0  3  0  0  0  0  0  0
    6.3810   -2.1460   13.4170 C   0  0  0  0  0  3  0  0  0  0  0  0
    6.7150   -3.5010   13.4710 C   0  0  0  0  0  3  0  0  0  0  0  0
    7.6850   -6.3580   10.8150 C   0  0  0  0  0  0  0  0  0  0  0  0
    7.0350   -5.2460   10.2810 C   0  0  0  0  0  3  0  0  0  0  0  0
    6.6040   -5.2440    8.9470 C   0  0  0  0  0  3  0  0  0  0  0  0
    6.8090   -6.3430    8.0870 C   0  0  0  0  0  0  0  0  0  0  0  0
    7.4680   -7.4540    8.6530 C   0  0  0  0  0  3  0  0  0  0  0  0
    7.8990   -7.4610    9.9840 C   0  0  0  0  0  3  0  0  0  0  0  0
    6.3810   -6.3150    6.5730 C   0  0  1  0  0  0  0  0  0  0  0  0
    5.0790   -5.5690    6.1500 C   0  0  0  0  0  2  0  0  0  0  0  0
    5.7800   -5.2880    4.7850 C   0  0  1  0  0  0  0  0  0  0  0  0
    5.4420   -3.9530    4.1500 C   0  0  0  0  0  1  0  0  0  0  0  0
    7.1190   -5.3660    5.5760 C   0  0  0  0  0  2  0  0  0  0  0  0
    6.3710   -7.7190    6.0830 N   0  0  0  0  0  4  0  0  0  0  0  0
    7.2970   -8.1560    6.1430 H   0  0  0  0  0  0  0  0  0  0  0  0
    5.7170   -8.3040    6.6140 H   0  0  0  0  0  0  0  0  0  0  0  0
    6.0730   -7.7430    5.0880 H   0  0  0  0  0  0  0  0  0  0  0  0
    5.6230   -6.3790    3.8360 O   0  0  0  0  0  0  0  0  0  0  0  0
    5.6980   -5.9750    2.9460 H   0  0  0  0  0  0  0  0  0  0  0  0
    9.8970  -12.6060   15.4010 N   0  0  0  0  0  0  0  0  0  0  0  0
   10.8360  -11.6150   15.5320 C   0  0  0  0  0  0  0  0  0  0  0  0
   12.0290  -11.8630   15.3930 O   0  0  0  0  0  0  0  0  0  0  0  0
   10.3080  -13.5250   15.2780 H   0  0  0  0  0  0  0  0  0  0  0  0
    7.9200  -12.5460   13.9550 C   0  0  0  0  0  1  0  0  0  0  0  0
    8.4500  -12.4870   15.3750 C   0  0  0  0  0  2  0  0  0  0  0  0
  1  2  1  0  0  0  0
  2  3  2  0  0  0  0
  4 13  1  0  0  0  0
  4  3  1  0  0  0  0
  5  4  2  0  0  0  0
  6  5  1  0  0  0  0
  6  1  2  0  0  0  0
  7 11  1  0  0  0  0
  7  5  1  0  0  0  0
  8  7  2  0  0  0  0
  9  8  1  0  0  0  0
  9 10  2  0  0  0  0
 10 11  1  0  0  0  0
 11 12  1  0  0  0  0
 12 13  1  0  0  0  0
 14 10  1  0  0  0  0
 14 19  1  0  0  0  0
 15 14  2  0  0  0  0
 16 15  1  0  0  0  0
 16 17  2  0  0  0  0
 17 18  1  0  0  0  0
 18 19  2  0  0  0  0
 20  9  1  0  0  0  0
 21 20  1  0  0  0  0
 22 21  2  0  0  0  0
 23 24  2  0  0  0  0
 23 22  1  0  0  0  0
 24 25  1  0  0  0  0
 25 20  2  0  0  0  0
 26 31  1  6  0  0  0
 26 23  1  0  0  0  0
 27 26  1  0  0  0  0
 28 29  1  6  0  0  0
 28 30  1  0  0  0  0
 28 27  1  0  0  0  0
 30 26  1  0  0  0  0
 31 32  1  0  0  0  0
 31 33  1  0  0  0  0
 34 31  1  0  0  0  0
 35 28  1  0  0  0  0
 36 35  1  0  0  0  0
 37 38  1  0  0  0  0
 38  1  1  0  0  0  0
 39 38  2  0  0  0  0
 40 37  1  0  0  0  0
 41 42  1  0  0  0  0
 42 37  1  0  0  0  0
M  END
>  <minimizedAffinity>
-11.0742779

$$$$
