
 OpenBabel11232418523D

 42 47  0  0  1  0  0  0  0  0999 V2000
    6.9260   -0.7940   10.9510 C   0  0  0  0  0  0  0  0  0  0  0  0
    6.4030   -0.2990    9.7500 C   0  0  0  0  0  3  0  0  0  0  0  0
    6.1090   -1.1780    8.7040 C   0  0  0  0  0  3  0  0  0  0  0  0
    6.3690   -2.5400    8.8510 C   0  0  0  0  0  0  0  0  0  0  0  0
    6.9040   -3.0310   10.0470 C   0  0  0  0  0  0  0  0  0  0  0  0
    7.1920   -2.1590   11.0990 C   0  0  0  0  0  3  0  0  0  0  0  0
    7.1170   -4.4550   10.1440 C   0  0  0  0  0  0  0  0  0  0  0  0
    7.4280   -5.1930   11.1840 N   0  0  0  0  0  0  0  0  0  0  0  0
    7.5000   -6.4890   10.7110 C   0  0  0  0  0  0  0  0  0  0  0  0
    7.2270   -6.5380    9.3470 C   0  0  0  0  0  0  0  0  0  0  0  0
    6.9770   -5.2230    9.0240 N   0  0  0  0  0  0  0  0  0  0  0  0
    6.6880   -4.6380    7.7280 C   0  0  0  0  0  2  0  0  0  0  0  0
    6.0220   -3.3580    7.8060 O   0  0  0  0  0  0  0  0  0  0  0  0
    7.1350   -7.6340    8.3940 C   0  0  0  0  0  0  0  0  0  0  0  0
    6.4340   -8.8020    8.7200 C   0  0  0  0  0  3  0  0  0  0  0  0
    6.3560   -9.8540    7.8060 C   0  0  0  0  0  3  0  0  0  0  0  0
    6.9780   -9.7450    6.5630 C   0  0  0  0  0  3  0  0  0  0  0  0
    7.6750   -8.5850    6.2300 C   0  0  0  0  0  3  0  0  0  0  0  0
    7.7530   -7.5310    7.1420 C   0  0  0  0  0  3  0  0  0  0  0  0
    7.8220   -7.5900   11.6070 C   0  0  0  0  0  0  0  0  0  0  0  0
    9.1240   -8.0480   11.8070 C   0  0  0  0  0  3  0  0  0  0  0  0
    9.3850   -9.0830   12.7170 C   0  0  0  0  0  3  0  0  0  0  0  0
    8.3630   -9.6980   13.4710 C   0  0  0  0  0  0  0  0  0  0  0  0
    7.0570   -9.2160   13.2480 C   0  0  0  0  0  3  0  0  0  0  0  0
    6.7920   -8.1840   12.3410 C   0  0  0  0  0  3  0  0  0  0  0  0
    8.6640  -10.8160   14.5370 C   0  0  1  0  0  0  0  0  0  0  0  0
   10.0360  -10.8300   15.2780 C   0  0  0  0  0  2  0  0  0  0  0  0
    9.2850  -11.4650   16.4870 C   0  0  1  0  0  0  0  0  0  0  0  0
    9.7930  -11.0490   17.8540 C   0  0  0  0  0  1  0  0  0  0  0  0
    8.0210  -10.7250   15.9570 C   0  0  0  0  0  2  0  0  0  0  0  0
    8.3920  -12.1300   13.8980 N   0  0  0  0  0  4  0  0  0  0  0  0
    7.4140  -12.2240   13.6080 H   0  0  0  0  0  0  0  0  0  0  0  0
    8.9780  -12.2800   13.0690 H   0  0  0  0  0  0  0  0  0  0  0  0
    8.6000  -12.8970   14.5680 H   0  0  0  0  0  0  0  0  0  0  0  0
    9.1730  -12.9120   16.3850 O   0  0  0  0  0  0  0  0  0  0  0  0
    9.0960  -13.2420   17.3050 H   0  0  0  0  0  0  0  0  0  0  0  0
    7.8000    1.3490   11.8110 N   0  0  0  0  0  0  0  0  0  0  0  0
    7.2720    0.1100   12.0680 C   0  0  0  0  0  0  0  0  0  0  0  0
    7.0620   -0.2510   13.2220 O   0  0  0  0  0  0  0  0  0  0  0  0
    8.0620    1.8490   12.6530 H   0  0  0  0  0  0  0  0  0  0  0  0
    9.3910    1.8390   10.0130 C   0  0  0  0  0  1  0  0  0  0  0  0
    7.9750    2.0120   10.5310 C   0  0  0  0  0  2  0  0  0  0  0  0
  1  6  1  0  0  0  0
  1 38  1  0  0  0  0
  2  1  2  0  0  0  0
  3  4  2  0  0  0  0
  3  2  1  0  0  0  0
  4  5  1  0  0  0  0
  5  7  1  0  0  0  0
  5  6  2  0  0  0  0
  7  8  2  0  0  0  0
  9  8  1  0  0  0  0
  9 20  1  0  0  0  0
 10  9  2  0  0  0  0
 11 10  1  0  0  0  0
 11  7  1  0  0  0  0
 12 13  1  0  0  0  0
 12 11  1  0  0  0  0
 13  4  1  0  0  0  0
 14 15  1  0  0  0  0
 14 10  1  0  0  0  0
 16 15  2  0  0  0  0
 17 16  1  0  0  0  0
 18 17  2  0  0  0  0
 18 19  1  0  0  0  0
 19 14  2  0  0  0  0
 20 21  2  0  0  0  0
 20 25  1  0  0  0  0
 21 22  1  0  0  0  0
 22 23  2  0  0  0  0
 23 26  1  0  0  0  0
 24 23  1  0  0  0  0
 25 24  2  0  0  0  0
 26 31  1  6  0  0  0
 26 27  1  0  0  0  0
 26 30  1  0  0  0  0
 27 28  1  0  0  0  0
 28 29  1  1  0  0  0
 30 28  1  0  0  0  0
 31 34  1  0  0  0  0
 32 31  1  0  0  0  0
 33 31  1  0  0  0  0
 35 28  1  0  0  0  0
 35 36  1  0  0  0  0
 37 38  1  0  0  0  0
 37 40  1  0  0  0  0
 38 39  2  0  0  0  0
 41 42  1  0  0  0  0
 42 37  1  0  0  0  0
M  END
>  <minimizedAffinity>
-12.131299

$$$$
