
 OpenBabel11232418523D

 42 47  0  0  1  0  0  0  0  0999 V2000
   10.4130  -10.2270   15.8160 C   0  0  0  0  0  0  0  0  0  0  0  0
   10.5450   -9.6740   17.0950 C   0  0  0  0  0  3  0  0  0  0  0  0
   10.1590   -8.3510   17.3260 C   0  0  0  0  0  3  0  0  0  0  0  0
    9.6740   -7.5790   16.2710 C   0  0  0  0  0  0  0  0  0  0  0  0
    9.5560   -8.1290   14.9900 C   0  0  0  0  0  0  0  0  0  0  0  0
    9.9320   -9.4520   14.7560 C   0  0  0  0  0  3  0  0  0  0  0  0
    9.0160   -7.2830   13.9520 C   0  0  0  0  0  0  0  0  0  0  0  0
    8.6340   -7.5840   12.7320 N   0  0  0  0  0  0  0  0  0  0  0  0
    8.1950   -6.3980   12.1780 C   0  0  0  0  0  0  0  0  0  0  0  0
    8.3150   -5.3490   13.0850 C   0  0  0  0  0  0  0  0  0  0  0  0
    8.8320   -5.9560   14.2080 N   0  0  0  0  0  0  0  0  0  0  0  0
    9.2270   -5.3590   15.4700 C   0  0  0  0  0  2  0  0  0  0  0  0
    9.2740   -6.3000   16.5660 O   0  0  0  0  0  0  0  0  0  0  0  0
    7.9660   -3.9370   13.0190 C   0  0  0  0  0  0  0  0  0  0  0  0
    8.8760   -3.0040   12.5080 C   0  0  0  0  0  3  0  0  0  0  0  0
    8.5400   -1.6500   12.4550 C   0  0  0  0  0  3  0  0  0  0  0  0
    7.2930   -1.2230   12.9100 C   0  0  0  0  0  3  0  0  0  0  0  0
    6.3810   -2.1460   13.4170 C   0  0  0  0  0  3  0  0  0  0  0  0
    6.7150   -3.5010   13.4710 C   0  0  0  0  0  3  0  0  0  0  0  0
    7.6850   -6.3580   10.8150 C   0  0  0  0  0  0  0  0  0  0  0  0
    7.0350   -5.2460   10.2810 C   0  0  0  0  0  3  0  0  0  0  0  0
    6.6040   -5.2440    8.9470 C   0  0  0  0  0  3  0  0  0  0  0  0
    6.8090   -6.3430    8.0870 C   0  0  0  0  0  0  0  0  0  0  0  0
    7.4680   -7.4540    8.6530 C   0  0  0  0  0  3  0  0  0  0  0  0
    7.8990   -7.4610    9.9840 C   0  0  0  0  0  3  0  0  0  0  0  0
    6.3810   -6.3150    6.5730 C   0  0  1  0  0  0  0  0  0  0  0  0
    5.0790   -5.5690    6.1500 C   0  0  0  0  0  2  0  0  0  0  0  0
    5.7800   -5.2880    4.7850 C   0  0  1  0  0  0  0  0  0  0  0  0
    5.4420   -3.9530    4.1500 C   0  0  0  0  0  1  0  0  0  0  0  0
    7.1190   -5.3660    5.5760 C   0  0  0  0  0  2  0  0  0  0  0  0
    6.3710   -7.7190    6.0830 N   0  0  0  0  0  4  0  0  0  0  0  0
    7.2970   -8.1560    6.1430 H   0  0  0  0  0  0  0  0  0  0  0  0
    5.7170   -8.3040    6.6140 H   0  0  0  0  0  0  0  0  0  0  0  0
    6.0730   -7.7430    5.0880 H   0  0  0  0  0  0  0  0  0  0  0  0
    5.6230   -6.3790    3.8360 O   0  0  0  0  0  0  0  0  0  0  0  0
    5.6980   -5.9750    2.9460 H   0  0  0  0  0  0  0  0  0  0  0  0
    9.8970  -12.6060   15.4010 N   0  0  0  0  0  0  0  0  0  0  0  0
   10.8360  -11.6150   15.5320 C   0  0  0  0  0  0  0  0  0  0  0  0
   12.0290  -11.8630   15.3930 O   0  0  0  0  0  0  0  0  0  0  0  0
   10.3080  -13.5250   15.2780 H   0  0  0  0  0  0  0  0  0  0  0  0
    7.9200  -12.5460   13.9550 C   0  0  0  0  0  1  0  0  0  0  0  0
    8.4500  -12.4870   15.3750 C   0  0  0  0  0  2  0  0  0  0  0  0
  1  2  1  0  0  0  0
  2  3  2  0  0  0  0
  4 13  1  0  0  0  0
  4  3  1  0  0  0  0
  5  4  2  0  0  0  0
  6  5  1  0  0  0  0
  6  1  2  0  0  0  0
  7 11  1  0  0  0  0
  7  5  1  0  0  0  0
  8  7  2  0  0  0  0
  9  8  1  0  0  0  0
  9 10  2  0  0  0  0
 10 11  1  0  0  0  0
 11 12  1  0  0  0  0
 12 13  1  0  0  0  0
 14 10  1  0  0  0  0
 14 19  1  0  0  0  0
 15 14  2  0  0  0  0
 16 15  1  0  0  0  0
 16 17  2  0  0  0  0
 17 18  1  0  0  0  0
 18 19  2  0  0  0  0
 20  9  1  0  0  0  0
 21 20  1  0  0  0  0
 22 21  2  0  0  0  0
 23 24  2  0  0  0  0
 23 22  1  0  0  0  0
 24 25  1  0  0  0  0
 25 20  2  0  0  0  0
 26 31  1  6  0  0  0
 26 23  1  0  0  0  0
 27 26  1  0  0  0  0
 28 29  1  6  0  0  0
 28 30  1  0  0  0  0
 28 27  1  0  0  0  0
 30 26  1  0  0  0  0
 31 32  1  0  0  0  0
 31 33  1  0  0  0  0
 34 31  1  0  0  0  0
 35 28  1  0  0  0  0
 36 35  1  0  0  0  0
 37 38  1  0  0  0  0
 38  1  1  0  0  0  0
 39 38  2  0  0  0  0
 40 37  1  0  0  0  0
 41 42  1  0  0  0  0
 42 37  1  0  0  0  0
M  END
>  <minimizedAffinity>
-11.0742779

$$$$
