
 OpenBabel11232418523D

 42 47  0  0  1  0  0  0  0  0999 V2000
    6.6540   -0.6560   11.0240 C   0  0  0  0  0  0  0  0  0  0  0  0
    7.0340   -0.3710   12.3420 C   0  0  0  0  0  3  0  0  0  0  0  0
    7.5030   -1.3950   13.1690 C   0  0  0  0  0  3  0  0  0  0  0  0
    7.5610   -2.7020   12.6860 C   0  0  0  0  0  0  0  0  0  0  0  0
    7.1680   -2.9870   11.3730 C   0  0  0  0  0  0  0  0  0  0  0  0
    6.7060   -1.9670   10.5400 C   0  0  0  0  0  3  0  0  0  0  0  0
    7.2850   -4.3560   10.9280 C   0  0  0  0  0  0  0  0  0  0  0  0
    7.1640   -4.8640    9.7240 N   0  0  0  0  0  0  0  0  0  0  0  0
    7.3800   -6.2210    9.8710 C   0  0  0  0  0  0  0  0  0  0  0  0
    7.6360   -6.5430   11.2000 C   0  0  0  0  0  0  0  0  0  0  0  0
    7.5780   -5.3260   11.8420 N   0  0  0  0  0  0  0  0  0  0  0  0
    7.7090   -5.0300   13.2560 C   0  0  0  0  0  2  0  0  0  0  0  0
    8.0680   -3.6580   13.5300 O   0  0  0  0  0  0  0  0  0  0  0  0
    7.9600   -7.7940   11.8710 C   0  0  0  0  0  0  0  0  0  0  0  0
    6.9540   -8.5540   12.4810 C   0  0  0  0  0  3  0  0  0  0  0  0
    7.2710   -9.7480   13.1310 C   0  0  0  0  0  3  0  0  0  0  0  0
    8.5930  -10.1900   13.1730 C   0  0  0  0  0  3  0  0  0  0  0  0
    9.5990   -9.4410   12.5650 C   0  0  0  0  0  3  0  0  0  0  0  0
    9.2840   -8.2460   11.9150 C   0  0  0  0  0  3  0  0  0  0  0  0
    7.3280   -7.1100    8.7200 C   0  0  0  0  0  0  0  0  0  0  0  0
    7.7440   -6.7250    7.4460 C   0  0  0  0  0  3  0  0  0  0  0  0
    7.7160   -7.6370    6.3810 C   0  0  0  0  0  3  0  0  0  0  0  0
    7.2820   -8.9700    6.5400 C   0  0  0  0  0  0  0  0  0  0  0  0
    6.8670   -9.3310    7.8380 C   0  0  0  0  0  3  0  0  0  0  0  0
    6.8920   -8.4250    8.9040 C   0  0  0  0  0  3  0  0  0  0  0  0
    7.3100  -10.0090    5.3590 C   0  0  1  0  0  0  0  0  0  0  0  0
    6.2300   -9.9350    4.2370 C   0  0  0  0  0  2  0  0  0  0  0  0
    7.3090  -10.5160    3.2720 C   0  0  1  0  0  0  0  0  0  0  0  0
    7.2460   -9.9980    1.8480 C   0  0  0  0  0  1  0  0  0  0  0  0
    8.3570   -9.8490    4.2110 C   0  0  0  0  0  2  0  0  0  0  0  0
    7.3620  -11.3690    5.9580 N   0  0  0  0  0  4  0  0  0  0  0  0
    8.2040  -11.5100    6.5240 H   0  0  0  0  0  0  0  0  0  0  0  0
    6.5500  -11.5530    6.5570 H   0  0  0  0  0  0  0  0  0  0  0  0
    7.3610  -12.0850    5.2050 H   0  0  0  0  0  0  0  0  0  0  0  0
    7.3700  -11.9680    3.3030 O   0  0  0  0  0  0  0  0  0  0  0  0
    7.7210  -12.2420    2.4300 H   0  0  0  0  0  0  0  0  0  0  0  0
    6.7400    1.6240   10.0820 N   0  0  0  0  0  0  0  0  0  0  0  0
    6.1290    0.3980   10.1310 C   0  0  0  0  0  0  0  0  0  0  0  0
    5.1570    0.1570    9.4220 O   0  0  0  0  0  0  0  0  0  0  0  0
    6.2510    2.2860    9.4900 H   0  0  0  0  0  0  0  0  0  0  0  0
    9.1310    2.0340    9.7340 C   0  0  0  0  0  1  0  0  0  0  0  0
    7.9750    2.0480   10.7170 C   0  0  0  0  0  2  0  0  0  0  0  0
  1  2  1  0  0  0  0
  2  3  2  0  0  0  0
  4  3  1  0  0  0  0
  4 13  1  0  0  0  0
  5  4  2  0  0  0  0
  6  1  2  0  0  0  0
  6  5  1  0  0  0  0
  7  5  1  0  0  0  0
  7 11  1  0  0  0  0
  8  9  1  0  0  0  0
  8  7  2  0  0  0  0
  9 10  2  0  0  0  0
 10 11  1  0  0  0  0
 10 14  1  0  0  0  0
 11 12  1  0  0  0  0
 12 13  1  0  0  0  0
 14 19  2  0  0  0  0
 14 15  1  0  0  0  0
 15 16  2  0  0  0  0
 16 17  1  0  0  0  0
 18 17  2  0  0  0  0
 19 18  1  0  0  0  0
 20 25  1  0  0  0  0
 20  9  1  0  0  0  0
 21 20  2  0  0  0  0
 22 23  2  0  0  0  0
 22 21  1  0  0  0  0
 23 24  1  0  0  0  0
 24 25  2  0  0  0  0
 26 31  1  1  0  0  0
 26 23  1  0  0  0  0
 27 26  1  0  0  0  0
 28 29  1  6  0  0  0
 28 35  1  0  0  0  0
 28 30  1  0  0  0  0
 28 27  1  0  0  0  0
 30 26  1  0  0  0  0
 31 32  1  0  0  0  0
 31 33  1  0  0  0  0
 34 31  1  0  0  0  0
 36 35  1  0  0  0  0
 37 38  1  0  0  0  0
 37 42  1  0  0  0  0
 38  1  1  0  0  0  0
 39 38  2  0  0  0  0
 40 37  1  0  0  0  0
 41 42  1  0  0  0  0
M  END
>  <minimizedAffinity>
-11.2384462

$$$$
