
 OpenBabel11232418523D

 42 47  0  0  1  0  0  0  0  0999 V2000
    7.0350   -8.7280    5.2570 C   0  0  0  0  0  0  0  0  0  0  0  0
    6.8590   -7.5500    4.5200 C   0  0  0  0  0  3  0  0  0  0  0  0
    6.8620   -6.3140    5.1730 C   0  0  0  0  0  3  0  0  0  0  0  0
    7.0080   -6.2640    6.5580 C   0  0  0  0  0  0  0  0  0  0  0  0
    7.1700   -7.4440    7.2940 C   0  0  0  0  0  0  0  0  0  0  0  0
    7.1760   -8.6800    6.6470 C   0  0  0  0  0  3  0  0  0  0  0  0
    7.3490   -7.3170    8.7210 C   0  0  0  0  0  0  0  0  0  0  0  0
    7.6950   -8.2180    9.6110 N   0  0  0  0  0  0  0  0  0  0  0  0
    7.7210   -7.5520   10.8210 C   0  0  0  0  0  0  0  0  0  0  0  0
    7.3800   -6.2130   10.6610 C   0  0  0  0  0  0  0  0  0  0  0  0
    7.1600   -6.0990    9.3060 N   0  0  0  0  0  0  0  0  0  0  0  0
    6.7190   -4.9450    8.5440 C   0  0  0  0  0  2  0  0  0  0  0  0
    7.0430   -5.0210    7.1380 O   0  0  0  0  0  0  0  0  0  0  0  0
    7.2960   -5.0940   11.5880 C   0  0  0  0  0  0  0  0  0  0  0  0
    6.0690   -4.7340   12.1580 C   0  0  0  0  0  3  0  0  0  0  0  0
    5.9930   -3.6550   13.0410 C   0  0  0  0  0  3  0  0  0  0  0  0
    7.1410   -2.9320   13.3590 C   0  0  0  0  0  3  0  0  0  0  0  0
    8.3670   -3.2860   12.7980 C   0  0  0  0  0  3  0  0  0  0  0  0
    8.4460   -4.3650   11.9160 C   0  0  0  0  0  3  0  0  0  0  0  0
    8.0770   -8.2520   12.0460 C   0  0  0  0  0  0  0  0  0  0  0  0
    9.3870   -8.3370   12.5170 C   0  0  0  0  0  3  0  0  0  0  0  0
    9.6700   -8.9850   13.7280 C   0  0  0  0  0  3  0  0  0  0  0  0
    8.6610   -9.5670   14.5250 C   0  0  0  0  0  0  0  0  0  0  0  0
    7.3470   -9.4670   14.0250 C   0  0  0  0  0  3  0  0  0  0  0  0
    7.0600   -8.8220   12.8160 C   0  0  0  0  0  3  0  0  0  0  0  0
    8.9710  -10.2390   15.9130 C   0  0  1  0  0  0  0  0  0  0  0  0
    8.8670  -11.7870   16.0660 C   0  0  0  0  0  2  0  0  0  0  0  0
    9.9850  -11.6750   17.1460 C   0  0  1  0  0  0  0  0  0  0  0  0
   10.9590  -12.8370   17.1900 C   0  0  0  0  0  1  0  0  0  0  0  0
   10.4530  -10.4020   16.3810 C   0  0  0  0  0  2  0  0  0  0  0  0
    8.1480   -9.5480   16.9410 N   0  0  0  0  0  4  0  0  0  0  0  0
    8.3760   -8.5510   17.0130 H   0  0  0  0  0  0  0  0  0  0  0  0
    7.1450   -9.6230   16.7400 H   0  0  0  0  0  0  0  0  0  0  0  0
    8.3120   -9.9790   17.8720 H   0  0  0  0  0  0  0  0  0  0  0  0
    9.4620  -11.3760   18.4700 O   0  0  0  0  0  0  0  0  0  0  0  0
   10.1170  -11.7320   19.1060 H   0  0  0  0  0  0  0  0  0  0  0  0
    8.1860  -10.6810    4.2790 N   0  0  0  0  0  0  0  0  0  0  0  0
    7.0110  -10.0530    4.6020 C   0  0  0  0  0  0  0  0  0  0  0  0
    5.9330  -10.5910    4.3720 O   0  0  0  0  0  0  0  0  0  0  0  0
    8.0440  -11.5480    3.7720 H   0  0  0  0  0  0  0  0  0  0  0  0
   10.0320   -9.1840    3.6830 C   0  0  0  0  0  1  0  0  0  0  0  0
    9.5450  -10.2870    4.6040 C   0  0  0  0  0  2  0  0  0  0  0  0
  1  6  1  0  0  0  0
  2  3  1  0  0  0  0
  2  1  2  0  0  0  0
  3  4  2  0  0  0  0
  4 13  1  0  0  0  0
  4  5  1  0  0  0  0
  5  7  1  0  0  0  0
  6  5  2  0  0  0  0
  7 11  1  0  0  0  0
  7  8  2  0  0  0  0
  8  9  1  0  0  0  0
  9 20  1  0  0  0  0
 10  9  2  0  0  0  0
 10 14  1  0  0  0  0
 11 10  1  0  0  0  0
 12 11  1  0  0  0  0
 13 12  1  0  0  0  0
 14 19  2  0  0  0  0
 14 15  1  0  0  0  0
 15 16  2  0  0  0  0
 16 17  1  0  0  0  0
 18 17  2  0  0  0  0
 19 18  1  0  0  0  0
 20 21  2  0  0  0  0
 20 25  1  0  0  0  0
 21 22  1  0  0  0  0
 22 23  2  0  0  0  0
 23 26  1  0  0  0  0
 24 23  1  0  0  0  0
 25 24  2  0  0  0  0
 26 27  1  0  0  0  0
 26 30  1  0  0  0  0
 26 31  1  1  0  0  0
 27 28  1  0  0  0  0
 28 29  1  6  0  0  0
 28 35  1  0  0  0  0
 30 28  1  0  0  0  0
 31 32  1  0  0  0  0
 31 34  1  0  0  0  0
 33 31  1  0  0  0  0
 35 36  1  0  0  0  0
 37 38  1  0  0  0  0
 37 42  1  0  0  0  0
 38  1  1  0  0  0  0
 39 38  2  0  0  0  0
 40 37  1  0  0  0  0
 41 42  1  0  0  0  0
M  END
>  <minimizedAffinity>
-11.8274212

$$$$
