
 OpenBabel10152418473D

 39 42  0  0  1  0  0  0  0  0999 V2000
    6.2690   -9.6750    8.6740 C   0  0  0  0  0  0  0  0  0  0  0  0
    6.6000  -10.6020    7.6770 C   0  0  0  0  0  3  0  0  0  0  0  0
    7.8720  -11.1570    7.6480 C   0  0  0  0  0  3  0  0  0  0  0  0
    8.8370  -10.7420    8.5680 C   0  0  0  0  0  3  0  0  0  0  0  0
    8.5990   -9.6800    9.4370 C   0  0  0  0  0  0  0  0  0  0  0  0
    7.2970   -9.1630    9.4900 C   0  0  0  0  0  3  0  0  0  0  0  0
    9.5350   -9.1350   10.3430 N   0  0  0  0  0  0  0  0  0  0  0  0
   10.0800   -9.5600   11.5350 C   0  0  0  0  0  0  0  0  0  0  0  0
   10.6640   -8.7190   12.2170 O   0  0  0  0  0  0  0  0  0  0  0  0
    9.8580   -8.1990   10.1340 H   0  0  0  0  0  0  0  0  0  0  0  0
    9.9520  -10.9150   11.9780 C   0  0  1  0  0  3  0  0  0  0  0  0
    9.1650  -11.9720   11.5640 C   0  0  0  0  0  2  0  0  0  0  0  0
    9.2700  -12.9330   12.6020 C   0  0  1  0  0  3  0  0  0  0  0  0
   10.2650  -12.6160   13.4430 N   0  0  0  0  0  2  0  0  0  0  0  0
   10.7040  -11.4270   13.0000 N   0  0  0  0  0  0  0  0  0  0  0  0
   11.4550  -10.9640   13.5020 H   0  0  0  0  0  0  0  0  0  0  0  0
    8.3560  -14.1090   12.9040 C   0  0  0  0  0  0  0  0  0  0  0  0
    7.9910  -14.8640   11.6160 C   0  0  0  0  0  1  0  0  0  0  0  0
    9.0760  -15.0770   13.8730 C   0  0  0  0  0  1  0  0  0  0  0  0
    7.0500  -13.6560   13.5910 C   0  0  0  0  0  1  0  0  0  0  0  0
    3.8800  -10.4040    8.4210 C   0  0  0  0  0  1  0  0  0  0  0  0
    4.8160   -9.3260    8.9800 C   0  0  1  0  0  3  0  0  0  0  0  0
    4.5100   -9.1090   10.4110 N   0  0  0  0  0  0  0  0  0  0  0  0
    3.5480   -8.8210   10.5670 H   0  0  0  0  0  0  0  0  0  0  0  0
    4.8270  -10.0070   11.4180 C   0  0  0  0  0  0  0  0  0  0  0  0
    4.9040   -9.4190   12.6220 N   0  0  0  0  0  0  0  0  0  0  0  0
    4.9700  -10.2340   13.6720 C   0  0  0  0  0  3  0  0  0  0  0  0
    4.9440  -11.5710   13.6360 N   0  0  0  0  0  0  0  0  0  0  0  0
    4.9390  -12.1710   12.4240 C   0  0  0  0  0  0  0  0  0  0  0  0
    4.9050  -13.5740   12.2750 C   0  0  0  0  0  0  0  0  0  0  0  0
    4.9660  -14.1800   11.0050 C   0  0  0  0  0  3  0  0  0  0  0  0
    5.0660  -13.4050    9.8600 C   0  0  0  0  0  3  0  0  0  0  0  0
    5.0570  -12.0240    9.9810 C   0  0  0  0  0  3  0  0  0  0  0  0
    4.9480  -11.3980   11.2470 C   0  0  0  0  0  0  0  0  0  0  0  0
    4.7750  -14.5170   13.4310 C   0  0  0  0  0  0  0  0  0  0  0  0
    3.5310  -14.7770   13.9250 N   0  0  0  0  0  0  0  0  0  0  0  0
    5.7550  -15.0650   13.9270 O   0  0  0  0  0  0  0  0  0  0  0  0
    3.4340  -15.4200   14.6970 H   0  0  0  0  0  0  0  0  0  0  0  0
    2.7120  -14.3180   13.5380 H   0  0  0  0  0  0  0  0  0  0  0  0
  1 22  1  0  0  0  0
  1  6  1  0  0  0  0
  2  1  2  0  0  0  0
  3  2  1  0  0  0  0
  3  4  2  0  0  0  0
  4  5  1  0  0  0  0
  5  6  2  0  0  0  0
  5  7  1  0  0  0  0
  7  8  1  0  0  0  0
  8  9  2  0  0  0  0
 10  7  1  0  0  0  0
 11  8  1  6  0  0  0
 11 15  1  0  0  0  0
 12 11  1  0  0  0  0
 12 13  1  0  0  0  0
 13 17  1  1  0  0  0
 13 14  1  0  0  0  0
 15 14  1  0  0  0  0
 15 16  1  0  0  0  0
 17 20  1  0  0  0  0
 17 19  1  0  0  0  0
 18 17  1  0  0  0  0
 22 21  1  1  0  0  0
 22 23  1  0  0  0  0
 23 24  1  0  0  0  0
 23 25  1  0  0  0  0
 25 26  1  0  0  0  0
 26 27  2  0  0  0  0
 28 27  1  0  0  0  0
 29 28  2  0  0  0  0
 30 29  1  0  0  0  0
 30 35  1  0  0  0  0
 31 30  2  0  0  0  0
 32 33  2  0  0  0  0
 32 31  1  0  0  0  0
 33 34  1  0  0  0  0
 34 25  2  0  0  0  0
 34 29  1  0  0  0  0
 35 36  1  0  0  0  0
 35 37  2  0  0  0  0
 36 38  1  0  0  0  0
 39 36  1  0  0  0  0
M  END
>  <minimizedAffinity>
36.1693611

$$$$
