
 OpenBabel11232420423D

 41 46  0  0  1  0  0  0  0  0999 V2000
  -23.9700   11.1970   11.2270 C   0  0  0  0  0  0  0  0  0  0  0  0
  -24.8120   10.7560   12.2560 C   0  0  0  0  0  3  0  0  0  0  0  0
  -24.9740   11.5340   13.4050 C   0  0  0  0  0  3  0  0  0  0  0  0
  -24.2690   12.7300   13.5360 C   0  0  0  0  0  0  0  0  0  0  0  0
  -23.4190   13.1630   12.5120 C   0  0  0  0  0  0  0  0  0  0  0  0
  -23.2600   12.3940   11.3580 C   0  0  0  0  0  3  0  0  0  0  0  0
  -22.7470   14.4270   12.6980 C   0  0  0  0  0  0  0  0  0  0  0  0
  -22.0510   15.1460   11.8480 N   0  0  0  0  0  0  0  0  0  0  0  0
  -21.6430   16.2610   12.5520 C   0  0  0  0  0  0  0  0  0  0  0  0
  -22.1020   16.2180   13.8640 C   0  0  0  0  0  0  0  0  0  0  0  0
  -22.8120   15.0390   13.9170 N   0  0  0  0  0  0  0  0  0  0  0  0
  -23.4790   14.4200   15.0470 C   0  0  0  0  0  2  0  0  0  0  0  0
  -24.4980   13.4710   14.6670 O   0  0  0  0  0  0  0  0  0  0  0  0
  -21.9880   17.1400   14.9860 C   0  0  0  0  0  0  0  0  0  0  0  0
  -22.9050   18.1880   15.1380 C   0  0  0  0  0  3  0  0  0  0  0  0
  -22.7870   19.0750   16.2100 C   0  0  0  0  0  3  0  0  0  0  0  0
  -21.7540   18.9190   17.1330 C   0  0  0  0  0  3  0  0  0  0  0  0
  -20.8390   17.8770   16.9880 C   0  0  0  0  0  3  0  0  0  0  0  0
  -20.9570   16.9880   15.9180 C   0  0  0  0  0  3  0  0  0  0  0  0
  -20.8440   17.2940   11.9090 C   0  0  0  0  0  0  0  0  0  0  0  0
  -20.0360   17.0480   10.7990 C   0  0  0  0  0  3  0  0  0  0  0  0
  -19.3220   18.0900   10.1910 C   0  0  0  0  0  3  0  0  0  0  0  0
  -19.3880   19.4210   10.6560 C   0  0  0  0  0  0  0  0  0  0  0  0
  -20.2100   19.6420   11.7780 C   0  0  0  0  0  3  0  0  0  0  0  0
  -20.9250   18.6050   12.3890 C   0  0  0  0  0  3  0  0  0  0  0  0
  -18.6350   20.5990    9.9340 C   0  0  1  0  0  0  0  0  0  0  0  0
  -19.4500   21.6920    9.1760 C   0  0  0  0  0  2  0  0  0  0  0  0
  -18.3020   22.6830    9.5360 C   0  0  1  0  0  0  0  0  0  0  0  0
  -18.7450   24.1070    9.8140 C   0  0  0  0  0  1  0  0  0  0  0  0
  -18.0480   21.7760   10.7770 C   0  0  0  0  0  2  0  0  0  0  0  0
  -17.6030   19.9980    9.0490 N   0  0  0  0  0  4  0  0  0  0  0  0
  -16.9110   19.4530    9.5750 H   0  0  0  0  0  0  0  0  0  0  0  0
  -18.0190   19.3740    8.3470 H   0  0  0  0  0  0  0  0  0  0  0  0
  -17.0970   20.7460    8.5370 H   0  0  0  0  0  0  0  0  0  0  0  0
  -17.2070   22.6480    8.5810 O   0  0  0  0  0  0  0  0  0  0  0  0
  -16.7810   23.5300    8.6270 H   0  0  0  0  0  0  0  0  0  0  0  0
  -25.9220   11.1300    8.9210 C   0  0  0  0  0  1  0  0  0  0  0  0
  -24.7220   10.3340    9.0380 N   0  0  0  0  0  0  0  0  0  0  0  0
  -23.7550   10.3870   10.0080 C   0  0  0  0  0  0  0  0  0  0  0  0
  -22.6990    9.7780    9.8680 O   0  0  0  0  0  0  0  0  0  0  0  0
  -24.4860    9.7130    8.2730 H   0  0  0  0  0  0  0  0  0  0  0  0
  1  6  2  0  0  0  0
  1  2  1  0  0  0  0
  2  3  2  0  0  0  0
  3  4  1  0  0  0  0
  4 13  1  0  0  0  0
  5  7  1  0  0  0  0
  5  4  2  0  0  0  0
  6  5  1  0  0  0  0
  7 11  1  0  0  0  0
  8  9  1  0  0  0  0
  8  7  2  0  0  0  0
  9 10  2  0  0  0  0
 10 11  1  0  0  0  0
 10 14  1  0  0  0  0
 11 12  1  0  0  0  0
 13 12  1  0  0  0  0
 14 15  2  0  0  0  0
 14 19  1  0  0  0  0
 15 16  1  0  0  0  0
 16 17  2  0  0  0  0
 18 17  1  0  0  0  0
 19 18  2  0  0  0  0
 20 25  1  0  0  0  0
 20  9  1  0  0  0  0
 21 20  2  0  0  0  0
 22 23  2  0  0  0  0
 22 21  1  0  0  0  0
 23 24  1  0  0  0  0
 24 25  2  0  0  0  0
 26 31  1  6  0  0  0
 26 23  1  0  0  0  0
 26 30  1  0  0  0  0
 27 28  1  0  0  0  0
 27 26  1  0  0  0  0
 28 29  1  1  0  0  0
 28 30  1  0  0  0  0
 31 32  1  0  0  0  0
 33 31  1  0  0  0  0
 34 31  1  0  0  0  0
 35 36  1  0  0  0  0
 35 28  1  0  0  0  0
 37 38  1  0  0  0  0
 38 39  1  0  0  0  0
 39  1  1  0  0  0  0
 40 39  2  0  0  0  0
 41 38  1  0  0  0  0
M  END
>  <minimizedAffinity>
-10.5502987

$$$$
