
 OpenBabel11232420423D

 41 46  0  0  1  0  0  0  0  0999 V2000
  -21.7770   16.9310   14.7210 C   0  0  0  0  0  0  0  0  0  0  0  0
  -21.5240   15.6330   14.2590 C   0  0  0  0  0  3  0  0  0  0  0  0
  -20.8130   15.4420   13.0720 C   0  0  0  0  0  3  0  0  0  0  0  0
  -20.3870   16.5460   12.3350 C   0  0  0  0  0  0  0  0  0  0  0  0
  -20.6510   17.8420   12.7920 C   0  0  0  0  0  0  0  0  0  0  0  0
  -21.3540   18.0390   13.9810 C   0  0  0  0  0  3  0  0  0  0  0  0
  -20.1520   18.9390   11.9970 C   0  0  0  0  0  0  0  0  0  0  0  0
  -20.0960   20.2230   12.2700 N   0  0  0  0  0  0  0  0  0  0  0  0
  -19.5220   20.8140   11.1630 C   0  0  0  0  0  0  0  0  0  0  0  0
  -19.2220   19.8650   10.1910 C   0  0  0  0  0  0  0  0  0  0  0  0
  -19.6280   18.6800   10.7640 N   0  0  0  0  0  0  0  0  0  0  0  0
  -19.6220   17.3420   10.2030 C   0  0  0  0  0  2  0  0  0  0  0  0
  -19.6590   16.2970   11.2000 O   0  0  0  0  0  0  0  0  0  0  0  0
  -18.5870   19.9510    8.8830 C   0  0  0  0  0  0  0  0  0  0  0  0
  -18.8470   21.0380    8.0380 C   0  0  0  0  0  3  0  0  0  0  0  0
  -18.2420   21.1120    6.7820 C   0  0  0  0  0  3  0  0  0  0  0  0
  -17.3760   20.1030    6.3650 C   0  0  0  0  0  3  0  0  0  0  0  0
  -17.1100   19.0200    7.2020 C   0  0  0  0  0  3  0  0  0  0  0  0
  -17.7120   18.9450    8.4590 C   0  0  0  0  0  3  0  0  0  0  0  0
  -19.2970   22.2500   11.1210 C   0  0  0  0  0  0  0  0  0  0  0  0
  -18.0310   22.8250   11.2410 C   0  0  0  0  0  3  0  0  0  0  0  0
  -17.8650   24.2140   11.1470 C   0  0  0  0  0  3  0  0  0  0  0  0
  -18.9490   25.0880   10.9220 C   0  0  0  0  0  0  0  0  0  0  0  0
  -20.2160   24.4830   10.8050 C   0  0  0  0  0  3  0  0  0  0  0  0
  -20.3860   23.0980   10.8970 C   0  0  0  0  0  3  0  0  0  0  0  0
  -18.7530   26.6410   10.7550 C   0  0  1  0  0  0  0  0  0  0  0  0
  -19.9220   27.6130   11.1060 C   0  0  0  0  0  2  0  0  0  0  0  0
  -18.8310   28.6580   11.4900 C   0  0  1  0  0  0  0  0  0  0  0  0
  -19.1880   29.5640   12.6520 C   0  0  0  0  0  1  0  0  0  0  0  0
  -17.9200   27.4350   11.8120 C   0  0  0  0  0  2  0  0  0  0  0  0
  -18.2550   26.8860    9.3760 N   0  0  0  0  0  4  0  0  0  0  0  0
  -17.3520   26.4310    9.2040 H   0  0  0  0  0  0  0  0  0  0  0  0
  -18.9140   26.5450    8.6660 H   0  0  0  0  0  0  0  0  0  0  0  0
  -18.1320   27.9060    9.2210 H   0  0  0  0  0  0  0  0  0  0  0  0
  -18.3580   29.4240   10.3490 O   0  0  0  0  0  0  0  0  0  0  0  0
  -18.0380   30.2780   10.7110 H   0  0  0  0  0  0  0  0  0  0  0  0
  -20.5060   17.0820   17.4590 C   0  0  0  0  0  1  0  0  0  0  0  0
  -21.9220   17.1410   17.1780 N   0  0  0  0  0  0  0  0  0  0  0  0
  -22.5500   17.1710   15.9590 C   0  0  0  0  0  0  0  0  0  0  0  0
  -23.7500   17.4130   15.8830 O   0  0  0  0  0  0  0  0  0  0  0  0
  -22.5570   17.2710   17.9570 H   0  0  0  0  0  0  0  0  0  0  0  0
  1 39  1  0  0  0  0
  2  1  1  0  0  0  0
  3  2  2  0  0  0  0
  4  5  2  0  0  0  0
  4  3  1  0  0  0  0
  5  6  1  0  0  0  0
  6  1  2  0  0  0  0
  7  8  2  0  0  0  0
  7  5  1  0  0  0  0
  9  8  1  0  0  0  0
 10 11  1  0  0  0  0
 10  9  2  0  0  0  0
 11  7  1  0  0  0  0
 12 11  1  0  0  0  0
 12 13  1  0  0  0  0
 13  4  1  0  0  0  0
 14 10  1  0  0  0  0
 15 14  2  0  0  0  0
 16 15  1  0  0  0  0
 17 16  2  0  0  0  0
 17 18  1  0  0  0  0
 18 19  2  0  0  0  0
 19 14  1  0  0  0  0
 20  9  1  0  0  0  0
 20 21  1  0  0  0  0
 22 21  2  0  0  0  0
 23 22  1  0  0  0  0
 24 25  1  0  0  0  0
 24 23  2  0  0  0  0
 25 20  2  0  0  0  0
 26 31  1  6  0  0  0
 26 23  1  0  0  0  0
 26 27  1  0  0  0  0
 26 30  1  0  0  0  0
 27 28  1  0  0  0  0
 28 30  1  0  0  0  0
 28 29  1  1  0  0  0
 32 31  1  0  0  0  0
 33 31  1  0  0  0  0
 34 31  1  0  0  0  0
 35 36  1  0  0  0  0
 35 28  1  0  0  0  0
 38 37  1  0  0  0  0
 38 41  1  0  0  0  0
 39 38  1  0  0  0  0
 40 39  2  0  0  0  0
M  END
>  <minimizedAffinity>
-12.8200903

$$$$
