
 OpenBabel11232420423D

 41 46  0  0  1  0  0  0  0  0999 V2000
  -13.7750   34.3370    9.5940 C   0  0  0  0  0  0  0  0  0  0  0  0
  -13.4270   35.3390   10.5100 C   0  0  0  0  0  3  0  0  0  0  0  0
  -13.9580   35.3160   11.8020 C   0  0  0  0  0  3  0  0  0  0  0  0
  -14.8580   34.3140   12.1630 C   0  0  0  0  0  0  0  0  0  0  0  0
  -15.2130   33.3210   11.2420 C   0  0  0  0  0  0  0  0  0  0  0  0
  -14.6800   33.3340    9.9530 C   0  0  0  0  0  3  0  0  0  0  0  0
  -16.1240   32.2950   11.6930 C   0  0  0  0  0  0  0  0  0  0  0  0
  -16.4790   31.1690   11.1170 N   0  0  0  0  0  0  0  0  0  0  0  0
  -17.3670   30.5700   11.9880 C   0  0  0  0  0  0  0  0  0  0  0  0
  -17.5570   31.3530   13.1220 C   0  0  0  0  0  0  0  0  0  0  0  0
  -16.7390   32.4390   12.9030 N   0  0  0  0  0  0  0  0  0  0  0  0
  -16.5550   33.6270   13.7160 C   0  0  0  0  0  2  0  0  0  0  0  0
  -15.3150   34.3190   13.4560 O   0  0  0  0  0  0  0  0  0  0  0  0
  -18.3420   31.1670   14.3350 C   0  0  0  0  0  0  0  0  0  0  0  0
  -17.7850   30.5260   15.4490 C   0  0  0  0  0  3  0  0  0  0  0  0
  -18.5450   30.3430   16.6060 C   0  0  0  0  0  3  0  0  0  0  0  0
  -19.8610   30.7990   16.6550 C   0  0  0  0  0  3  0  0  0  0  0  0
  -20.4200   31.4400   15.5510 C   0  0  0  0  0  3  0  0  0  0  0  0
  -19.6620   31.6250   14.3940 C   0  0  0  0  0  3  0  0  0  0  0  0
  -17.9660   29.2830   11.6690 C   0  0  0  0  0  0  0  0  0  0  0  0
  -17.2280   28.1030   11.5820 C   0  0  0  0  0  3  0  0  0  0  0  0
  -17.8630   26.8810   11.3170 C   0  0  0  0  0  3  0  0  0  0  0  0
  -19.2590   26.7820   11.1350 C   0  0  0  0  0  0  0  0  0  0  0  0
  -19.9800   27.9880   11.2270 C   0  0  0  0  0  3  0  0  0  0  0  0
  -19.3510   29.2100   11.4920 C   0  0  0  0  0  3  0  0  0  0  0  0
  -19.9760   25.4010   10.8990 C   0  0  1  0  0  0  0  0  0  0  0  0
  -19.2820   24.3040   10.0340 C   0  0  0  0  0  2  0  0  0  0  0  0
  -20.0230   23.2540   10.9160 C   0  0  1  0  0  0  0  0  0  0  0  0
  -19.2490   21.9770   11.1850 C   0  0  0  0  0  1  0  0  0  0  0  0
  -20.0000   24.3340   12.0390 C   0  0  0  0  0  2  0  0  0  0  0  0
  -21.3450   25.6870   10.3940 N   0  0  0  0  0  4  0  0  0  0  0  0
  -21.9020   26.2230   11.0670 H   0  0  0  0  0  0  0  0  0  0  0  0
  -21.3250   26.2190    9.5160 H   0  0  0  0  0  0  0  0  0  0  0  0
  -21.8450   24.7960   10.2050 H   0  0  0  0  0  0  0  0  0  0  0  0
  -21.3660   22.9670   10.4410 O   0  0  0  0  0  0  0  0  0  0  0  0
  -21.5750   22.0610   10.7520 H   0  0  0  0  0  0  0  0  0  0  0  0
  -11.5350   32.5350    8.6620 C   0  0  0  0  0  1  0  0  0  0  0  0
  -12.1770   33.5630    7.8770 N   0  0  0  0  0  0  0  0  0  0  0  0
  -13.2530   34.3450    8.2100 C   0  0  0  0  0  0  0  0  0  0  0  0
  -13.8010   35.0430    7.3630 O   0  0  0  0  0  0  0  0  0  0  0  0
  -11.8780   33.6850    6.9160 H   0  0  0  0  0  0  0  0  0  0  0  0
  1  6  2  0  0  0  0
  1  2  1  0  0  0  0
  2  3  2  0  0  0  0
  3  4  1  0  0  0  0
  4 13  1  0  0  0  0
  5  7  1  0  0  0  0
  5  4  2  0  0  0  0
  6  5  1  0  0  0  0
  7 11  1  0  0  0  0
  8  7  2  0  0  0  0
  8  9  1  0  0  0  0
  9 10  2  0  0  0  0
 10 14  1  0  0  0  0
 11 10  1  0  0  0  0
 11 12  1  0  0  0  0
 13 12  1  0  0  0  0
 14 19  2  0  0  0  0
 14 15  1  0  0  0  0
 15 16  2  0  0  0  0
 16 17  1  0  0  0  0
 18 17  2  0  0  0  0
 19 18  1  0  0  0  0
 20  9  1  0  0  0  0
 21 20  1  0  0  0  0
 22 21  2  0  0  0  0
 23 24  2  0  0  0  0
 23 22  1  0  0  0  0
 24 25  1  0  0  0  0
 25 20  2  0  0  0  0
 26 31  1  6  0  0  0
 26 23  1  0  0  0  0
 26 30  1  0  0  0  0
 27 26  1  0  0  0  0
 27 28  1  0  0  0  0
 28 29  1  1  0  0  0
 28 30  1  0  0  0  0
 31 32  1  0  0  0  0
 33 31  1  0  0  0  0
 34 31  1  0  0  0  0
 35 36  1  0  0  0  0
 35 28  1  0  0  0  0
 38 39  1  0  0  0  0
 38 37  1  0  0  0  0
 39  1  1  0  0  0  0
 40 39  2  0  0  0  0
 41 38  1  0  0  0  0
M  END
>  <minimizedAffinity>
-10.391058

$$$$
