
 OpenBabel11232420423D

 41 46  0  0  1  0  0  0  0  0999 V2000
  -19.0990   20.0750    9.7510 C   0  0  0  0  0  0  0  0  0  0  0  0
  -19.7430   21.3190    9.7940 C   0  0  0  0  0  3  0  0  0  0  0  0
  -20.5560   21.6450   10.8820 C   0  0  0  0  0  3  0  0  0  0  0  0
  -20.7490   20.7180   11.9040 C   0  0  0  0  0  0  0  0  0  0  0  0
  -20.1150   19.4710   11.8540 C   0  0  0  0  0  0  0  0  0  0  0  0
  -19.2950   19.1430   10.7740 C   0  0  0  0  0  3  0  0  0  0  0  0
  -20.3310   18.5720   12.9630 C   0  0  0  0  0  0  0  0  0  0  0  0
  -19.7350   17.4410   13.2610 N   0  0  0  0  0  0  0  0  0  0  0  0
  -20.3290   17.0040   14.4290 C   0  0  0  0  0  0  0  0  0  0  0  0
  -21.3120   17.8930   14.8500 C   0  0  0  0  0  0  0  0  0  0  0  0
  -21.2770   18.8860   13.8960 N   0  0  0  0  0  0  0  0  0  0  0  0
  -22.1160   20.0620   13.7660 C   0  0  0  0  0  2  0  0  0  0  0  0
  -21.5250   21.1090   12.9660 O   0  0  0  0  0  0  0  0  0  0  0  0
  -22.1890   17.9230   16.0120 C   0  0  0  0  0  0  0  0  0  0  0  0
  -23.4600   17.3360   15.9580 C   0  0  0  0  0  3  0  0  0  0  0  0
  -24.3000   17.3750   17.0720 C   0  0  0  0  0  3  0  0  0  0  0  0
  -23.8760   18.0000   18.2440 C   0  0  0  0  0  3  0  0  0  0  0  0
  -22.6120   18.5850   18.3050 C   0  0  0  0  0  3  0  0  0  0  0  0
  -21.7700   18.5450   17.1930 C   0  0  0  0  0  3  0  0  0  0  0  0
  -19.9030   15.7640   15.0600 C   0  0  0  0  0  0  0  0  0  0  0  0
  -20.8000   14.8280   15.5760 C   0  0  0  0  0  3  0  0  0  0  0  0
  -20.3370   13.6280   16.1330 C   0  0  0  0  0  3  0  0  0  0  0  0
  -18.9640   13.3040   16.1920 C   0  0  0  0  0  0  0  0  0  0  0  0
  -18.0810   14.2670   15.6650 C   0  0  0  0  0  3  0  0  0  0  0  0
  -18.5380   15.4660   15.1080 C   0  0  0  0  0  3  0  0  0  0  0  0
  -18.4510   11.9300   16.7620 C   0  0  1  0  0  0  0  0  0  0  0  0
  -18.6930   11.5730   18.2610 C   0  0  0  0  0  2  0  0  0  0  0  0
  -18.7400   10.0800   17.8140 C   0  0  1  0  0  0  0  0  0  0  0  0
  -19.7100    9.2070   18.5880 C   0  0  0  0  0  1  0  0  0  0  0  0
  -19.2310   10.6160   16.4360 C   0  0  0  0  0  2  0  0  0  0  0  0
  -17.0110   11.8080   16.4130 N   0  0  0  0  0  4  0  0  0  0  0  0
  -16.8570   11.8100   15.3990 H   0  0  0  0  0  0  0  0  0  0  0  0
  -16.4560   12.5740   16.8120 H   0  0  0  0  0  0  0  0  0  0  0  0
  -16.6300   10.9190   16.7920 H   0  0  0  0  0  0  0  0  0  0  0  0
  -17.4230    9.4710   17.7430 O   0  0  0  0  0  0  0  0  0  0  0  0
  -17.5620    8.5100   17.8800 H   0  0  0  0  0  0  0  0  0  0  0  0
  -17.0750   21.9280    8.4860 C   0  0  0  0  0  1  0  0  0  0  0  0
  -17.4170   20.6040    8.0210 N   0  0  0  0  0  0  0  0  0  0  0  0
  -18.2530   19.6850    8.6020 C   0  0  0  0  0  0  0  0  0  0  0  0
  -18.2940   18.5320    8.1870 O   0  0  0  0  0  0  0  0  0  0  0  0
  -16.9220   20.2390    7.2150 H   0  0  0  0  0  0  0  0  0  0  0  0
  1  2  2  0  0  0  0
  1  6  1  0  0  0  0
  2  3  1  0  0  0  0
  3  4  2  0  0  0  0
  4 13  1  0  0  0  0
  5  4  1  0  0  0  0
  5  7  1  0  0  0  0
  6  5  2  0  0  0  0
  7  8  2  0  0  0  0
  7 11  1  0  0  0  0
  8  9  1  0  0  0  0
  9 10  2  0  0  0  0
  9 20  1  0  0  0  0
 10 14  1  0  0  0  0
 11 10  1  0  0  0  0
 12 11  1  0  0  0  0
 13 12  1  0  0  0  0
 14 19  1  0  0  0  0
 15 14  2  0  0  0  0
 15 16  1  0  0  0  0
 16 17  2  0  0  0  0
 17 18  1  0  0  0  0
 19 18  2  0  0  0  0
 20 25  2  0  0  0  0
 20 21  1  0  0  0  0
 21 22  2  0  0  0  0
 22 23  1  0  0  0  0
 23 26  1  0  0  0  0
 24 23  2  0  0  0  0
 25 24  1  0  0  0  0
 26 31  1  6  0  0  0
 26 27  1  0  0  0  0
 28 27  1  0  0  0  0
 28 29  1  1  0  0  0
 30 26  1  0  0  0  0
 30 28  1  0  0  0  0
 31 34  1  0  0  0  0
 31 33  1  0  0  0  0
 32 31  1  0  0  0  0
 35 28  1  0  0  0  0
 35 36  1  0  0  0  0
 38 37  1  0  0  0  0
 38 39  1  0  0  0  0
 39  1  1  0  0  0  0
 40 39  2  0  0  0  0
 41 38  1  0  0  0  0
M  END
>  <minimizedAffinity>
-11.2052841

$$$$
