
 OpenBabel10152420033D

 38 42  0  0  0  0  0  0  0  0999 V2000
   -1.3670   -7.1180  -23.1380 C   0  0  0  0  0  0  0  0  0  0  0  0
   -2.6180   -6.9450  -23.7390 C   0  0  0  0  0  3  0  0  0  0  0  0
   -3.5740   -7.9510  -23.6560 C   0  0  0  0  0  3  0  0  0  0  0  0
   -3.2850   -9.1470  -22.9910 C   0  0  0  0  0  3  0  0  0  0  0  0
   -2.0280   -9.3710  -22.4290 C   0  0  0  0  0  0  0  0  0  0  0  0
   -1.0820   -8.3360  -22.4950 C   0  0  0  0  0  3  0  0  0  0  0  0
   -1.6130  -10.5490  -21.7780 N   0  0  0  0  0  0  0  0  0  0  0  0
   -0.7970  -11.6020  -22.1190 C   0  0  0  0  0  0  0  0  0  0  0  0
   -0.6550  -12.5440  -21.3410 O   0  0  0  0  0  0  0  0  0  0  0  0
   -1.9910  -10.6950  -20.8480 H   0  0  0  0  0  0  0  0  0  0  0  0
   -0.0860  -11.6560  -23.4010 C   0  0  0  0  0  0  0  0  0  0  0  0
   -0.8420  -11.6850  -24.5740 C   0  0  0  0  0  3  0  0  0  0  0  0
   -0.2030  -11.6810  -25.8180 C   0  0  0  0  0  3  0  0  0  0  0  0
    1.2040  -11.6510  -25.8690 C   0  0  0  0  0  0  0  0  0  0  0  0
    2.1500  -11.6010  -26.9300 C   0  0  0  0  0  3  0  0  0  0  0  0
    3.4070  -11.5810  -26.3720 C   0  0  0  0  0  3  0  0  0  0  0  0
    3.2640  -11.6340  -25.0110 N   0  0  0  0  0  0  0  0  0  0  0  0
    1.9290  -11.6650  -24.6740 C   0  0  0  0  0  0  0  0  0  0  0  0
    1.3150  -11.6910  -23.4160 C   0  0  0  0  0  3  0  0  0  0  0  0
    4.0250  -11.6360  -24.3450 H   0  0  0  0  0  0  0  0  0  0  0  0
   -0.3740   -5.9770  -23.1010 C   0  0  0  0  0  2  0  0  0  0  0  0
    2.2820   -6.4900  -28.5980 C   0  0  0  0  0  0  0  0  0  0  0  0
    1.6270   -5.4420  -29.2660 C   0  0  0  0  0  3  0  0  0  0  0  0
    0.6790   -4.6910  -28.5930 C   0  0  0  0  0  3  0  0  0  0  0  0
    0.4030   -4.9910  -27.2620 C   0  0  0  0  0  3  0  0  0  0  0  0
    1.0780   -6.0420  -26.5780 C   0  0  0  0  0  0  0  0  0  0  0  0
    0.8600   -6.3690  -25.2220 C   0  0  0  0  0  0  0  0  0  0  0  0
   -0.0400   -5.6220  -24.4690 N   0  0  0  0  0  0  0  0  0  0  0  0
    1.4820   -7.3990  -24.6290 N   0  0  0  0  0  0  0  0  0  0  0  0
    2.3630   -8.0730  -25.3700 C   0  0  0  0  0  3  0  0  0  0  0  0
    2.6830   -7.8160  -26.6400 N   0  0  0  0  0  0  0  0  0  0  0  0
    2.0280   -6.8180  -27.2590 C   0  0  0  0  0  0  0  0  0  0  0  0
   -0.0140   -4.6290  -24.6560 H   0  0  0  0  0  0  0  0  0  0  0  0
    4.5340   -7.2830  -28.8870 N   0  0  0  0  0  0  0  0  0  0  0  0
    3.2580   -7.2760  -29.3790 C   0  0  0  0  0  0  0  0  0  0  0  0
    2.9640   -7.8300  -30.4270 O   0  0  0  0  0  0  0  0  0  0  0  0
    5.2280   -7.8090  -29.4010 H   0  0  0  0  0  0  0  0  0  0  0  0
    4.7960   -6.8520  -28.0120 H   0  0  0  0  0  0  0  0  0  0  0  0
  1 21  1  0  0  0  0
  1  6  1  0  0  0  0
  2  3  1  0  0  0  0
  2  1  2  0  0  0  0
  3  4  2  0  0  0  0
  4  5  1  0  0  0  0
  5  7  1  0  0  0  0
  6  5  2  0  0  0  0
  7 10  1  0  0  0  0
  8  7  1  0  0  0  0
  8  9  2  0  0  0  0
 11  8  1  0  0  0  0
 12 11  2  0  0  0  0
 13 12  1  0  0  0  0
 14 13  2  0  0  0  0
 14 18  1  0  0  0  0
 15 16  2  0  0  0  0
 15 14  1  0  0  0  0
 16 17  1  0  0  0  0
 17 18  1  0  0  0  0
 17 20  1  0  0  0  0
 18 19  2  0  0  0  0
 19 11  1  0  0  0  0
 22 32  1  0  0  0  0
 23 22  2  0  0  0  0
 23 24  1  0  0  0  0
 24 25  2  0  0  0  0
 25 26  1  0  0  0  0
 26 27  1  0  0  0  0
 27 29  2  0  0  0  0
 27 28  1  0  0  0  0
 28 21  1  0  0  0  0
 30 29  1  0  0  0  0
 31 30  2  0  0  0  0
 32 31  1  0  0  0  0
 32 26  2  0  0  0  0
 33 28  1  0  0  0  0
 34 38  1  0  0  0  0
 35 34  1  0  0  0  0
 35 22  1  0  0  0  0
 36 35  2  0  0  0  0
 37 34  1  0  0  0  0
M  END
>  <minimizedAffinity>
-8.40360641

$$$$
