
 OpenBabel10152420033D

 38 42  0  0  0  0  0  0  0  0999 V2000
    4.4300   -9.2250  -29.1080 C   0  0  0  0  0  0  0  0  0  0  0  0
    4.0150   -9.8130  -30.3070 C   0  0  0  0  0  3  0  0  0  0  0  0
    3.7190  -11.1710  -30.3500 C   0  0  0  0  0  3  0  0  0  0  0  0
    3.8540  -11.9600  -29.2020 C   0  0  0  0  0  3  0  0  0  0  0  0
    4.3180  -11.4140  -28.0060 C   0  0  0  0  0  0  0  0  0  0  0  0
    4.5860  -10.0350  -27.9690 C   0  0  0  0  0  3  0  0  0  0  0  0
    4.5350  -12.1180  -26.8050 N   0  0  0  0  0  0  0  0  0  0  0  0
    3.8030  -12.3170  -25.6590 C   0  0  0  0  0  0  0  0  0  0  0  0
    4.2850  -12.9580  -24.7270 O   0  0  0  0  0  0  0  0  0  0  0  0
    5.4300  -12.5880  -26.7260 H   0  0  0  0  0  0  0  0  0  0  0  0
    2.4500  -11.7750  -25.4930 C   0  0  0  0  0  0  0  0  0  0  0  0
    1.5900  -11.7990  -26.5920 C   0  0  0  0  0  3  0  0  0  0  0  0
    0.2750  -11.3420  -26.4610 C   0  0  0  0  0  3  0  0  0  0  0  0
   -0.1650  -10.8580  -25.2140 C   0  0  0  0  0  0  0  0  0  0  0  0
   -1.4110  -10.3680  -24.7320 C   0  0  0  0  0  3  0  0  0  0  0  0
   -1.2480  -10.0420  -23.4040 C   0  0  0  0  0  3  0  0  0  0  0  0
    0.0530  -10.2990  -23.0640 N   0  0  0  0  0  0  0  0  0  0  0  0
    0.7350  -10.8090  -24.1460 C   0  0  0  0  0  0  0  0  0  0  0  0
    2.0640  -11.2400  -24.2570 C   0  0  0  0  0  3  0  0  0  0  0  0
    0.4570  -10.1490  -22.1500 H   0  0  0  0  0  0  0  0  0  0  0  0
    4.6170   -7.7260  -29.0170 C   0  0  0  0  0  2  0  0  0  0  0  0
   -0.2600   -6.1250  -25.6720 C   0  0  0  0  0  0  0  0  0  0  0  0
   -0.9080   -5.2940  -26.5990 C   0  0  0  0  0  3  0  0  0  0  0  0
   -0.3370   -5.0810  -27.8420 C   0  0  0  0  0  3  0  0  0  0  0  0
    0.8680   -5.7070  -28.1450 C   0  0  0  0  0  3  0  0  0  0  0  0
    1.5190   -6.5650  -27.2140 C   0  0  0  0  0  0  0  0  0  0  0  0
    2.7250   -7.2490  -27.4790 C   0  0  0  0  0  0  0  0  0  0  0  0
    3.3280   -7.1250  -28.7260 N   0  0  0  0  0  0  0  0  0  0  0  0
    3.3310   -8.0100  -26.5540 N   0  0  0  0  0  0  0  0  0  0  0  0
    2.7090   -8.1340  -25.3800 C   0  0  0  0  0  3  0  0  0  0  0  0
    1.5450   -7.5760  -25.0440 N   0  0  0  0  0  0  0  0  0  0  0  0
    0.9540   -6.7710  -25.9450 C   0  0  0  0  0  0  0  0  0  0  0  0
    2.6800   -7.1140  -29.5010 H   0  0  0  0  0  0  0  0  0  0  0  0
   -0.1660   -5.8460  -23.2850 N   0  0  0  0  0  0  0  0  0  0  0  0
   -0.9010   -6.2850  -24.3520 C   0  0  0  0  0  0  0  0  0  0  0  0
   -1.9850   -6.8300  -24.2120 O   0  0  0  0  0  0  0  0  0  0  0  0
   -0.5750   -5.9450  -22.3660 H   0  0  0  0  0  0  0  0  0  0  0  0
    0.7210   -5.3720  -23.3780 H   0  0  0  0  0  0  0  0  0  0  0  0
  1 21  1  0  0  0  0
  1  6  1  0  0  0  0
  2  1  2  0  0  0  0
  3  2  1  0  0  0  0
  3  4  2  0  0  0  0
  4  5  1  0  0  0  0
  5  6  2  0  0  0  0
  5  7  1  0  0  0  0
  7 10  1  0  0  0  0
  7  8  1  0  0  0  0
  8 11  1  0  0  0  0
  8  9  2  0  0  0  0
 11 19  1  0  0  0  0
 12 13  1  0  0  0  0
 12 11  2  0  0  0  0
 13 14  2  0  0  0  0
 14 15  1  0  0  0  0
 14 18  1  0  0  0  0
 15 16  2  0  0  0  0
 16 17  1  0  0  0  0
 17 20  1  0  0  0  0
 18 17  1  0  0  0  0
 19 18  2  0  0  0  0
 21 28  1  0  0  0  0
 22 35  1  0  0  0  0
 23 22  2  0  0  0  0
 24 23  1  0  0  0  0
 25 24  2  0  0  0  0
 25 26  1  0  0  0  0
 26 32  1  0  0  0  0
 27 26  2  0  0  0  0
 27 29  1  0  0  0  0
 28 27  1  0  0  0  0
 29 30  2  0  0  0  0
 30 31  1  0  0  0  0
 32 22  1  0  0  0  0
 32 31  2  0  0  0  0
 33 28  1  0  0  0  0
 34 37  1  0  0  0  0
 35 36  2  0  0  0  0
 35 34  1  0  0  0  0
 38 34  1  0  0  0  0
M  END
>  <minimizedAffinity>
-9.91269684

$$$$
