
 OpenBabel10152420033D

 38 42  0  0  0  0  0  0  0  0999 V2000
   -1.2460   -7.2990  -23.3350 C   0  0  0  0  0  0  0  0  0  0  0  0
   -2.5870   -6.9300  -23.4830 C   0  0  0  0  0  3  0  0  0  0  0  0
   -3.5860   -7.6840  -22.8780 C   0  0  0  0  0  3  0  0  0  0  0  0
   -3.2600   -8.8250  -22.1380 C   0  0  0  0  0  3  0  0  0  0  0  0
   -1.9370   -9.2490  -22.0170 C   0  0  0  0  0  0  0  0  0  0  0  0
   -0.9350   -8.4630  -22.6090 C   0  0  0  0  0  3  0  0  0  0  0  0
   -1.4980  -10.4020  -21.3370 N   0  0  0  0  0  0  0  0  0  0  0  0
   -0.8220  -11.5400  -21.7070 C   0  0  0  0  0  0  0  0  0  0  0  0
   -0.6150  -12.4270  -20.8800 O   0  0  0  0  0  0  0  0  0  0  0  0
   -1.7250  -10.4440  -20.3490 H   0  0  0  0  0  0  0  0  0  0  0  0
   -0.3400  -11.7510  -23.0760 C   0  0  0  0  0  0  0  0  0  0  0  0
   -1.1790  -11.3960  -24.1340 C   0  0  0  0  0  3  0  0  0  0  0  0
   -0.7360  -11.5310  -25.4530 C   0  0  0  0  0  3  0  0  0  0  0  0
    0.5590  -12.0290  -25.6980 C   0  0  0  0  0  0  0  0  0  0  0  0
    1.3220  -12.2520  -26.8780 C   0  0  0  0  0  3  0  0  0  0  0  0
    2.5460  -12.7530  -26.4980 C   0  0  0  0  0  3  0  0  0  0  0  0
    2.5510  -12.8610  -25.1330 N   0  0  0  0  0  0  0  0  0  0  0  0
    1.3560  -12.4140  -24.6160 C   0  0  0  0  0  0  0  0  0  0  0  0
    0.9280  -12.3110  -23.2860 C   0  0  0  0  0  3  0  0  0  0  0  0
    3.3240  -13.2050  -24.5790 H   0  0  0  0  0  0  0  0  0  0  0  0
   -0.1460   -6.4080  -23.8690 C   0  0  0  0  0  2  0  0  0  0  0  0
    3.4950   -8.2280  -28.4480 C   0  0  0  0  0  0  0  0  0  0  0  0
    4.1630   -9.2810  -27.8020 C   0  0  0  0  0  3  0  0  0  0  0  0
    3.8660   -9.5700  -26.4820 C   0  0  0  0  0  3  0  0  0  0  0  0
    2.9010   -8.8100  -25.8270 C   0  0  0  0  0  3  0  0  0  0  0  0
    2.2090   -7.7540  -26.4840 C   0  0  0  0  0  0  0  0  0  0  0  0
    1.2010   -6.9730  -25.8790 C   0  0  0  0  0  0  0  0  0  0  0  0
    0.8130   -7.2420  -24.5710 N   0  0  0  0  0  0  0  0  0  0  0  0
    0.6090   -5.9530  -26.5200 N   0  0  0  0  0  0  0  0  0  0  0  0
    0.9810   -5.7440  -27.7840 C   0  0  0  0  0  3  0  0  0  0  0  0
    1.8810   -6.4530  -28.4670 N   0  0  0  0  0  0  0  0  0  0  0  0
    2.5180   -7.4440  -27.8180 C   0  0  0  0  0  0  0  0  0  0  0  0
    0.7640   -8.2260  -24.3460 H   0  0  0  0  0  0  0  0  0  0  0  0
    4.5460   -6.7690  -30.0450 N   0  0  0  0  0  0  0  0  0  0  0  0
    3.8800   -7.9470  -29.8460 C   0  0  0  0  0  0  0  0  0  0  0  0
    3.5700   -8.6810  -30.7710 O   0  0  0  0  0  0  0  0  0  0  0  0
    4.8210   -6.5440  -30.9920 H   0  0  0  0  0  0  0  0  0  0  0  0
    4.8340   -6.1580  -29.2940 H   0  0  0  0  0  0  0  0  0  0  0  0
  1  6  1  0  0  0  0
  2  1  2  0  0  0  0
  2  3  1  0  0  0  0
  3  4  2  0  0  0  0
  4  5  1  0  0  0  0
  5  7  1  0  0  0  0
  6  5  2  0  0  0  0
  7 10  1  0  0  0  0
  8  7  1  0  0  0  0
  8  9  2  0  0  0  0
 11  8  1  0  0  0  0
 12 11  2  0  0  0  0
 13 12  1  0  0  0  0
 14 13  2  0  0  0  0
 14 18  1  0  0  0  0
 15 16  2  0  0  0  0
 15 14  1  0  0  0  0
 16 17  1  0  0  0  0
 17 18  1  0  0  0  0
 17 20  1  0  0  0  0
 18 19  2  0  0  0  0
 19 11  1  0  0  0  0
 21  1  1  0  0  0  0
 22 32  2  0  0  0  0
 22 23  1  0  0  0  0
 23 24  2  0  0  0  0
 24 25  1  0  0  0  0
 26 27  1  0  0  0  0
 26 25  2  0  0  0  0
 27 28  1  0  0  0  0
 28 33  1  0  0  0  0
 28 21  1  0  0  0  0
 29 27  2  0  0  0  0
 30 29  1  0  0  0  0
 31 32  1  0  0  0  0
 31 30  2  0  0  0  0
 32 26  1  0  0  0  0
 34 35  1  0  0  0  0
 34 38  1  0  0  0  0
 35 22  1  0  0  0  0
 36 35  2  0  0  0  0
 37 34  1  0  0  0  0
M  END
>  <minimizedAffinity>
-9.01287651

$$$$
