
 OpenBabel10152420033D

 38 42  0  0  0  0  0  0  0  0999 V2000
    2.1230   -6.9550  -28.0920 C   0  0  0  0  0  0  0  0  0  0  0  0
    3.1620   -6.2700  -27.4550 C   0  0  0  0  0  3  0  0  0  0  0  0
    4.4550   -6.7770  -27.4920 C   0  0  0  0  0  3  0  0  0  0  0  0
    4.7220   -7.9840  -28.1470 C   0  0  0  0  0  3  0  0  0  0  0  0
    3.6980   -8.7180  -28.7450 C   0  0  0  0  0  0  0  0  0  0  0  0
    2.4010   -8.1800  -28.7250 C   0  0  0  0  0  3  0  0  0  0  0  0
    3.8410   -9.9620  -29.3900 N   0  0  0  0  0  0  0  0  0  0  0  0
    3.7910  -11.2730  -28.9790 C   0  0  0  0  0  0  0  0  0  0  0  0
    4.0100  -12.1770  -29.7830 O   0  0  0  0  0  0  0  0  0  0  0  0
    4.0410   -9.9220  -30.3840 H   0  0  0  0  0  0  0  0  0  0  0  0
    3.4930  -11.6450  -27.5910 C   0  0  0  0  0  0  0  0  0  0  0  0
    4.5630  -11.8660  -26.7230 C   0  0  0  0  0  3  0  0  0  0  0  0
    4.3220  -12.1690  -25.3800 C   0  0  0  0  0  3  0  0  0  0  0  0
    2.9930  -12.2490  -24.9190 C   0  0  0  0  0  0  0  0  0  0  0  0
    2.4050  -12.4900  -23.6460 C   0  0  0  0  0  3  0  0  0  0  0  0
    1.0380  -12.4410  -23.7990 C   0  0  0  0  0  3  0  0  0  0  0  0
    0.7710  -12.1970  -25.1200 N   0  0  0  0  0  0  0  0  0  0  0  0
    1.9460  -12.0630  -25.8260 C   0  0  0  0  0  0  0  0  0  0  0  0
    2.1600  -11.7810  -27.1810 C   0  0  0  0  0  3  0  0  0  0  0  0
   -0.1530  -12.1130  -25.5220 H   0  0  0  0  0  0  0  0  0  0  0  0
    0.7430   -6.3400  -28.1780 C   0  0  0  0  0  2  0  0  0  0  0  0
   -1.8060   -7.6450  -22.7620 C   0  0  0  0  0  0  0  0  0  0  0  0
   -1.5380   -6.4410  -22.0890 C   0  0  0  0  0  3  0  0  0  0  0  0
   -0.8520   -5.4320  -22.7420 C   0  0  0  0  0  3  0  0  0  0  0  0
   -0.4490   -5.6350  -24.0590 C   0  0  0  0  0  3  0  0  0  0  0  0
   -0.7340   -6.8470  -24.7490 C   0  0  0  0  0  0  0  0  0  0  0  0
   -0.3780   -7.0930  -26.0930 C   0  0  0  0  0  0  0  0  0  0  0  0
    0.2660   -6.1040  -26.8270 N   0  0  0  0  0  0  0  0  0  0  0  0
   -0.6230   -8.2690  -26.6900 N   0  0  0  0  0  0  0  0  0  0  0  0
   -1.2720   -9.1840  -25.9680 C   0  0  0  0  0  3  0  0  0  0  0  0
   -1.7000   -9.0370  -24.7130 N   0  0  0  0  0  0  0  0  0  0  0  0
   -1.4150   -7.8810  -24.0870 C   0  0  0  0  0  0  0  0  0  0  0  0
   -0.0770   -5.1690  -26.6560 H   0  0  0  0  0  0  0  0  0  0  0  0
   -1.8760   -9.9060  -21.9460 N   0  0  0  0  0  0  0  0  0  0  0  0
   -2.5110   -8.6950  -22.0010 C   0  0  0  0  0  0  0  0  0  0  0  0
   -3.6140   -8.5190  -21.5090 O   0  0  0  0  0  0  0  0  0  0  0  0
   -2.3350  -10.6490  -21.4360 H   0  0  0  0  0  0  0  0  0  0  0  0
   -0.9550  -10.0700  -22.3250 H   0  0  0  0  0  0  0  0  0  0  0  0
  1  2  1  0  0  0  0
  3  2  2  0  0  0  0
  4  3  1  0  0  0  0
  5  6  1  0  0  0  0
  5  4  2  0  0  0  0
  6  1  2  0  0  0  0
  7  8  1  0  0  0  0
  7  5  1  0  0  0  0
  8 11  1  0  0  0  0
  9  8  2  0  0  0  0
 10  7  1  0  0  0  0
 11 19  2  0  0  0  0
 11 12  1  0  0  0  0
 12 13  2  0  0  0  0
 13 14  1  0  0  0  0
 14 15  1  0  0  0  0
 16 15  2  0  0  0  0
 17 16  1  0  0  0  0
 18 17  1  0  0  0  0
 18 14  2  0  0  0  0
 19 18  1  0  0  0  0
 20 17  1  0  0  0  0
 21  1  1  0  0  0  0
 21 28  1  0  0  0  0
 22 23  1  0  0  0  0
 22 35  1  0  0  0  0
 24 23  2  0  0  0  0
 25 24  1  0  0  0  0
 26 32  1  0  0  0  0
 26 25  2  0  0  0  0
 27 26  1  0  0  0  0
 28 33  1  0  0  0  0
 28 27  1  0  0  0  0
 29 27  2  0  0  0  0
 29 30  1  0  0  0  0
 30 31  2  0  0  0  0
 31 32  1  0  0  0  0
 32 22  2  0  0  0  0
 34 37  1  0  0  0  0
 35 34  1  0  0  0  0
 35 36  2  0  0  0  0
 38 34  1  0  0  0  0
M  END
>  <minimizedAffinity>
-8.09175777

$$$$
