
 OpenBabel10152420033D

 38 42  0  0  0  0  0  0  0  0999 V2000
   -0.5980   -5.4520  -26.8070 C   0  0  0  0  0  0  0  0  0  0  0  0
   -0.5120   -4.0650  -26.6470 C   0  0  0  0  0  3  0  0  0  0  0  0
    0.4830   -3.3490  -27.3030 C   0  0  0  0  0  3  0  0  0  0  0  0
    1.4160   -4.0120  -28.1070 C   0  0  0  0  0  3  0  0  0  0  0  0
    1.3900   -5.4000  -28.2430 C   0  0  0  0  0  0  0  0  0  0  0  0
    0.3620   -6.1070  -27.5990 C   0  0  0  0  0  3  0  0  0  0  0  0
    2.3020   -6.1740  -28.9870 N   0  0  0  0  0  0  0  0  0  0  0  0
    3.0100   -7.3270  -28.7440 C   0  0  0  0  0  0  0  0  0  0  0  0
    3.7920   -7.7560  -29.5910 O   0  0  0  0  0  0  0  0  0  0  0  0
    2.5220   -5.8260  -29.9140 H   0  0  0  0  0  0  0  0  0  0  0  0
    2.8770   -8.0750  -27.4890 C   0  0  0  0  0  0  0  0  0  0  0  0
    2.4150   -7.3940  -26.3610 C   0  0  0  0  0  3  0  0  0  0  0  0
    2.2230   -8.0830  -25.1600 C   0  0  0  0  0  3  0  0  0  0  0  0
    2.5030   -9.4630  -25.1040 C   0  0  0  0  0  0  0  0  0  0  0  0
    2.3860  -10.4500  -24.0870 C   0  0  0  0  0  3  0  0  0  0  0  0
    2.8050  -11.6490  -24.6160 C   0  0  0  0  0  3  0  0  0  0  0  0
    3.1890  -11.4260  -25.9120 N   0  0  0  0  0  0  0  0  0  0  0  0
    3.0030  -10.1020  -26.2410 C   0  0  0  0  0  0  0  0  0  0  0  0
    3.2260   -9.4310  -27.4500 C   0  0  0  0  0  3  0  0  0  0  0  0
    3.5440  -12.1310  -26.5440 H   0  0  0  0  0  0  0  0  0  0  0  0
   -1.7590   -6.2180  -26.2140 C   0  0  0  0  0  2  0  0  0  0  0  0
   -0.8770  -11.6670  -23.5550 C   0  0  0  0  0  0  0  0  0  0  0  0
   -0.5350  -12.4210  -24.6890 C   0  0  0  0  0  3  0  0  0  0  0  0
   -0.5090  -11.8110  -25.9320 C   0  0  0  0  0  3  0  0  0  0  0  0
   -0.8160  -10.4570  -26.0230 C   0  0  0  0  0  3  0  0  0  0  0  0
   -1.1460   -9.6860  -24.8730 C   0  0  0  0  0  0  0  0  0  0  0  0
   -1.4350   -8.3040  -24.9030 C   0  0  0  0  0  0  0  0  0  0  0  0
   -1.3760   -7.6150  -26.1090 N   0  0  0  0  0  0  0  0  0  0  0  0
   -1.7900   -7.6260  -23.8010 N   0  0  0  0  0  0  0  0  0  0  0  0
   -1.8050   -8.3110  -22.6560 C   0  0  0  0  0  3  0  0  0  0  0  0
   -1.4990   -9.6010  -22.5060 N   0  0  0  0  0  0  0  0  0  0  0  0
   -1.1920  -10.3020  -23.6120 C   0  0  0  0  0  0  0  0  0  0  0  0
   -0.6090   -7.8900  -26.7080 H   0  0  0  0  0  0  0  0  0  0  0  0
   -2.1070  -12.2980  -21.5870 N   0  0  0  0  0  0  0  0  0  0  0  0
   -0.9210  -12.3820  -22.2640 C   0  0  0  0  0  0  0  0  0  0  0  0
    0.0520  -12.9550  -21.7990 O   0  0  0  0  0  0  0  0  0  0  0  0
   -2.1680  -12.7730  -20.6960 H   0  0  0  0  0  0  0  0  0  0  0  0
   -2.9310  -11.8500  -21.9600 H   0  0  0  0  0  0  0  0  0  0  0  0
  1  2  1  0  0  0  0
  1 21  1  0  0  0  0
  3  2  2  0  0  0  0
  4  3  1  0  0  0  0
  5  4  2  0  0  0  0
  5  6  1  0  0  0  0
  6  1  2  0  0  0  0
  7  8  1  0  0  0  0
  7  5  1  0  0  0  0
  8 11  1  0  0  0  0
  9  8  2  0  0  0  0
 10  7  1  0  0  0  0
 11 19  2  0  0  0  0
 11 12  1  0  0  0  0
 12 13  2  0  0  0  0
 13 14  1  0  0  0  0
 14 15  1  0  0  0  0
 16 15  2  0  0  0  0
 17 16  1  0  0  0  0
 18 17  1  0  0  0  0
 18 14  2  0  0  0  0
 19 18  1  0  0  0  0
 20 17  1  0  0  0  0
 21 28  1  0  0  0  0
 22 35  1  0  0  0  0
 23 22  2  0  0  0  0
 24 23  1  0  0  0  0
 25 24  2  0  0  0  0
 25 26  1  0  0  0  0
 26 32  1  0  0  0  0
 27 26  2  0  0  0  0
 27 29  1  0  0  0  0
 28 27  1  0  0  0  0
 29 30  2  0  0  0  0
 30 31  1  0  0  0  0
 32 22  1  0  0  0  0
 32 31  2  0  0  0  0
 33 28  1  0  0  0  0
 34 37  1  0  0  0  0
 35 36  2  0  0  0  0
 35 34  1  0  0  0  0
 38 34  1  0  0  0  0
M  END
>  <minimizedAffinity>
-9.61835861

$$$$
