
 OpenBabel10152420033D

 38 42  0  0  0  0  0  0  0  0999 V2000
   -1.3670  -10.0600  -22.6600 C   0  0  0  0  0  0  0  0  0  0  0  0
   -1.2230  -10.6510  -21.4000 C   0  0  0  0  0  3  0  0  0  0  0  0
   -0.5930  -11.8840  -21.2780 C   0  0  0  0  0  3  0  0  0  0  0  0
   -0.1190  -12.5500  -22.4120 C   0  0  0  0  0  3  0  0  0  0  0  0
   -0.2950  -12.0130  -23.6870 C   0  0  0  0  0  0  0  0  0  0  0  0
   -0.9070  -10.7530  -23.7940 C   0  0  0  0  0  3  0  0  0  0  0  0
    0.1010  -12.6130  -24.8990 N   0  0  0  0  0  0  0  0  0  0  0  0
    0.8790  -12.2180  -25.9600 C   0  0  0  0  0  0  0  0  0  0  0  0
    1.0110  -12.9590  -26.9330 O   0  0  0  0  0  0  0  0  0  0  0  0
   -0.2640  -13.5450  -25.0680 H   0  0  0  0  0  0  0  0  0  0  0  0
    1.5630  -10.9210  -25.9870 C   0  0  0  0  0  0  0  0  0  0  0  0
    1.3900  -10.0610  -24.9010 C   0  0  0  0  0  3  0  0  0  0  0  0
    2.0680   -8.8390  -24.8630 C   0  0  0  0  0  3  0  0  0  0  0  0
    2.9190   -8.4890  -25.9290 C   0  0  0  0  0  0  0  0  0  0  0  0
    3.7650   -7.3750  -26.1890 C   0  0  0  0  0  3  0  0  0  0  0  0
    4.3730   -7.5840  -27.4060 C   0  0  0  0  0  3  0  0  0  0  0  0
    3.9150   -8.7750  -27.9060 N   0  0  0  0  0  0  0  0  0  0  0  0
    3.0350   -9.3550  -27.0200 C   0  0  0  0  0  0  0  0  0  0  0  0
    2.3510  -10.5750  -27.0940 C   0  0  0  0  0  3  0  0  0  0  0  0
    4.1910   -9.1790  -28.7900 H   0  0  0  0  0  0  0  0  0  0  0  0
   -1.9220   -8.6590  -22.7860 C   0  0  0  0  0  2  0  0  0  0  0  0
   -0.0800   -4.5900  -26.9800 C   0  0  0  0  0  0  0  0  0  0  0  0
    0.0200   -5.4400  -28.0930 C   0  0  0  0  0  3  0  0  0  0  0  0
   -0.2720   -6.7860  -27.9530 C   0  0  0  0  0  3  0  0  0  0  0  0
   -0.6670   -7.2620  -26.7060 C   0  0  0  0  0  3  0  0  0  0  0  0
   -0.7860   -6.3990  -25.5800 C   0  0  0  0  0  0  0  0  0  0  0  0
   -1.2110   -6.8220  -24.3020 C   0  0  0  0  0  0  0  0  0  0  0  0
   -1.5730   -8.1500  -24.1010 N   0  0  0  0  0  0  0  0  0  0  0  0
   -1.2620   -5.9850  -23.2550 N   0  0  0  0  0  0  0  0  0  0  0  0
   -0.9410   -4.7120  -23.4900 C   0  0  0  0  0  3  0  0  0  0  0  0
   -0.5780   -4.1960  -24.6660 N   0  0  0  0  0  0  0  0  0  0  0  0
   -0.4740   -5.0370  -25.7120 C   0  0  0  0  0  0  0  0  0  0  0  0
   -2.0910   -8.5600  -24.8660 H   0  0  0  0  0  0  0  0  0  0  0  0
   -0.6620   -2.2650  -26.7800 N   0  0  0  0  0  0  0  0  0  0  0  0
    0.2780   -3.1720  -27.1850 C   0  0  0  0  0  0  0  0  0  0  0  0
    1.3130   -2.8310  -27.7370 O   0  0  0  0  0  0  0  0  0  0  0  0
   -0.4490   -1.2850  -26.9100 H   0  0  0  0  0  0  0  0  0  0  0  0
   -1.5140   -2.5220  -26.3010 H   0  0  0  0  0  0  0  0  0  0  0  0
  1  2  1  0  0  0  0
  2  3  2  0  0  0  0
  4  3  1  0  0  0  0
  5  4  2  0  0  0  0
  6  5  1  0  0  0  0
  6  1  2  0  0  0  0
  7  5  1  0  0  0  0
  8  7  1  0  0  0  0
  9  8  2  0  0  0  0
 10  7  1  0  0  0  0
 11  8  1  0  0  0  0
 11 12  1  0  0  0  0
 12 13  2  0  0  0  0
 14 13  1  0  0  0  0
 15 14  1  0  0  0  0
 16 15  2  0  0  0  0
 17 16  1  0  0  0  0
 17 18  1  0  0  0  0
 18 14  2  0  0  0  0
 19 18  1  0  0  0  0
 19 11  2  0  0  0  0
 20 17  1  0  0  0  0
 21  1  1  0  0  0  0
 22 32  1  0  0  0  0
 23 24  1  0  0  0  0
 23 22  2  0  0  0  0
 24 25  2  0  0  0  0
 25 26  1  0  0  0  0
 26 27  1  0  0  0  0
 27 28  1  0  0  0  0
 27 29  2  0  0  0  0
 28 21  1  0  0  0  0
 30 29  1  0  0  0  0
 31 30  2  0  0  0  0
 32 26  2  0  0  0  0
 32 31  1  0  0  0  0
 33 28  1  0  0  0  0
 34 38  1  0  0  0  0
 35 22  1  0  0  0  0
 35 34  1  0  0  0  0
 36 35  2  0  0  0  0
 37 34  1  0  0  0  0
M  END
>  <minimizedAffinity>
-8.15620136

$$$$
