
 OpenBabel10152419413D

 35 38  0  0  0  0  0  0  0  0999 V2000
   -0.9090   -8.4510  -26.6400 C   0  0  0  0  0  2  0  0  0  0  0  0
   -1.5600  -10.4800  -20.9200 C   0  0  0  0  0  0  0  0  0  0  0  0
   -1.7160   -9.2580  -20.2520 C   0  0  0  0  0  3  0  0  0  0  0  0
   -1.7480   -8.0840  -20.9840 C   0  0  0  0  0  3  0  0  0  0  0  0
   -1.6200   -8.1460  -22.3690 C   0  0  0  0  0  3  0  0  0  0  0  0
   -1.4660   -9.3860  -23.0470 C   0  0  0  0  0  0  0  0  0  0  0  0
   -1.3190   -9.5120  -24.4450 C   0  0  0  0  0  0  0  0  0  0  0  0
   -1.3180   -8.3780  -25.2520 N   0  0  0  0  0  0  0  0  0  0  0  0
   -1.1300  -10.7050  -25.0330 N   0  0  0  0  0  0  0  0  0  0  0  0
   -1.1230  -11.7760  -24.2390 C   0  0  0  0  0  3  0  0  0  0  0  0
   -1.2850  -11.7750  -22.9150 N   0  0  0  0  0  0  0  0  0  0  0  0
   -1.4330  -10.5830  -22.3110 C   0  0  0  0  0  0  0  0  0  0  0  0
   -2.0280   -7.6900  -25.0400 H   0  0  0  0  0  0  0  0  0  0  0  0
   -2.6480  -12.4140  -20.0050 N   0  0  0  0  0  0  0  0  0  0  0  0
   -1.4950  -11.6870  -20.0820 C   0  0  0  0  0  0  0  0  0  0  0  0
   -0.4940  -11.9610  -19.4340 O   0  0  0  0  0  0  0  0  0  0  0  0
   -2.6410  -13.2430  -19.4260 H   0  0  0  0  0  0  0  0  0  0  0  0
   -3.4780  -12.1920  -20.5350 H   0  0  0  0  0  0  0  0  0  0  0  0
   -0.1010   -7.2320  -27.0140 C   0  0  0  0  0  0  0  0  0  0  0  0
   -0.3460   -6.0040  -26.3920 C   0  0  0  0  0  3  0  0  0  0  0  0
    0.3800   -4.8730  -26.7600 C   0  0  0  0  0  3  0  0  0  0  0  0
    1.3680   -4.9580  -27.7450 C   0  0  0  0  0  3  0  0  0  0  0  0
    1.6610   -6.1800  -28.3510 C   0  0  0  0  0  0  0  0  0  0  0  0
    0.9100   -7.3080  -27.9880 C   0  0  0  0  0  3  0  0  0  0  0  0
    2.6180   -6.3590  -29.3650 N   0  0  0  0  0  0  0  0  0  0  0  0
    3.7280   -7.1620  -29.4720 C   0  0  0  0  0  0  0  0  0  0  0  0
    4.5750   -6.9190  -30.3320 O   0  0  0  0  0  0  0  0  0  0  0  0
    2.5420   -5.7410  -30.1660 H   0  0  0  0  0  0  0  0  0  0  0  0
    3.9080   -8.3710  -28.6460 C   0  0  0  0  0  0  0  0  0  0  0  0
    4.2170   -8.2170  -27.2890 C   0  0  0  0  0  3  0  0  0  0  0  0
    4.4320   -9.3450  -26.4930 C   0  0  0  0  0  3  0  0  0  0  0  0
    4.3560  -10.6180  -27.0600 C   0  0  0  0  0  0  0  0  0  0  0  0
    4.6190  -12.0060  -26.0790 Cl  0  0  0  0  0  0  0  0  0  0  0  0
    4.0750  -10.7740  -28.4190 C   0  0  0  0  0  3  0  0  0  0  0  0
    3.8600   -9.6490  -29.2180 C   0  0  0  0  0  3  0  0  0  0  0  0
  1  8  1  0  0  0  0
  2  3  1  0  0  0  0
  2 15  1  0  0  0  0
  4  3  2  0  0  0  0
  5  4  1  0  0  0  0
  6  5  2  0  0  0  0
  6 12  1  0  0  0  0
  7  6  1  0  0  0  0
  8 13  1  0  0  0  0
  8  7  1  0  0  0  0
  9  7  2  0  0  0  0
  9 10  1  0  0  0  0
 10 11  2  0  0  0  0
 11 12  1  0  0  0  0
 12  2  2  0  0  0  0
 14 17  1  0  0  0  0
 15 14  1  0  0  0  0
 15 16  2  0  0  0  0
 18 14  1  0  0  0  0
 19  1  1  0  0  0  0
 19 20  1  0  0  0  0
 21 20  2  0  0  0  0
 22 21  1  0  0  0  0
 23 24  1  0  0  0  0
 23 22  2  0  0  0  0
 24 19  2  0  0  0  0
 25 23  1  0  0  0  0
 26 25  1  0  0  0  0
 26 29  1  0  0  0  0
 27 26  2  0  0  0  0
 28 25  1  0  0  0  0
 29 30  1  0  0  0  0
 30 31  2  0  0  0  0
 32 31  1  0  0  0  0
 32 33  1  0  0  0  0
 34 32  2  0  0  0  0
 35 29  2  0  0  0  0
 35 34  1  0  0  0  0
M  END
>  <minimizedAffinity>
-8.4974165

$$$$
