
 OpenBabel10152419413D

 35 38  0  0  0  0  0  0  0  0999 V2000
    3.5950   -9.8900  -25.9990 C   0  0  0  0  0  2  0  0  0  0  0  0
   -0.7490  -11.4280  -21.9980 C   0  0  0  0  0  0  0  0  0  0  0  0
   -1.3780  -10.1840  -21.8410 C   0  0  0  0  0  3  0  0  0  0  0  0
   -0.9450   -9.1060  -22.5940 C   0  0  0  0  0  3  0  0  0  0  0  0
    0.1100   -9.2830  -23.4860 C   0  0  0  0  0  3  0  0  0  0  0  0
    0.7450  -10.5450  -23.6460 C   0  0  0  0  0  0  0  0  0  0  0  0
    1.8250  -10.7830  -24.5230 C   0  0  0  0  0  0  0  0  0  0  0  0
    2.3360   -9.7450  -25.2980 N   0  0  0  0  0  0  0  0  0  0  0  0
    2.4210  -11.9830  -24.6040 N   0  0  0  0  0  0  0  0  0  0  0  0
    1.9220  -12.9580  -23.8430 C   0  0  0  0  0  3  0  0  0  0  0  0
    0.8870  -12.8530  -23.0070 N   0  0  0  0  0  0  0  0  0  0  0  0
    0.3100  -11.6450  -22.8870 C   0  0  0  0  0  0  0  0  0  0  0  0
    1.6480   -9.1580  -25.7490 H   0  0  0  0  0  0  0  0  0  0  0  0
   -2.4980  -12.9590  -21.4010 N   0  0  0  0  0  0  0  0  0  0  0  0
   -1.2310  -12.5220  -21.1420 C   0  0  0  0  0  0  0  0  0  0  0  0
   -0.5630  -12.9440  -20.2080 O   0  0  0  0  0  0  0  0  0  0  0  0
   -2.8650  -13.7020  -20.8210 H   0  0  0  0  0  0  0  0  0  0  0  0
   -3.0560  -12.6140  -22.1670 H   0  0  0  0  0  0  0  0  0  0  0  0
    3.5660   -9.1170  -27.2970 C   0  0  0  0  0  0  0  0  0  0  0  0
    3.9420   -9.7330  -28.4940 C   0  0  0  0  0  3  0  0  0  0  0  0
    3.9430   -9.0100  -29.6850 C   0  0  0  0  0  3  0  0  0  0  0  0
    3.5560   -7.6670  -29.6960 C   0  0  0  0  0  3  0  0  0  0  0  0
    3.1370   -7.0420  -28.5220 C   0  0  0  0  0  0  0  0  0  0  0  0
    3.1590   -7.7730  -27.3250 C   0  0  0  0  0  3  0  0  0  0  0  0
    2.7520   -5.6920  -28.4300 N   0  0  0  0  0  0  0  0  0  0  0  0
    1.5890   -5.0750  -28.0360 C   0  0  0  0  0  0  0  0  0  0  0  0
    1.3960   -3.8960  -28.3310 O   0  0  0  0  0  0  0  0  0  0  0  0
    3.4220   -5.0120  -28.7760 H   0  0  0  0  0  0  0  0  0  0  0  0
    0.5870   -5.7510  -27.1900 C   0  0  0  0  0  0  0  0  0  0  0  0
    0.0320   -6.9560  -27.6400 C   0  0  0  0  0  3  0  0  0  0  0  0
   -0.9480   -7.5960  -26.8780 C   0  0  0  0  0  3  0  0  0  0  0  0
   -1.3820   -7.0210  -25.6820 C   0  0  0  0  0  0  0  0  0  0  0  0
   -2.5870   -7.8100  -24.7430 Cl  0  0  0  0  0  0  0  0  0  0  0  0
   -0.8510   -5.8050  -25.2450 C   0  0  0  0  0  3  0  0  0  0  0  0
    0.1300   -5.1620  -26.0050 C   0  0  0  0  0  3  0  0  0  0  0  0
  1  8  1  0  0  0  0
  2  3  1  0  0  0  0
  2 15  1  0  0  0  0
  4  3  2  0  0  0  0
  5  4  1  0  0  0  0
  6  5  2  0  0  0  0
  6 12  1  0  0  0  0
  7  6  1  0  0  0  0
  8  7  1  0  0  0  0
  9  7  2  0  0  0  0
  9 10  1  0  0  0  0
 10 11  2  0  0  0  0
 11 12  1  0  0  0  0
 12  2  2  0  0  0  0
 13  8  1  0  0  0  0
 14 15  1  0  0  0  0
 14 17  1  0  0  0  0
 15 16  2  0  0  0  0
 18 14  1  0  0  0  0
 19  1  1  0  0  0  0
 20 19  2  0  0  0  0
 21 20  1  0  0  0  0
 22 21  2  0  0  0  0
 22 23  1  0  0  0  0
 23 25  1  0  0  0  0
 23 24  2  0  0  0  0
 24 19  1  0  0  0  0
 25 26  1  0  0  0  0
 26 29  1  0  0  0  0
 27 26  2  0  0  0  0
 28 25  1  0  0  0  0
 29 35  1  0  0  0  0
 30 29  2  0  0  0  0
 30 31  1  0  0  0  0
 31 32  2  0  0  0  0
 32 34  1  0  0  0  0
 32 33  1  0  0  0  0
 35 34  2  0  0  0  0
M  END
>  <minimizedAffinity>
-8.43182659

$$$$
