
 OpenBabel10152419413D

 35 38  0  0  0  0  0  0  0  0999 V2000
   -2.5770   -8.0260  -24.8690 C   0  0  0  0  0  2  0  0  0  0  0  0
    2.5520   -6.5550  -27.8320 C   0  0  0  0  0  0  0  0  0  0  0  0
    2.1550   -5.3360  -28.4010 C   0  0  0  0  0  3  0  0  0  0  0  0
    0.9000   -4.8300  -28.1130 C   0  0  0  0  0  3  0  0  0  0  0  0
    0.0580   -5.5480  -27.2680 C   0  0  0  0  0  3  0  0  0  0  0  0
    0.4610   -6.7830  -26.6890 C   0  0  0  0  0  0  0  0  0  0  0  0
   -0.3510   -7.5610  -25.8370 C   0  0  0  0  0  0  0  0  0  0  0  0
   -1.6360   -7.1340  -25.5160 N   0  0  0  0  0  0  0  0  0  0  0  0
    0.0600   -8.7440  -25.3520 N   0  0  0  0  0  0  0  0  0  0  0  0
    1.2910   -9.1390  -25.6830 C   0  0  0  0  0  3  0  0  0  0  0  0
    2.1520   -8.4680  -26.4500 N   0  0  0  0  0  0  0  0  0  0  0  0
    1.7350   -7.3030  -26.9750 C   0  0  0  0  0  0  0  0  0  0  0  0
   -1.7250   -6.1560  -25.2780 H   0  0  0  0  0  0  0  0  0  0  0  0
    4.1410   -7.0930  -29.5480 N   0  0  0  0  0  0  0  0  0  0  0  0
    3.8820   -7.0570  -28.2080 C   0  0  0  0  0  0  0  0  0  0  0  0
    4.6610   -7.4920  -27.3710 O   0  0  0  0  0  0  0  0  0  0  0  0
    5.0420   -7.4460  -29.8420 H   0  0  0  0  0  0  0  0  0  0  0  0
    3.5020   -6.7390  -30.2450 H   0  0  0  0  0  0  0  0  0  0  0  0
   -2.2860   -8.1130  -23.3900 C   0  0  0  0  0  0  0  0  0  0  0  0
   -1.9100   -6.9720  -22.6760 C   0  0  0  0  0  3  0  0  0  0  0  0
   -1.6120   -7.0600  -21.3180 C   0  0  0  0  0  3  0  0  0  0  0  0
   -1.6990   -8.2870  -20.6540 C   0  0  0  0  0  3  0  0  0  0  0  0
   -2.1120   -9.4320  -21.3350 C   0  0  0  0  0  0  0  0  0  0  0  0
   -2.3890   -9.3370  -22.7070 C   0  0  0  0  0  3  0  0  0  0  0  0
   -2.2060  -10.7130  -20.7600 N   0  0  0  0  0  0  0  0  0  0  0  0
   -1.8660  -11.9660  -21.2080 C   0  0  0  0  0  0  0  0  0  0  0  0
   -2.3240  -12.9590  -20.6420 O   0  0  0  0  0  0  0  0  0  0  0  0
   -2.6740  -10.7650  -19.8610 H   0  0  0  0  0  0  0  0  0  0  0  0
   -0.8930  -12.1760  -22.2970 C   0  0  0  0  0  0  0  0  0  0  0  0
   -1.3030  -11.9470  -23.6160 C   0  0  0  0  0  3  0  0  0  0  0  0
   -0.4140  -12.1770  -24.6690 C   0  0  0  0  0  3  0  0  0  0  0  0
    0.8710  -12.6520  -24.4000 C   0  0  0  0  0  0  0  0  0  0  0  0
    1.9650  -12.9330  -25.6980 Cl  0  0  0  0  0  0  0  0  0  0  0  0
    1.2730  -12.9090  -23.0880 C   0  0  0  0  0  3  0  0  0  0  0  0
    0.3870  -12.6800  -22.0320 C   0  0  0  0  0  3  0  0  0  0  0  0
  1 19  1  0  0  0  0
  2 12  1  0  0  0  0
  3  4  1  0  0  0  0
  3  2  2  0  0  0  0
  4  5  2  0  0  0  0
  5  6  1  0  0  0  0
  6  7  1  0  0  0  0
  7  8  1  0  0  0  0
  7  9  2  0  0  0  0
  8 13  1  0  0  0  0
  8  1  1  0  0  0  0
 10  9  1  0  0  0  0
 11 10  2  0  0  0  0
 12  6  2  0  0  0  0
 12 11  1  0  0  0  0
 14 15  1  0  0  0  0
 15  2  1  0  0  0  0
 15 16  2  0  0  0  0
 17 14  1  0  0  0  0
 18 14  1  0  0  0  0
 19 24  2  0  0  0  0
 19 20  1  0  0  0  0
 20 21  2  0  0  0  0
 21 22  1  0  0  0  0
 23 25  1  0  0  0  0
 23 22  2  0  0  0  0
 24 23  1  0  0  0  0
 25 28  1  0  0  0  0
 26 25  1  0  0  0  0
 26 27  2  0  0  0  0
 29 35  1  0  0  0  0
 29 26  1  0  0  0  0
 30 29  2  0  0  0  0
 31 32  2  0  0  0  0
 31 30  1  0  0  0  0
 32 34  1  0  0  0  0
 33 32  1  0  0  0  0
 34 35  2  0  0  0  0
M  END
>  <minimizedAffinity>
-7.82428074

$$$$
