
 OpenBabel10152419413D

 35 38  0  0  0  0  0  0  0  0999 V2000
    0.7080  -12.7010  -26.4260 C   0  0  0  0  0  2  0  0  0  0  0  0
   -2.1430   -8.8470  -22.6490 C   0  0  0  0  0  0  0  0  0  0  0  0
   -2.5970   -7.8980  -23.5760 C   0  0  0  0  0  3  0  0  0  0  0  0
   -2.3680   -8.1060  -24.9250 C   0  0  0  0  0  3  0  0  0  0  0  0
   -1.6860   -9.2520  -25.3280 C   0  0  0  0  0  3  0  0  0  0  0  0
   -1.2290  -10.2150  -24.3870 C   0  0  0  0  0  0  0  0  0  0  0  0
   -0.5230  -11.3870  -24.7320 C   0  0  0  0  0  0  0  0  0  0  0  0
   -0.2310  -11.6580  -26.0660 N   0  0  0  0  0  0  0  0  0  0  0  0
   -0.0720  -12.2430  -23.8010 N   0  0  0  0  0  0  0  0  0  0  0  0
   -0.3530  -11.9560  -22.5290 C   0  0  0  0  0  3  0  0  0  0  0  0
   -1.0400  -10.8980  -22.0950 N   0  0  0  0  0  0  0  0  0  0  0  0
   -1.4590  -10.0120  -23.0160 C   0  0  0  0  0  0  0  0  0  0  0  0
   -0.9880  -11.5070  -26.7190 H   0  0  0  0  0  0  0  0  0  0  0  0
   -1.2780   -8.5600  -20.4280 N   0  0  0  0  0  0  0  0  0  0  0  0
   -2.3840   -8.5490  -21.2280 C   0  0  0  0  0  0  0  0  0  0  0  0
   -3.5160   -8.3910  -20.7920 O   0  0  0  0  0  0  0  0  0  0  0  0
   -1.4110   -8.3730  -19.4430 H   0  0  0  0  0  0  0  0  0  0  0  0
   -0.3420   -8.6930  -20.7800 H   0  0  0  0  0  0  0  0  0  0  0  0
    2.1180  -12.1580  -26.4340 C   0  0  0  0  0  0  0  0  0  0  0  0
    3.1010  -12.7310  -25.6210 C   0  0  0  0  0  3  0  0  0  0  0  0
    4.3920  -12.2090  -25.6070 C   0  0  0  0  0  3  0  0  0  0  0  0
    4.7210  -11.1170  -26.4160 C   0  0  0  0  0  3  0  0  0  0  0  0
    3.7700  -10.5540  -27.2670 C   0  0  0  0  0  0  0  0  0  0  0  0
    2.4670  -11.0740  -27.2570 C   0  0  0  0  0  3  0  0  0  0  0  0
    4.0000   -9.4430  -28.0980 N   0  0  0  0  0  0  0  0  0  0  0  0
    3.3540   -8.2390  -28.2490 C   0  0  0  0  0  0  0  0  0  0  0  0
    3.5660   -7.5570  -29.2520 O   0  0  0  0  0  0  0  0  0  0  0  0
    4.7450   -9.5410  -28.7800 H   0  0  0  0  0  0  0  0  0  0  0  0
    2.4730   -7.6820  -27.2060 C   0  0  0  0  0  0  0  0  0  0  0  0
    1.5870   -6.6540  -27.5540 C   0  0  0  0  0  3  0  0  0  0  0  0
    0.7700   -6.0810  -26.5770 C   0  0  0  0  0  3  0  0  0  0  0  0
    0.8550   -6.5220  -25.2560 C   0  0  0  0  0  0  0  0  0  0  0  0
   -0.1520   -5.8170  -24.0540 Cl  0  0  0  0  0  0  0  0  0  0  0  0
    1.7580   -7.5270  -24.9000 C   0  0  0  0  0  3  0  0  0  0  0  0
    2.5770   -8.1030  -25.8740 C   0  0  0  0  0  3  0  0  0  0  0  0
  1  8  1  0  0  0  0
  2 15  1  0  0  0  0
  3  2  2  0  0  0  0
  4  3  1  0  0  0  0
  5  4  2  0  0  0  0
  5  6  1  0  0  0  0
  6 12  1  0  0  0  0
  7  6  2  0  0  0  0
  7  9  1  0  0  0  0
  8  7  1  0  0  0  0
  9 10  2  0  0  0  0
 10 11  1  0  0  0  0
 12  2  1  0  0  0  0
 12 11  2  0  0  0  0
 13  8  1  0  0  0  0
 14 17  1  0  0  0  0
 15 16  2  0  0  0  0
 15 14  1  0  0  0  0
 18 14  1  0  0  0  0
 19  1  1  0  0  0  0
 19 20  1  0  0  0  0
 20 21  2  0  0  0  0
 22 21  1  0  0  0  0
 23 24  1  0  0  0  0
 23 22  2  0  0  0  0
 24 19  2  0  0  0  0
 25 23  1  0  0  0  0
 26 25  1  0  0  0  0
 26 29  1  0  0  0  0
 27 26  2  0  0  0  0
 28 25  1  0  0  0  0
 29 35  1  0  0  0  0
 30 29  2  0  0  0  0
 30 31  1  0  0  0  0
 31 32  2  0  0  0  0
 32 34  1  0  0  0  0
 32 33  1  0  0  0  0
 35 34  2  0  0  0  0
M  END
>  <minimizedAffinity>
-9.42039204

$$$$
