
 OpenBabel10152419413D

 35 38  0  0  0  0  0  0  0  0999 V2000
   -1.2120  -12.0460  -24.6420 C   0  0  0  0  0  2  0  0  0  0  0  0
    3.8390   -9.5130  -26.9490 C   0  0  0  0  0  0  0  0  0  0  0  0
    4.7220  -10.5960  -26.8300 C   0  0  0  0  0  3  0  0  0  0  0  0
    4.2510  -11.8060  -26.3530 C   0  0  0  0  0  3  0  0  0  0  0  0
    2.9090  -11.9180  -25.9970 C   0  0  0  0  0  3  0  0  0  0  0  0
    2.0120  -10.8210  -26.1210 C   0  0  0  0  0  0  0  0  0  0  0  0
    0.6470  -10.8680  -25.7660 C   0  0  0  0  0  0  0  0  0  0  0  0
    0.1000  -12.0420  -25.2560 N   0  0  0  0  0  0  0  0  0  0  0  0
   -0.1470   -9.7900  -25.8590 N   0  0  0  0  0  0  0  0  0  0  0  0
    0.4020   -8.6730  -26.3390 C   0  0  0  0  0  3  0  0  0  0  0  0
    1.6680   -8.5270  -26.7350 N   0  0  0  0  0  0  0  0  0  0  0  0
    2.4830   -9.5880  -26.6060 C   0  0  0  0  0  0  0  0  0  0  0  0
    0.3610  -12.8910  -25.7380 H   0  0  0  0  0  0  0  0  0  0  0  0
    4.7160   -8.1990  -28.7560 N   0  0  0  0  0  0  0  0  0  0  0  0
    4.4100   -8.2450  -27.4260 C   0  0  0  0  0  0  0  0  0  0  0  0
    4.6690   -7.3310  -26.6550 O   0  0  0  0  0  0  0  0  0  0  0  0
    5.1240   -7.3460  -29.1130 H   0  0  0  0  0  0  0  0  0  0  0  0
    4.5090   -8.9500  -29.3970 H   0  0  0  0  0  0  0  0  0  0  0  0
   -1.0890  -11.9500  -23.1400 C   0  0  0  0  0  0  0  0  0  0  0  0
   -0.3560  -12.9050  -22.4290 C   0  0  0  0  0  3  0  0  0  0  0  0
   -0.2690  -12.8330  -21.0400 C   0  0  0  0  0  3  0  0  0  0  0  0
   -0.9020  -11.7970  -20.3460 C   0  0  0  0  0  3  0  0  0  0  0  0
   -1.6050  -10.8090  -21.0360 C   0  0  0  0  0  0  0  0  0  0  0  0
   -1.7040  -10.9040  -22.4320 C   0  0  0  0  0  3  0  0  0  0  0  0
   -2.2930   -9.7450  -20.4250 N   0  0  0  0  0  0  0  0  0  0  0  0
   -2.4000   -8.4080  -20.7220 C   0  0  0  0  0  0  0  0  0  0  0  0
   -2.8130   -7.6260  -19.8660 O   0  0  0  0  0  0  0  0  0  0  0  0
   -2.7620   -9.9590  -19.5510 H   0  0  0  0  0  0  0  0  0  0  0  0
   -2.1190   -7.8750  -22.0690 C   0  0  0  0  0  0  0  0  0  0  0  0
   -1.0600   -6.9730  -22.2260 C   0  0  0  0  0  3  0  0  0  0  0  0
   -0.7980   -6.4220  -23.4830 C   0  0  0  0  0  3  0  0  0  0  0  0
   -1.6060   -6.7610  -24.5700 C   0  0  0  0  0  0  0  0  0  0  0  0
   -1.2810   -6.0840  -26.1180 Cl  0  0  0  0  0  0  0  0  0  0  0  0
   -2.6800   -7.6380  -24.4100 C   0  0  0  0  0  3  0  0  0  0  0  0
   -2.9460   -8.1900  -23.1550 C   0  0  0  0  0  3  0  0  0  0  0  0
  1 19  1  0  0  0  0
  2  3  2  0  0  0  0
  2 12  1  0  0  0  0
  3  4  1  0  0  0  0
  4  5  2  0  0  0  0
  6  5  1  0  0  0  0
  6  7  1  0  0  0  0
  7  8  1  0  0  0  0
  8  1  1  0  0  0  0
  9  7  2  0  0  0  0
 10  9  1  0  0  0  0
 11 12  1  0  0  0  0
 11 10  2  0  0  0  0
 12  6  2  0  0  0  0
 13  8  1  0  0  0  0
 14 15  1  0  0  0  0
 15  2  1  0  0  0  0
 15 16  2  0  0  0  0
 17 14  1  0  0  0  0
 18 14  1  0  0  0  0
 19 24  2  0  0  0  0
 19 20  1  0  0  0  0
 20 21  2  0  0  0  0
 21 22  1  0  0  0  0
 23 25  1  0  0  0  0
 23 22  2  0  0  0  0
 24 23  1  0  0  0  0
 25 28  1  0  0  0  0
 26 25  1  0  0  0  0
 26 27  2  0  0  0  0
 29 26  1  0  0  0  0
 30 29  1  0  0  0  0
 31 30  2  0  0  0  0
 32 34  2  0  0  0  0
 32 31  1  0  0  0  0
 33 32  1  0  0  0  0
 34 35  1  0  0  0  0
 35 29  2  0  0  0  0
M  END
>  <minimizedAffinity>
-7.27751637

$$$$
