
 OpenBabel10152419413D

 35 38  0  0  0  0  0  0  0  0999 V2000
   -1.6390   -6.6370  -26.0710 C   0  0  0  0  0  2  0  0  0  0  0  0
   -0.9880  -11.8940  -23.0400 C   0  0  0  0  0  0  0  0  0  0  0  0
   -0.6630  -12.7440  -24.1070 C   0  0  0  0  0  3  0  0  0  0  0  0
   -0.5230  -12.2140  -25.3770 C   0  0  0  0  0  3  0  0  0  0  0  0
   -0.7170  -10.8470  -25.5660 C   0  0  0  0  0  3  0  0  0  0  0  0
   -1.0440   -9.9850  -24.4830 C   0  0  0  0  0  0  0  0  0  0  0  0
   -1.2640   -8.5970  -24.6140 C   0  0  0  0  0  0  0  0  0  0  0  0
   -1.1660   -7.9900  -25.8630 N   0  0  0  0  0  0  0  0  0  0  0  0
   -1.6160   -7.8350  -23.5670 N   0  0  0  0  0  0  0  0  0  0  0  0
   -1.7150   -8.4400  -22.3830 C   0  0  0  0  0  3  0  0  0  0  0  0
   -1.4970   -9.7350  -22.1410 N   0  0  0  0  0  0  0  0  0  0  0  0
   -1.1850  -10.5160  -23.1900 C   0  0  0  0  0  0  0  0  0  0  0  0
   -0.3720   -8.2680  -26.4230 H   0  0  0  0  0  0  0  0  0  0  0  0
   -2.4280  -12.5040  -21.2190 N   0  0  0  0  0  0  0  0  0  0  0  0
   -1.1590  -12.5250  -21.7220 C   0  0  0  0  0  0  0  0  0  0  0  0
   -0.2040  -12.9570  -21.0920 O   0  0  0  0  0  0  0  0  0  0  0  0
   -2.5770  -12.9170  -20.3080 H   0  0  0  0  0  0  0  0  0  0  0  0
   -3.2200  -12.1460  -21.7320 H   0  0  0  0  0  0  0  0  0  0  0  0
   -0.5810   -5.8120  -26.7650 C   0  0  0  0  0  0  0  0  0  0  0  0
   -0.6130   -4.4160  -26.6900 C   0  0  0  0  0  3  0  0  0  0  0  0
    0.3460   -3.6550  -27.3560 C   0  0  0  0  0  3  0  0  0  0  0  0
    1.3560   -4.2800  -28.0930 C   0  0  0  0  0  3  0  0  0  0  0  0
    1.4340   -5.6720  -28.1480 C   0  0  0  0  0  0  0  0  0  0  0  0
    0.4510   -6.4280  -27.4920 C   0  0  0  0  0  3  0  0  0  0  0  0
    2.3960   -6.3890  -28.8820 N   0  0  0  0  0  0  0  0  0  0  0  0
    3.2750   -7.3890  -28.5420 C   0  0  0  0  0  0  0  0  0  0  0  0
    4.2240   -7.6440  -29.2850 O   0  0  0  0  0  0  0  0  0  0  0  0
    2.5430   -6.0900  -29.8400 H   0  0  0  0  0  0  0  0  0  0  0  0
    3.0790   -8.2410  -27.3540 C   0  0  0  0  0  0  0  0  0  0  0  0
    3.2260   -9.6270  -27.4900 C   0  0  0  0  0  3  0  0  0  0  0  0
    3.0060  -10.4610  -26.3910 C   0  0  0  0  0  3  0  0  0  0  0  0
    2.6220   -9.9080  -25.1690 C   0  0  0  0  0  0  0  0  0  0  0  0
    2.3520  -10.9340  -23.8150 Cl  0  0  0  0  0  0  0  0  0  0  0  0
    2.4460   -8.5290  -25.0370 C   0  0  0  0  0  3  0  0  0  0  0  0
    2.6640   -7.6920  -26.1340 C   0  0  0  0  0  3  0  0  0  0  0  0
  1  8  1  0  0  0  0
  2 15  1  0  0  0  0
  3  2  2  0  0  0  0
  4  3  1  0  0  0  0
  5  4  2  0  0  0  0
  5  6  1  0  0  0  0
  6 12  1  0  0  0  0
  7  6  2  0  0  0  0
  7  9  1  0  0  0  0
  8  7  1  0  0  0  0
  9 10  2  0  0  0  0
 10 11  1  0  0  0  0
 12  2  1  0  0  0  0
 12 11  2  0  0  0  0
 13  8  1  0  0  0  0
 14 17  1  0  0  0  0
 15 14  1  0  0  0  0
 15 16  2  0  0  0  0
 18 14  1  0  0  0  0
 19 20  1  0  0  0  0
 19  1  1  0  0  0  0
 21 20  2  0  0  0  0
 22 21  1  0  0  0  0
 23 22  2  0  0  0  0
 23 24  1  0  0  0  0
 24 19  2  0  0  0  0
 25 26  1  0  0  0  0
 25 23  1  0  0  0  0
 26 29  1  0  0  0  0
 27 26  2  0  0  0  0
 28 25  1  0  0  0  0
 29 35  1  0  0  0  0
 30 29  2  0  0  0  0
 30 31  1  0  0  0  0
 31 32  2  0  0  0  0
 32 34  1  0  0  0  0
 32 33  1  0  0  0  0
 35 34  2  0  0  0  0
M  END
>  <minimizedAffinity>
-9.59933281

$$$$

 OpenBabel10152419413D

 35 38  0  0  0  0  0  0  0  0999 V2000
    0.7080  -12.7010  -26.4260 C   0  0  0  0  0  2  0  0  0  0  0  0
   -2.1430   -8.8470  -22.6490 C   0  0  0  0  0  0  0  0  0  0  0  0
   -2.5970   -7.8980  -23.5760 C   0  0  0  0  0  3  0  0  0  0  0  0
   -2.3680   -8.1060  -24.9250 C   0  0  0  0  0  3  0  0  0  0  0  0
   -1.6860   -9.2520  -25.3280 C   0  0  0  0  0  3  0  0  0  0  0  0
   -1.2290  -10.2150  -24.3870 C   0  0  0  0  0  0  0  0  0  0  0  0
   -0.5230  -11.3870  -24.7320 C   0  0  0  0  0  0  0  0  0  0  0  0
   -0.2310  -11.6580  -26.0660 N   0  0  0  0  0  0  0  0  0  0  0  0
   -0.0720  -12.2430  -23.8010 N   0  0  0  0  0  0  0  0  0  0  0  0
   -0.3530  -11.9560  -22.5290 C   0  0  0  0  0  3  0  0  0  0  0  0
   -1.0400  -10.8980  -22.0950 N   0  0  0  0  0  0  0  0  0  0  0  0
   -1.4590  -10.0120  -23.0160 C   0  0  0  0  0  0  0  0  0  0  0  0
   -0.9880  -11.5070  -26.7190 H   0  0  0  0  0  0  0  0  0  0  0  0
   -1.2780   -8.5600  -20.4280 N   0  0  0  0  0  0  0  0  0  0  0  0
   -2.3840   -8.5490  -21.2280 C   0  0  0  0  0  0  0  0  0  0  0  0
   -3.5160   -8.3910  -20.7920 O   0  0  0  0  0  0  0  0  0  0  0  0
   -1.4110   -8.3730  -19.4430 H   0  0  0  0  0  0  0  0  0  0  0  0
   -0.3420   -8.6930  -20.7800 H   0  0  0  0  0  0  0  0  0  0  0  0
    2.1180  -12.1580  -26.4340 C   0  0  0  0  0  0  0  0  0  0  0  0
    3.1010  -12.7310  -25.6210 C   0  0  0  0  0  3  0  0  0  0  0  0
    4.3920  -12.2090  -25.6070 C   0  0  0  0  0  3  0  0  0  0  0  0
    4.7210  -11.1170  -26.4160 C   0  0  0  0  0  3  0  0  0  0  0  0
    3.7700  -10.5540  -27.2670 C   0  0  0  0  0  0  0  0  0  0  0  0
    2.4670  -11.0740  -27.2570 C   0  0  0  0  0  3  0  0  0  0  0  0
    4.0000   -9.4430  -28.0980 N   0  0  0  0  0  0  0  0  0  0  0  0
    3.3540   -8.2390  -28.2490 C   0  0  0  0  0  0  0  0  0  0  0  0
    3.5660   -7.5570  -29.2520 O   0  0  0  0  0  0  0  0  0  0  0  0
    4.7450   -9.5410  -28.7800 H   0  0  0  0  0  0  0  0  0  0  0  0
    2.4730   -7.6820  -27.2060 C   0  0  0  0  0  0  0  0  0  0  0  0
    1.5870   -6.6540  -27.5540 C   0  0  0  0  0  3  0  0  0  0  0  0
    0.7700   -6.0810  -26.5770 C   0  0  0  0  0  3  0  0  0  0  0  0
    0.8550   -6.5220  -25.2560 C   0  0  0  0  0  0  0  0  0  0  0  0
   -0.1520   -5.8170  -24.0540 Cl  0  0  0  0  0  0  0  0  0  0  0  0
    1.7580   -7.5270  -24.9000 C   0  0  0  0  0  3  0  0  0  0  0  0
    2.5770   -8.1030  -25.8740 C   0  0  0  0  0  3  0  0  0  0  0  0
  1  8  1  0  0  0  0
  2 15  1  0  0  0  0
  3  2  2  0  0  0  0
  4  3  1  0  0  0  0
  5  4  2  0  0  0  0
  5  6  1  0  0  0  0
  6 12  1  0  0  0  0
  7  6  2  0  0  0  0
  7  9  1  0  0  0  0
  8  7  1  0  0  0  0
  9 10  2  0  0  0  0
 10 11  1  0  0  0  0
 12  2  1  0  0  0  0
 12 11  2  0  0  0  0
 13  8  1  0  0  0  0
 14 17  1  0  0  0  0
 15 16  2  0  0  0  0
 15 14  1  0  0  0  0
 18 14  1  0  0  0  0
 19  1  1  0  0  0  0
 19 20  1  0  0  0  0
 20 21  2  0  0  0  0
 22 21  1  0  0  0  0
 23 24  1  0  0  0  0
 23 22  2  0  0  0  0
 24 19  2  0  0  0  0
 25 23  1  0  0  0  0
 26 25  1  0  0  0  0
 26 29  1  0  0  0  0
 27 26  2  0  0  0  0
 28 25  1  0  0  0  0
 29 35  1  0  0  0  0
 30 29  2  0  0  0  0
 30 31  1  0  0  0  0
 31 32  2  0  0  0  0
 32 34  1  0  0  0  0
 32 33  1  0  0  0  0
 35 34  2  0  0  0  0
M  END
>  <minimizedAffinity>
-9.42039204

$$$$

 OpenBabel10152419413D

 35 38  0  0  0  0  0  0  0  0999 V2000
    4.7220   -8.1240  -28.6900 C   0  0  0  0  0  2  0  0  0  0  0  0
   -0.0380   -5.7280  -25.7150 C   0  0  0  0  0  0  0  0  0  0  0  0
   -0.4750   -4.8030  -26.6730 C   0  0  0  0  0  3  0  0  0  0  0  0
    0.1630   -4.7450  -27.9000 C   0  0  0  0  0  3  0  0  0  0  0  0
    1.2290   -5.6050  -28.1500 C   0  0  0  0  0  3  0  0  0  0  0  0
    1.6700   -6.5460  -27.1790 C   0  0  0  0  0  0  0  0  0  0  0  0
    2.7500   -7.4340  -27.3690 C   0  0  0  0  0  0  0  0  0  0  0  0
    3.4600   -7.4220  -28.5660 N   0  0  0  0  0  0  0  0  0  0  0  0
    3.1570   -8.2720  -26.4020 N   0  0  0  0  0  0  0  0  0  0  0  0
    2.4700   -8.2560  -25.2590 C   0  0  0  0  0  3  0  0  0  0  0  0
    1.4150   -7.4850  -24.9850 N   0  0  0  0  0  0  0  0  0  0  0  0
    1.0260   -6.6120  -25.9310 C   0  0  0  0  0  0  0  0  0  0  0  0
    2.9000   -7.3770  -29.4060 H   0  0  0  0  0  0  0  0  0  0  0  0
   -1.3080   -6.8940  -24.0450 N   0  0  0  0  0  0  0  0  0  0  0  0
   -0.7330   -5.7140  -24.4180 C   0  0  0  0  0  0  0  0  0  0  0  0
   -0.8540   -4.6830  -23.7700 O   0  0  0  0  0  0  0  0  0  0  0  0
   -1.8060   -6.9140  -23.1650 H   0  0  0  0  0  0  0  0  0  0  0  0
   -1.2150   -7.7470  -24.5760 H   0  0  0  0  0  0  0  0  0  0  0  0
    4.4870   -9.6140  -28.7790 C   0  0  0  0  0  0  0  0  0  0  0  0
    4.2110  -10.2130  -30.0110 C   0  0  0  0  0  3  0  0  0  0  0  0
    3.9640  -11.5820  -30.0860 C   0  0  0  0  0  3  0  0  0  0  0  0
    4.0050  -12.3720  -28.9340 C   0  0  0  0  0  3  0  0  0  0  0  0
    4.3200  -11.8050  -27.6980 C   0  0  0  0  0  0  0  0  0  0  0  0
    4.5450  -10.4220  -27.6300 C   0  0  0  0  0  3  0  0  0  0  0  0
    4.3610  -12.5110  -26.4830 N   0  0  0  0  0  0  0  0  0  0  0  0
    3.6040  -12.4480  -25.3390 C   0  0  0  0  0  0  0  0  0  0  0  0
    4.0250  -12.9590  -24.3010 O   0  0  0  0  0  0  0  0  0  0  0  0
    5.1330  -13.1610  -26.3700 H   0  0  0  0  0  0  0  0  0  0  0  0
    2.2490  -11.8630  -25.3220 C   0  0  0  0  0  0  0  0  0  0  0  0
    1.7260  -11.4180  -24.1020 C   0  0  0  0  0  3  0  0  0  0  0  0
    0.4310  -10.8970  -24.0510 C   0  0  0  0  0  3  0  0  0  0  0  0
   -0.3400  -10.8410  -25.2130 C   0  0  0  0  0  0  0  0  0  0  0  0
   -1.9340  -10.1980  -25.1500 Cl  0  0  0  0  0  0  0  0  0  0  0  0
    0.1680  -11.3110  -26.4260 C   0  0  0  0  0  3  0  0  0  0  0  0
    1.4630  -11.8330  -26.4810 C   0  0  0  0  0  3  0  0  0  0  0  0
  1  8  1  0  0  0  0
  2 15  1  0  0  0  0
  3  2  2  0  0  0  0
  4  3  1  0  0  0  0
  5  4  2  0  0  0  0
  5  6  1  0  0  0  0
  6 12  1  0  0  0  0
  7  6  2  0  0  0  0
  7  9  1  0  0  0  0
  8  7  1  0  0  0  0
  9 10  2  0  0  0  0
 10 11  1  0  0  0  0
 12  2  1  0  0  0  0
 12 11  2  0  0  0  0
 13  8  1  0  0  0  0
 14 17  1  0  0  0  0
 15 14  1  0  0  0  0
 15 16  2  0  0  0  0
 18 14  1  0  0  0  0
 19  1  1  0  0  0  0
 19 24  1  0  0  0  0
 20 19  2  0  0  0  0
 21 20  1  0  0  0  0
 21 22  2  0  0  0  0
 22 23  1  0  0  0  0
 23 24  2  0  0  0  0
 23 25  1  0  0  0  0
 25 28  1  0  0  0  0
 25 26  1  0  0  0  0
 26 29  1  0  0  0  0
 26 27  2  0  0  0  0
 29 30  1  0  0  0  0
 30 31  2  0  0  0  0
 32 33  1  0  0  0  0
 32 31  1  0  0  0  0
 34 32  2  0  0  0  0
 35 34  1  0  0  0  0
 35 29  2  0  0  0  0
M  END
>  <minimizedAffinity>
-8.71273804

$$$$

 OpenBabel10152419413D

 35 38  0  0  0  0  0  0  0  0999 V2000
   -0.9090   -8.4510  -26.6400 C   0  0  0  0  0  2  0  0  0  0  0  0
   -1.5600  -10.4800  -20.9200 C   0  0  0  0  0  0  0  0  0  0  0  0
   -1.7160   -9.2580  -20.2520 C   0  0  0  0  0  3  0  0  0  0  0  0
   -1.7480   -8.0840  -20.9840 C   0  0  0  0  0  3  0  0  0  0  0  0
   -1.6200   -8.1460  -22.3690 C   0  0  0  0  0  3  0  0  0  0  0  0
   -1.4660   -9.3860  -23.0470 C   0  0  0  0  0  0  0  0  0  0  0  0
   -1.3190   -9.5120  -24.4450 C   0  0  0  0  0  0  0  0  0  0  0  0
   -1.3180   -8.3780  -25.2520 N   0  0  0  0  0  0  0  0  0  0  0  0
   -1.1300  -10.7050  -25.0330 N   0  0  0  0  0  0  0  0  0  0  0  0
   -1.1230  -11.7760  -24.2390 C   0  0  0  0  0  3  0  0  0  0  0  0
   -1.2850  -11.7750  -22.9150 N   0  0  0  0  0  0  0  0  0  0  0  0
   -1.4330  -10.5830  -22.3110 C   0  0  0  0  0  0  0  0  0  0  0  0
   -2.0280   -7.6900  -25.0400 H   0  0  0  0  0  0  0  0  0  0  0  0
   -2.6480  -12.4140  -20.0050 N   0  0  0  0  0  0  0  0  0  0  0  0
   -1.4950  -11.6870  -20.0820 C   0  0  0  0  0  0  0  0  0  0  0  0
   -0.4940  -11.9610  -19.4340 O   0  0  0  0  0  0  0  0  0  0  0  0
   -2.6410  -13.2430  -19.4260 H   0  0  0  0  0  0  0  0  0  0  0  0
   -3.4780  -12.1920  -20.5350 H   0  0  0  0  0  0  0  0  0  0  0  0
   -0.1010   -7.2320  -27.0140 C   0  0  0  0  0  0  0  0  0  0  0  0
   -0.3460   -6.0040  -26.3920 C   0  0  0  0  0  3  0  0  0  0  0  0
    0.3800   -4.8730  -26.7600 C   0  0  0  0  0  3  0  0  0  0  0  0
    1.3680   -4.9580  -27.7450 C   0  0  0  0  0  3  0  0  0  0  0  0
    1.6610   -6.1800  -28.3510 C   0  0  0  0  0  0  0  0  0  0  0  0
    0.9100   -7.3080  -27.9880 C   0  0  0  0  0  3  0  0  0  0  0  0
    2.6180   -6.3590  -29.3650 N   0  0  0  0  0  0  0  0  0  0  0  0
    3.7280   -7.1620  -29.4720 C   0  0  0  0  0  0  0  0  0  0  0  0
    4.5750   -6.9190  -30.3320 O   0  0  0  0  0  0  0  0  0  0  0  0
    2.5420   -5.7410  -30.1660 H   0  0  0  0  0  0  0  0  0  0  0  0
    3.9080   -8.3710  -28.6460 C   0  0  0  0  0  0  0  0  0  0  0  0
    4.2170   -8.2170  -27.2890 C   0  0  0  0  0  3  0  0  0  0  0  0
    4.4320   -9.3450  -26.4930 C   0  0  0  0  0  3  0  0  0  0  0  0
    4.3560  -10.6180  -27.0600 C   0  0  0  0  0  0  0  0  0  0  0  0
    4.6190  -12.0060  -26.0790 Cl  0  0  0  0  0  0  0  0  0  0  0  0
    4.0750  -10.7740  -28.4190 C   0  0  0  0  0  3  0  0  0  0  0  0
    3.8600   -9.6490  -29.2180 C   0  0  0  0  0  3  0  0  0  0  0  0
  1  8  1  0  0  0  0
  2  3  1  0  0  0  0
  2 15  1  0  0  0  0
  4  3  2  0  0  0  0
  5  4  1  0  0  0  0
  6  5  2  0  0  0  0
  6 12  1  0  0  0  0
  7  6  1  0  0  0  0
  8 13  1  0  0  0  0
  8  7  1  0  0  0  0
  9  7  2  0  0  0  0
  9 10  1  0  0  0  0
 10 11  2  0  0  0  0
 11 12  1  0  0  0  0
 12  2  2  0  0  0  0
 14 17  1  0  0  0  0
 15 14  1  0  0  0  0
 15 16  2  0  0  0  0
 18 14  1  0  0  0  0
 19  1  1  0  0  0  0
 19 20  1  0  0  0  0
 21 20  2  0  0  0  0
 22 21  1  0  0  0  0
 23 24  1  0  0  0  0
 23 22  2  0  0  0  0
 24 19  2  0  0  0  0
 25 23  1  0  0  0  0
 26 25  1  0  0  0  0
 26 29  1  0  0  0  0
 27 26  2  0  0  0  0
 28 25  1  0  0  0  0
 29 30  1  0  0  0  0
 30 31  2  0  0  0  0
 32 31  1  0  0  0  0
 32 33  1  0  0  0  0
 34 32  2  0  0  0  0
 35 29  2  0  0  0  0
 35 34  1  0  0  0  0
M  END
>  <minimizedAffinity>
-8.4974165

$$$$

 OpenBabel10152419413D

 35 38  0  0  0  0  0  0  0  0999 V2000
    3.5950   -9.8900  -25.9990 C   0  0  0  0  0  2  0  0  0  0  0  0
   -0.7490  -11.4280  -21.9980 C   0  0  0  0  0  0  0  0  0  0  0  0
   -1.3780  -10.1840  -21.8410 C   0  0  0  0  0  3  0  0  0  0  0  0
   -0.9450   -9.1060  -22.5940 C   0  0  0  0  0  3  0  0  0  0  0  0
    0.1100   -9.2830  -23.4860 C   0  0  0  0  0  3  0  0  0  0  0  0
    0.7450  -10.5450  -23.6460 C   0  0  0  0  0  0  0  0  0  0  0  0
    1.8250  -10.7830  -24.5230 C   0  0  0  0  0  0  0  0  0  0  0  0
    2.3360   -9.7450  -25.2980 N   0  0  0  0  0  0  0  0  0  0  0  0
    2.4210  -11.9830  -24.6040 N   0  0  0  0  0  0  0  0  0  0  0  0
    1.9220  -12.9580  -23.8430 C   0  0  0  0  0  3  0  0  0  0  0  0
    0.8870  -12.8530  -23.0070 N   0  0  0  0  0  0  0  0  0  0  0  0
    0.3100  -11.6450  -22.8870 C   0  0  0  0  0  0  0  0  0  0  0  0
    1.6480   -9.1580  -25.7490 H   0  0  0  0  0  0  0  0  0  0  0  0
   -2.4980  -12.9590  -21.4010 N   0  0  0  0  0  0  0  0  0  0  0  0
   -1.2310  -12.5220  -21.1420 C   0  0  0  0  0  0  0  0  0  0  0  0
   -0.5630  -12.9440  -20.2080 O   0  0  0  0  0  0  0  0  0  0  0  0
   -2.8650  -13.7020  -20.8210 H   0  0  0  0  0  0  0  0  0  0  0  0
   -3.0560  -12.6140  -22.1670 H   0  0  0  0  0  0  0  0  0  0  0  0
    3.5660   -9.1170  -27.2970 C   0  0  0  0  0  0  0  0  0  0  0  0
    3.9420   -9.7330  -28.4940 C   0  0  0  0  0  3  0  0  0  0  0  0
    3.9430   -9.0100  -29.6850 C   0  0  0  0  0  3  0  0  0  0  0  0
    3.5560   -7.6670  -29.6960 C   0  0  0  0  0  3  0  0  0  0  0  0
    3.1370   -7.0420  -28.5220 C   0  0  0  0  0  0  0  0  0  0  0  0
    3.1590   -7.7730  -27.3250 C   0  0  0  0  0  3  0  0  0  0  0  0
    2.7520   -5.6920  -28.4300 N   0  0  0  0  0  0  0  0  0  0  0  0
    1.5890   -5.0750  -28.0360 C   0  0  0  0  0  0  0  0  0  0  0  0
    1.3960   -3.8960  -28.3310 O   0  0  0  0  0  0  0  0  0  0  0  0
    3.4220   -5.0120  -28.7760 H   0  0  0  0  0  0  0  0  0  0  0  0
    0.5870   -5.7510  -27.1900 C   0  0  0  0  0  0  0  0  0  0  0  0
    0.0320   -6.9560  -27.6400 C   0  0  0  0  0  3  0  0  0  0  0  0
   -0.9480   -7.5960  -26.8780 C   0  0  0  0  0  3  0  0  0  0  0  0
   -1.3820   -7.0210  -25.6820 C   0  0  0  0  0  0  0  0  0  0  0  0
   -2.5870   -7.8100  -24.7430 Cl  0  0  0  0  0  0  0  0  0  0  0  0
   -0.8510   -5.8050  -25.2450 C   0  0  0  0  0  3  0  0  0  0  0  0
    0.1300   -5.1620  -26.0050 C   0  0  0  0  0  3  0  0  0  0  0  0
  1  8  1  0  0  0  0
  2  3  1  0  0  0  0
  2 15  1  0  0  0  0
  4  3  2  0  0  0  0
  5  4  1  0  0  0  0
  6  5  2  0  0  0  0
  6 12  1  0  0  0  0
  7  6  1  0  0  0  0
  8  7  1  0  0  0  0
  9  7  2  0  0  0  0
  9 10  1  0  0  0  0
 10 11  2  0  0  0  0
 11 12  1  0  0  0  0
 12  2  2  0  0  0  0
 13  8  1  0  0  0  0
 14 15  1  0  0  0  0
 14 17  1  0  0  0  0
 15 16  2  0  0  0  0
 18 14  1  0  0  0  0
 19  1  1  0  0  0  0
 20 19  2  0  0  0  0
 21 20  1  0  0  0  0
 22 21  2  0  0  0  0
 22 23  1  0  0  0  0
 23 25  1  0  0  0  0
 23 24  2  0  0  0  0
 24 19  1  0  0  0  0
 25 26  1  0  0  0  0
 26 29  1  0  0  0  0
 27 26  2  0  0  0  0
 28 25  1  0  0  0  0
 29 35  1  0  0  0  0
 30 29  2  0  0  0  0
 30 31  1  0  0  0  0
 31 32  2  0  0  0  0
 32 34  1  0  0  0  0
 32 33  1  0  0  0  0
 35 34  2  0  0  0  0
M  END
>  <minimizedAffinity>
-8.43182659

$$$$

 OpenBabel10152419413D

 35 38  0  0  0  0  0  0  0  0999 V2000
    4.5410   -8.6560  -28.1960 C   0  0  0  0  0  2  0  0  0  0  0  0
   -0.1870   -5.3780  -26.1580 C   0  0  0  0  0  0  0  0  0  0  0  0
   -0.3200   -5.9280  -24.8750 C   0  0  0  0  0  3  0  0  0  0  0  0
    0.5840   -6.8850  -24.4500 C   0  0  0  0  0  3  0  0  0  0  0  0
    1.6030   -7.2840  -25.3120 C   0  0  0  0  0  3  0  0  0  0  0  0
    1.7390   -6.7250  -26.6120 C   0  0  0  0  0  0  0  0  0  0  0  0
    2.7420   -7.0960  -27.5330 C   0  0  0  0  0  0  0  0  0  0  0  0
    3.6760   -8.0700  -27.1920 N   0  0  0  0  0  0  0  0  0  0  0  0
    2.8000   -6.5710  -28.7670 N   0  0  0  0  0  0  0  0  0  0  0  0
    1.8870   -5.6490  -29.0760 C   0  0  0  0  0  3  0  0  0  0  0  0
    0.9200   -5.2000  -28.2730 N   0  0  0  0  0  0  0  0  0  0  0  0
    0.8260   -5.7510  -27.0500 C   0  0  0  0  0  0  0  0  0  0  0  0
    4.0720   -7.9900  -26.2660 H   0  0  0  0  0  0  0  0  0  0  0  0
   -0.9210   -3.0950  -26.2510 N   0  0  0  0  0  0  0  0  0  0  0  0
   -1.2020   -4.3940  -26.5640 C   0  0  0  0  0  0  0  0  0  0  0  0
   -2.2610   -4.7390  -27.0680 O   0  0  0  0  0  0  0  0  0  0  0  0
   -1.6050   -2.3940  -26.5030 H   0  0  0  0  0  0  0  0  0  0  0  0
   -0.0500   -2.8030  -25.8320 H   0  0  0  0  0  0  0  0  0  0  0  0
    4.4630  -10.1640  -28.1410 C   0  0  0  0  0  0  0  0  0  0  0  0
    4.5400  -10.9180  -29.3150 C   0  0  0  0  0  3  0  0  0  0  0  0
    4.4370  -12.3070  -29.2650 C   0  0  0  0  0  3  0  0  0  0  0  0
    4.2720  -12.9590  -28.0400 C   0  0  0  0  0  3  0  0  0  0  0  0
    4.2350  -12.2320  -26.8500 C   0  0  0  0  0  0  0  0  0  0  0  0
    4.3170  -10.8330  -26.9140 C   0  0  0  0  0  3  0  0  0  0  0  0
    4.0480  -12.7960  -25.5750 N   0  0  0  0  0  0  0  0  0  0  0  0
    3.1680  -12.5270  -24.5540 C   0  0  0  0  0  0  0  0  0  0  0  0
    3.4000  -12.9560  -23.4240 O   0  0  0  0  0  0  0  0  0  0  0  0
    4.7210  -13.5010  -25.2960 H   0  0  0  0  0  0  0  0  0  0  0  0
    1.8970  -11.8120  -24.7770 C   0  0  0  0  0  0  0  0  0  0  0  0
    1.4670  -10.8920  -23.8140 C   0  0  0  0  0  3  0  0  0  0  0  0
    0.2480  -10.2310  -23.9790 C   0  0  0  0  0  3  0  0  0  0  0  0
   -0.5430  -10.5070  -25.0960 C   0  0  0  0  0  0  0  0  0  0  0  0
   -2.0440   -9.6910  -25.3000 Cl  0  0  0  0  0  0  0  0  0  0  0  0
   -0.1310  -11.4460  -26.0440 C   0  0  0  0  0  3  0  0  0  0  0  0
    1.0880  -12.1090  -25.8810 C   0  0  0  0  0  3  0  0  0  0  0  0
  1 19  1  0  0  0  0
  1  8  1  0  0  0  0
  2  3  1  0  0  0  0
  3  4  2  0  0  0  0
  5  4  1  0  0  0  0
  6  5  2  0  0  0  0
  7  8  1  0  0  0  0
  7  6  1  0  0  0  0
  8 13  1  0  0  0  0
  9  7  2  0  0  0  0
 10  9  1  0  0  0  0
 10 11  2  0  0  0  0
 11 12  1  0  0  0  0
 12  6  1  0  0  0  0
 12  2  2  0  0  0  0
 14 18  1  0  0  0  0
 15 14  1  0  0  0  0
 15  2  1  0  0  0  0
 16 15  2  0  0  0  0
 17 14  1  0  0  0  0
 19 24  1  0  0  0  0
 20 21  1  0  0  0  0
 20 19  2  0  0  0  0
 21 22  2  0  0  0  0
 22 23  1  0  0  0  0
 23 25  1  0  0  0  0
 24 23  2  0  0  0  0
 25 28  1  0  0  0  0
 25 26  1  0  0  0  0
 26 27  2  0  0  0  0
 29 26  1  0  0  0  0
 29 30  1  0  0  0  0
 31 30  2  0  0  0  0
 32 31  1  0  0  0  0
 33 32  1  0  0  0  0
 34 35  1  0  0  0  0
 34 32  2  0  0  0  0
 35 29  2  0  0  0  0
M  END
>  <minimizedAffinity>
-7.88102007

$$$$

 OpenBabel10152419413D

 35 38  0  0  0  0  0  0  0  0999 V2000
   -2.5770   -8.0260  -24.8690 C   0  0  0  0  0  2  0  0  0  0  0  0
    2.5520   -6.5550  -27.8320 C   0  0  0  0  0  0  0  0  0  0  0  0
    2.1550   -5.3360  -28.4010 C   0  0  0  0  0  3  0  0  0  0  0  0
    0.9000   -4.8300  -28.1130 C   0  0  0  0  0  3  0  0  0  0  0  0
    0.0580   -5.5480  -27.2680 C   0  0  0  0  0  3  0  0  0  0  0  0
    0.4610   -6.7830  -26.6890 C   0  0  0  0  0  0  0  0  0  0  0  0
   -0.3510   -7.5610  -25.8370 C   0  0  0  0  0  0  0  0  0  0  0  0
   -1.6360   -7.1340  -25.5160 N   0  0  0  0  0  0  0  0  0  0  0  0
    0.0600   -8.7440  -25.3520 N   0  0  0  0  0  0  0  0  0  0  0  0
    1.2910   -9.1390  -25.6830 C   0  0  0  0  0  3  0  0  0  0  0  0
    2.1520   -8.4680  -26.4500 N   0  0  0  0  0  0  0  0  0  0  0  0
    1.7350   -7.3030  -26.9750 C   0  0  0  0  0  0  0  0  0  0  0  0
   -1.7250   -6.1560  -25.2780 H   0  0  0  0  0  0  0  0  0  0  0  0
    4.1410   -7.0930  -29.5480 N   0  0  0  0  0  0  0  0  0  0  0  0
    3.8820   -7.0570  -28.2080 C   0  0  0  0  0  0  0  0  0  0  0  0
    4.6610   -7.4920  -27.3710 O   0  0  0  0  0  0  0  0  0  0  0  0
    5.0420   -7.4460  -29.8420 H   0  0  0  0  0  0  0  0  0  0  0  0
    3.5020   -6.7390  -30.2450 H   0  0  0  0  0  0  0  0  0  0  0  0
   -2.2860   -8.1130  -23.3900 C   0  0  0  0  0  0  0  0  0  0  0  0
   -1.9100   -6.9720  -22.6760 C   0  0  0  0  0  3  0  0  0  0  0  0
   -1.6120   -7.0600  -21.3180 C   0  0  0  0  0  3  0  0  0  0  0  0
   -1.6990   -8.2870  -20.6540 C   0  0  0  0  0  3  0  0  0  0  0  0
   -2.1120   -9.4320  -21.3350 C   0  0  0  0  0  0  0  0  0  0  0  0
   -2.3890   -9.3370  -22.7070 C   0  0  0  0  0  3  0  0  0  0  0  0
   -2.2060  -10.7130  -20.7600 N   0  0  0  0  0  0  0  0  0  0  0  0
   -1.8660  -11.9660  -21.2080 C   0  0  0  0  0  0  0  0  0  0  0  0
   -2.3240  -12.9590  -20.6420 O   0  0  0  0  0  0  0  0  0  0  0  0
   -2.6740  -10.7650  -19.8610 H   0  0  0  0  0  0  0  0  0  0  0  0
   -0.8930  -12.1760  -22.2970 C   0  0  0  0  0  0  0  0  0  0  0  0
   -1.3030  -11.9470  -23.6160 C   0  0  0  0  0  3  0  0  0  0  0  0
   -0.4140  -12.1770  -24.6690 C   0  0  0  0  0  3  0  0  0  0  0  0
    0.8710  -12.6520  -24.4000 C   0  0  0  0  0  0  0  0  0  0  0  0
    1.9650  -12.9330  -25.6980 Cl  0  0  0  0  0  0  0  0  0  0  0  0
    1.2730  -12.9090  -23.0880 C   0  0  0  0  0  3  0  0  0  0  0  0
    0.3870  -12.6800  -22.0320 C   0  0  0  0  0  3  0  0  0  0  0  0
  1 19  1  0  0  0  0
  2 12  1  0  0  0  0
  3  4  1  0  0  0  0
  3  2  2  0  0  0  0
  4  5  2  0  0  0  0
  5  6  1  0  0  0  0
  6  7  1  0  0  0  0
  7  8  1  0  0  0  0
  7  9  2  0  0  0  0
  8 13  1  0  0  0  0
  8  1  1  0  0  0  0
 10  9  1  0  0  0  0
 11 10  2  0  0  0  0
 12  6  2  0  0  0  0
 12 11  1  0  0  0  0
 14 15  1  0  0  0  0
 15  2  1  0  0  0  0
 15 16  2  0  0  0  0
 17 14  1  0  0  0  0
 18 14  1  0  0  0  0
 19 24  2  0  0  0  0
 19 20  1  0  0  0  0
 20 21  2  0  0  0  0
 21 22  1  0  0  0  0
 23 25  1  0  0  0  0
 23 22  2  0  0  0  0
 24 23  1  0  0  0  0
 25 28  1  0  0  0  0
 26 25  1  0  0  0  0
 26 27  2  0  0  0  0
 29 35  1  0  0  0  0
 29 26  1  0  0  0  0
 30 29  2  0  0  0  0
 31 32  2  0  0  0  0
 31 30  1  0  0  0  0
 32 34  1  0  0  0  0
 33 32  1  0  0  0  0
 34 35  2  0  0  0  0
M  END
>  <minimizedAffinity>
-7.82428074

$$$$

 OpenBabel10152419413D

 35 38  0  0  0  0  0  0  0  0999 V2000
   -1.2120  -12.0460  -24.6420 C   0  0  0  0  0  2  0  0  0  0  0  0
    3.8390   -9.5130  -26.9490 C   0  0  0  0  0  0  0  0  0  0  0  0
    4.7220  -10.5960  -26.8300 C   0  0  0  0  0  3  0  0  0  0  0  0
    4.2510  -11.8060  -26.3530 C   0  0  0  0  0  3  0  0  0  0  0  0
    2.9090  -11.9180  -25.9970 C   0  0  0  0  0  3  0  0  0  0  0  0
    2.0120  -10.8210  -26.1210 C   0  0  0  0  0  0  0  0  0  0  0  0
    0.6470  -10.8680  -25.7660 C   0  0  0  0  0  0  0  0  0  0  0  0
    0.1000  -12.0420  -25.2560 N   0  0  0  0  0  0  0  0  0  0  0  0
   -0.1470   -9.7900  -25.8590 N   0  0  0  0  0  0  0  0  0  0  0  0
    0.4020   -8.6730  -26.3390 C   0  0  0  0  0  3  0  0  0  0  0  0
    1.6680   -8.5270  -26.7350 N   0  0  0  0  0  0  0  0  0  0  0  0
    2.4830   -9.5880  -26.6060 C   0  0  0  0  0  0  0  0  0  0  0  0
    0.3610  -12.8910  -25.7380 H   0  0  0  0  0  0  0  0  0  0  0  0
    4.7160   -8.1990  -28.7560 N   0  0  0  0  0  0  0  0  0  0  0  0
    4.4100   -8.2450  -27.4260 C   0  0  0  0  0  0  0  0  0  0  0  0
    4.6690   -7.3310  -26.6550 O   0  0  0  0  0  0  0  0  0  0  0  0
    5.1240   -7.3460  -29.1130 H   0  0  0  0  0  0  0  0  0  0  0  0
    4.5090   -8.9500  -29.3970 H   0  0  0  0  0  0  0  0  0  0  0  0
   -1.0890  -11.9500  -23.1400 C   0  0  0  0  0  0  0  0  0  0  0  0
   -0.3560  -12.9050  -22.4290 C   0  0  0  0  0  3  0  0  0  0  0  0
   -0.2690  -12.8330  -21.0400 C   0  0  0  0  0  3  0  0  0  0  0  0
   -0.9020  -11.7970  -20.3460 C   0  0  0  0  0  3  0  0  0  0  0  0
   -1.6050  -10.8090  -21.0360 C   0  0  0  0  0  0  0  0  0  0  0  0
   -1.7040  -10.9040  -22.4320 C   0  0  0  0  0  3  0  0  0  0  0  0
   -2.2930   -9.7450  -20.4250 N   0  0  0  0  0  0  0  0  0  0  0  0
   -2.4000   -8.4080  -20.7220 C   0  0  0  0  0  0  0  0  0  0  0  0
   -2.8130   -7.6260  -19.8660 O   0  0  0  0  0  0  0  0  0  0  0  0
   -2.7620   -9.9590  -19.5510 H   0  0  0  0  0  0  0  0  0  0  0  0
   -2.1190   -7.8750  -22.0690 C   0  0  0  0  0  0  0  0  0  0  0  0
   -1.0600   -6.9730  -22.2260 C   0  0  0  0  0  3  0  0  0  0  0  0
   -0.7980   -6.4220  -23.4830 C   0  0  0  0  0  3  0  0  0  0  0  0
   -1.6060   -6.7610  -24.5700 C   0  0  0  0  0  0  0  0  0  0  0  0
   -1.2810   -6.0840  -26.1180 Cl  0  0  0  0  0  0  0  0  0  0  0  0
   -2.6800   -7.6380  -24.4100 C   0  0  0  0  0  3  0  0  0  0  0  0
   -2.9460   -8.1900  -23.1550 C   0  0  0  0  0  3  0  0  0  0  0  0
  1 19  1  0  0  0  0
  2  3  2  0  0  0  0
  2 12  1  0  0  0  0
  3  4  1  0  0  0  0
  4  5  2  0  0  0  0
  6  5  1  0  0  0  0
  6  7  1  0  0  0  0
  7  8  1  0  0  0  0
  8  1  1  0  0  0  0
  9  7  2  0  0  0  0
 10  9  1  0  0  0  0
 11 12  1  0  0  0  0
 11 10  2  0  0  0  0
 12  6  2  0  0  0  0
 13  8  1  0  0  0  0
 14 15  1  0  0  0  0
 15  2  1  0  0  0  0
 15 16  2  0  0  0  0
 17 14  1  0  0  0  0
 18 14  1  0  0  0  0
 19 24  2  0  0  0  0
 19 20  1  0  0  0  0
 20 21  2  0  0  0  0
 21 22  1  0  0  0  0
 23 25  1  0  0  0  0
 23 22  2  0  0  0  0
 24 23  1  0  0  0  0
 25 28  1  0  0  0  0
 26 25  1  0  0  0  0
 26 27  2  0  0  0  0
 29 26  1  0  0  0  0
 30 29  1  0  0  0  0
 31 30  2  0  0  0  0
 32 34  2  0  0  0  0
 32 31  1  0  0  0  0
 33 32  1  0  0  0  0
 34 35  1  0  0  0  0
 35 29  2  0  0  0  0
M  END
>  <minimizedAffinity>
-7.27751637

$$$$

 OpenBabel10152419413D

 35 38  0  0  0  0  0  0  0  0999 V2000
   -2.7420   -8.4170  -24.9200 C   0  0  0  0  0  2  0  0  0  0  0  0
    1.7610  -12.3910  -23.8340 C   0  0  0  0  0  0  0  0  0  0  0  0
    1.2930  -12.9590  -22.6410 C   0  0  0  0  0  3  0  0  0  0  0  0
    0.0640  -12.5680  -22.1400 C   0  0  0  0  0  3  0  0  0  0  0  0
   -0.6770  -11.6130  -22.8330 C   0  0  0  0  0  3  0  0  0  0  0  0
   -0.2030  -11.0390  -24.0440 C   0  0  0  0  0  0  0  0  0  0  0  0
   -0.9010  -10.0600  -24.7840 C   0  0  0  0  0  0  0  0  0  0  0  0
   -2.1340   -9.5950  -24.3350 N   0  0  0  0  0  0  0  0  0  0  0  0
   -0.3880   -9.5160  -25.8990 N   0  0  0  0  0  0  0  0  0  0  0  0
    0.8000   -9.9690  -26.3020 C   0  0  0  0  0  3  0  0  0  0  0  0
    1.5280  -10.9120  -25.7010 N   0  0  0  0  0  0  0  0  0  0  0  0
    1.0430  -11.4330  -24.5600 C   0  0  0  0  0  0  0  0  0  0  0  0
   -2.7760  -10.3040  -24.0100 H   0  0  0  0  0  0  0  0  0  0  0  0
    4.0350  -12.9570  -23.3160 N   0  0  0  0  0  0  0  0  0  0  0  0
    3.0910  -12.8210  -24.2930 C   0  0  0  0  0  0  0  0  0  0  0  0
    3.3430  -12.9590  -25.4810 O   0  0  0  0  0  0  0  0  0  0  0  0
    4.9640  -13.2380  -23.5990 H   0  0  0  0  0  0  0  0  0  0  0  0
    3.8350  -12.8420  -22.3330 H   0  0  0  0  0  0  0  0  0  0  0  0
   -1.8090   -7.2340  -24.8080 C   0  0  0  0  0  0  0  0  0  0  0  0
   -1.3260   -6.8320  -23.5590 C   0  0  0  0  0  3  0  0  0  0  0  0
   -0.4910   -5.7220  -23.4540 C   0  0  0  0  0  3  0  0  0  0  0  0
   -0.1160   -5.0090  -24.5970 C   0  0  0  0  0  3  0  0  0  0  0  0
   -0.5510   -5.4160  -25.8580 C   0  0  0  0  0  0  0  0  0  0  0  0
   -1.4090   -6.5220  -25.9510 C   0  0  0  0  0  3  0  0  0  0  0  0
   -0.2470   -4.7510  -27.0600 N   0  0  0  0  0  0  0  0  0  0  0  0
    0.8440   -4.7800  -27.8950 C   0  0  0  0  0  0  0  0  0  0  0  0
    1.0000   -3.8830  -28.7230 O   0  0  0  0  0  0  0  0  0  0  0  0
   -0.9180   -4.0540  -27.3670 H   0  0  0  0  0  0  0  0  0  0  0  0
    1.8020   -5.9020  -27.8990 C   0  0  0  0  0  0  0  0  0  0  0  0
    2.3670   -6.2970  -29.1180 C   0  0  0  0  0  3  0  0  0  0  0  0
    3.2460   -7.3820  -29.1570 C   0  0  0  0  0  3  0  0  0  0  0  0
    3.5410   -8.0770  -27.9840 C   0  0  0  0  0  0  0  0  0  0  0  0
    4.6250   -9.4120  -28.0320 Cl  0  0  0  0  0  0  0  0  0  0  0  0
    2.9580   -7.7040  -26.7710 C   0  0  0  0  0  3  0  0  0  0  0  0
    2.0770   -6.6190  -26.7280 C   0  0  0  0  0  3  0  0  0  0  0  0
  1 19  1  0  0  0  0
  1  8  1  0  0  0  0
  2  3  1  0  0  0  0
  3  4  2  0  0  0  0
  5  4  1  0  0  0  0
  6  5  2  0  0  0  0
  7  8  1  0  0  0  0
  7  6  1  0  0  0  0
  8 13  1  0  0  0  0
  9  7  2  0  0  0  0
 10  9  1  0  0  0  0
 10 11  2  0  0  0  0
 11 12  1  0  0  0  0
 12  6  1  0  0  0  0
 12  2  2  0  0  0  0
 14 18  1  0  0  0  0
 15  2  1  0  0  0  0
 15 14  1  0  0  0  0
 16 15  2  0  0  0  0
 17 14  1  0  0  0  0
 19 20  1  0  0  0  0
 20 21  2  0  0  0  0
 22 21  1  0  0  0  0
 23 22  2  0  0  0  0
 24 23  1  0  0  0  0
 24 19  2  0  0  0  0
 25 23  1  0  0  0  0
 26 25  1  0  0  0  0
 27 26  2  0  0  0  0
 28 25  1  0  0  0  0
 29 26  1  0  0  0  0
 29 35  1  0  0  0  0
 30 29  2  0  0  0  0
 31 30  1  0  0  0  0
 31 32  2  0  0  0  0
 32 34  1  0  0  0  0
 33 32  1  0  0  0  0
 34 35  2  0  0  0  0
M  END
>  <minimizedAffinity>
-7.05614471

$$$$
