
 OpenBabel10152418183D

 39 42  0  0  1  0  0  0  0  0999 V2000
    0.1450   -6.6210  -26.8870 C   0  0  0  0  0  0  0  0  0  0  0  0
   -0.2980   -5.3290  -26.5770 C   0  0  0  0  0  3  0  0  0  0  0  0
    0.2340   -4.2360  -27.2470 C   0  0  0  0  0  3  0  0  0  0  0  0
    1.2340   -4.4170  -28.2050 C   0  0  0  0  0  3  0  0  0  0  0  0
    1.7890   -5.6740  -28.4420 C   0  0  0  0  0  0  0  0  0  0  0  0
    1.2420   -6.7680  -27.7580 C   0  0  0  0  0  3  0  0  0  0  0  0
    2.8020   -5.9680  -29.3800 N   0  0  0  0  0  0  0  0  0  0  0  0
    3.7690   -6.9440  -29.4630 C   0  0  0  0  0  0  0  0  0  0  0  0
    4.6430   -6.8760  -30.3240 O   0  0  0  0  0  0  0  0  0  0  0  0
    2.9020   -5.3110  -30.1470 H   0  0  0  0  0  0  0  0  0  0  0  0
    3.7840   -8.0830  -28.5500 C   0  0  0  0  0  0  0  0  0  0  0  0
    3.6690   -9.3900  -29.0160 C   0  0  0  0  0  3  0  0  0  0  0  0
    3.5110  -10.4190  -28.0880 C   0  0  0  0  0  3  0  0  0  0  0  0
    3.4900  -10.1120  -26.7230 C   0  0  0  0  0  0  0  0  0  0  0  0
    3.7010   -8.8390  -26.2700 N   0  0  0  0  0  0  0  0  0  0  0  0
    3.8490   -7.8530  -27.1860 C   0  0  0  0  0  3  0  0  0  0  0  0
    3.2010  -11.2170  -25.7130 C   0  0  0  0  0  0  0  0  0  0  0  0
    2.1830  -12.0370  -26.0950 F   0  0  0  0  0  0  0  0  0  0  0  0
    4.2720  -12.0240  -25.4620 F   0  0  0  0  0  0  0  0  0  0  0  0
    2.8330  -10.7240  -24.4900 F   0  0  0  0  0  0  0  0  0  0  0  0
    0.3350   -8.9640  -25.9990 C   0  0  0  0  0  1  0  0  0  0  0  0
   -0.6290   -7.8540  -26.4360 C   0  0  1  0  0  3  0  0  0  0  0  0
   -1.6090   -7.6040  -25.3560 N   0  0  0  0  0  0  0  0  0  0  0  0
   -2.5610   -7.8440  -25.6230 H   0  0  0  0  0  0  0  0  0  0  0  0
   -1.4400   -8.0240  -24.0460 C   0  0  0  0  0  0  0  0  0  0  0  0
   -1.5190   -7.0100  -23.1720 N   0  0  0  0  0  0  0  0  0  0  0  0
   -1.6000   -7.3460  -21.8870 C   0  0  0  0  0  3  0  0  0  0  0  0
   -1.6330   -8.5900  -21.3960 N   0  0  0  0  0  0  0  0  0  0  0  0
   -1.4900   -9.6170  -22.2660 C   0  0  0  0  0  0  0  0  0  0  0  0
   -1.5260  -10.9660  -21.8540 C   0  0  0  0  0  0  0  0  0  0  0  0
   -1.3130  -12.0170  -22.7670 C   0  0  0  0  0  3  0  0  0  0  0  0
   -1.0420  -11.7500  -24.0990 C   0  0  0  0  0  3  0  0  0  0  0  0
   -1.0370  -10.4310  -24.5300 C   0  0  0  0  0  3  0  0  0  0  0  0
   -1.3120   -9.3640  -23.6390 C   0  0  0  0  0  0  0  0  0  0  0  0
   -1.8150  -11.3870  -20.4470 C   0  0  0  0  0  0  0  0  0  0  0  0
   -0.8150  -11.9610  -19.7200 N   0  0  0  0  0  0  0  0  0  0  0  0
   -2.9190  -11.2190  -19.9430 O   0  0  0  0  0  0  0  0  0  0  0  0
   -1.0000  -12.2400  -18.7680 H   0  0  0  0  0  0  0  0  0  0  0  0
    0.1070  -12.1010  -20.1220 H   0  0  0  0  0  0  0  0  0  0  0  0
  1  2  1  0  0  0  0
  1 22  1  0  0  0  0
  3  2  2  0  0  0  0
  4  3  1  0  0  0  0
  5  4  2  0  0  0  0
  5  6  1  0  0  0  0
  6  1  2  0  0  0  0
  7  5  1  0  0  0  0
  8  7  1  0  0  0  0
  8 11  1  0  0  0  0
  9  8  2  0  0  0  0
 10  7  1  0  0  0  0
 11 16  1  0  0  0  0
 12 11  2  0  0  0  0
 12 13  1  0  0  0  0
 13 14  2  0  0  0  0
 14 15  1  0  0  0  0
 14 17  1  0  0  0  0
 16 15  2  0  0  0  0
 17 19  1  0  0  0  0
 17 20  1  0  0  0  0
 18 17  1  0  0  0  0
 22 21  1  1  0  0  0
 22 23  1  0  0  0  0
 23 25  1  0  0  0  0
 24 23  1  0  0  0  0
 25 34  2  0  0  0  0
 25 26  1  0  0  0  0
 26 27  2  0  0  0  0
 27 28  1  0  0  0  0
 29 30  1  0  0  0  0
 29 28  2  0  0  0  0
 30 35  1  0  0  0  0
 31 30  2  0  0  0  0
 32 31  1  0  0  0  0
 33 32  2  0  0  0  0
 33 34  1  0  0  0  0
 34 29  1  0  0  0  0
 35 37  2  0  0  0  0
 35 36  1  0  0  0  0
 36 38  1  0  0  0  0
 39 36  1  0  0  0  0
M  END
>  <minimizedAffinity>
-6.84411097

$$$$
