
 OpenBabel10152418183D

 39 42  0  0  1  0  0  0  0  0999 V2000
   -0.5880  -10.0820  -24.6660 C   0  0  0  0  0  0  0  0  0  0  0  0
   -1.3960  -10.6170  -25.6770 C   0  0  0  0  0  3  0  0  0  0  0  0
   -0.8930  -11.6020  -26.5160 C   0  0  0  0  0  3  0  0  0  0  0  0
    0.4270  -12.0390  -26.3760 C   0  0  0  0  0  3  0  0  0  0  0  0
    1.2950  -11.4360  -25.4670 C   0  0  0  0  0  0  0  0  0  0  0  0
    0.7740  -10.4420  -24.6270 C   0  0  0  0  0  3  0  0  0  0  0  0
    2.6430  -11.7930  -25.2470 N   0  0  0  0  0  0  0  0  0  0  0  0
    3.8300  -11.4480  -25.8510 C   0  0  0  0  0  0  0  0  0  0  0  0
    4.8670  -12.0390  -25.5570 O   0  0  0  0  0  0  0  0  0  0  0  0
    2.8060  -12.4910  -24.5290 H   0  0  0  0  0  0  0  0  0  0  0  0
    3.9010  -10.3780  -26.8410 C   0  0  0  0  0  0  0  0  0  0  0  0
    3.6170   -9.0560  -26.5050 C   0  0  0  0  0  3  0  0  0  0  0  0
    3.5280   -8.1110  -27.5260 C   0  0  0  0  0  3  0  0  0  0  0  0
    3.7400   -8.5130  -28.8500 C   0  0  0  0  0  0  0  0  0  0  0  0
    4.1120   -9.7910  -29.1630 N   0  0  0  0  0  0  0  0  0  0  0  0
    4.1900  -10.6940  -28.1570 C   0  0  0  0  0  3  0  0  0  0  0  0
    3.5280   -7.5090  -29.9780 C   0  0  0  0  0  0  0  0  0  0  0  0
    4.6750   -6.8760  -30.3530 F   0  0  0  0  0  0  0  0  0  0  0  0
    3.0050   -8.0590  -31.1110 F   0  0  0  0  0  0  0  0  0  0  0  0
    2.6570   -6.5110  -29.6330 F   0  0  0  0  0  0  0  0  0  0  0  0
   -1.3260  -10.1210  -22.2640 C   0  0  0  0  0  1  0  0  0  0  0  0
   -1.1820   -9.2620  -23.5260 C   0  0  1  0  0  3  0  0  0  0  0  0
   -0.4300   -8.0320  -23.1970 N   0  0  0  0  0  0  0  0  0  0  0  0
    0.5780   -8.1650  -23.2270 H   0  0  0  0  0  0  0  0  0  0  0  0
   -0.6900   -6.7920  -23.7610 C   0  0  0  0  0  0  0  0  0  0  0  0
   -1.0620   -5.8840  -22.8460 N   0  0  0  0  0  0  0  0  0  0  0  0
   -1.1070   -4.6190  -23.2560 C   0  0  0  0  0  3  0  0  0  0  0  0
   -0.7950   -4.1750  -24.4800 N   0  0  0  0  0  0  0  0  0  0  0  0
   -0.4800   -5.0900  -25.4240 C   0  0  0  0  0  0  0  0  0  0  0  0
   -0.1210   -4.7260  -26.7390 C   0  0  0  0  0  0  0  0  0  0  0  0
    0.1420   -5.6980  -27.7240 C   0  0  0  0  0  3  0  0  0  0  0  0
    0.0370   -7.0480  -27.4290 C   0  0  0  0  0  3  0  0  0  0  0  0
   -0.2810   -7.4260  -26.1310 C   0  0  0  0  0  3  0  0  0  0  0  0
   -0.4870   -6.4630  -25.1130 C   0  0  0  0  0  0  0  0  0  0  0  0
    0.0340   -3.3050  -27.1840 C   0  0  0  0  0  0  0  0  0  0  0  0
   -0.8230   -2.3690  -26.6840 N   0  0  0  0  0  0  0  0  0  0  0  0
    0.9100   -2.9730  -27.9720 O   0  0  0  0  0  0  0  0  0  0  0  0
   -0.7190   -1.4070  -26.9720 H   0  0  0  0  0  0  0  0  0  0  0  0
   -1.5500   -2.6270  -26.0240 H   0  0  0  0  0  0  0  0  0  0  0  0
  1  6  1  0  0  0  0
  1 22  1  0  0  0  0
  2  1  2  0  0  0  0
  3  4  2  0  0  0  0
  3  2  1  0  0  0  0
  4  5  1  0  0  0  0
  5  7  1  0  0  0  0
  5  6  2  0  0  0  0
  7 10  1  0  0  0  0
  8  9  2  0  0  0  0
  8  7  1  0  0  0  0
 11 12  1  0  0  0  0
 11  8  1  0  0  0  0
 13 12  2  0  0  0  0
 14 13  1  0  0  0  0
 15 14  2  0  0  0  0
 15 16  1  0  0  0  0
 16 11  2  0  0  0  0
 17 20  1  0  0  0  0
 17 14  1  0  0  0  0
 18 17  1  0  0  0  0
 19 17  1  0  0  0  0
 22 23  1  0  0  0  0
 22 21  1  1  0  0  0
 24 23  1  0  0  0  0
 25 23  1  0  0  0  0
 25 26  1  0  0  0  0
 27 26  2  0  0  0  0
 28 27  1  0  0  0  0
 29 34  1  0  0  0  0
 29 28  2  0  0  0  0
 30 29  1  0  0  0  0
 31 32  1  0  0  0  0
 31 30  2  0  0  0  0
 32 33  2  0  0  0  0
 33 34  1  0  0  0  0
 34 25  2  0  0  0  0
 35 30  1  0  0  0  0
 35 36  1  0  0  0  0
 36 39  1  0  0  0  0
 37 35  2  0  0  0  0
 38 36  1  0  0  0  0
M  END
>  <minimizedAffinity>
-9.16043949

$$$$
