
 OpenBabel10152418183D

 39 42  0  0  1  0  0  0  0  0999 V2000
   -0.5880  -10.0820  -24.6660 C   0  0  0  0  0  0  0  0  0  0  0  0
   -1.3960  -10.6170  -25.6770 C   0  0  0  0  0  3  0  0  0  0  0  0
   -0.8930  -11.6020  -26.5160 C   0  0  0  0  0  3  0  0  0  0  0  0
    0.4270  -12.0390  -26.3760 C   0  0  0  0  0  3  0  0  0  0  0  0
    1.2950  -11.4360  -25.4670 C   0  0  0  0  0  0  0  0  0  0  0  0
    0.7740  -10.4420  -24.6270 C   0  0  0  0  0  3  0  0  0  0  0  0
    2.6430  -11.7930  -25.2470 N   0  0  0  0  0  0  0  0  0  0  0  0
    3.8300  -11.4480  -25.8510 C   0  0  0  0  0  0  0  0  0  0  0  0
    4.8670  -12.0390  -25.5570 O   0  0  0  0  0  0  0  0  0  0  0  0
    2.8060  -12.4910  -24.5290 H   0  0  0  0  0  0  0  0  0  0  0  0
    3.9010  -10.3780  -26.8410 C   0  0  0  0  0  0  0  0  0  0  0  0
    3.6170   -9.0560  -26.5050 C   0  0  0  0  0  3  0  0  0  0  0  0
    3.5280   -8.1110  -27.5260 C   0  0  0  0  0  3  0  0  0  0  0  0
    3.7400   -8.5130  -28.8500 C   0  0  0  0  0  0  0  0  0  0  0  0
    4.1120   -9.7910  -29.1630 N   0  0  0  0  0  0  0  0  0  0  0  0
    4.1900  -10.6940  -28.1570 C   0  0  0  0  0  3  0  0  0  0  0  0
    3.5280   -7.5090  -29.9780 C   0  0  0  0  0  0  0  0  0  0  0  0
    4.6750   -6.8760  -30.3530 F   0  0  0  0  0  0  0  0  0  0  0  0
    3.0050   -8.0590  -31.1110 F   0  0  0  0  0  0  0  0  0  0  0  0
    2.6570   -6.5110  -29.6330 F   0  0  0  0  0  0  0  0  0  0  0  0
   -1.3260  -10.1210  -22.2640 C   0  0  0  0  0  1  0  0  0  0  0  0
   -1.1820   -9.2620  -23.5260 C   0  0  1  0  0  3  0  0  0  0  0  0
   -0.4300   -8.0320  -23.1970 N   0  0  0  0  0  0  0  0  0  0  0  0
    0.5780   -8.1650  -23.2270 H   0  0  0  0  0  0  0  0  0  0  0  0
   -0.6900   -6.7920  -23.7610 C   0  0  0  0  0  0  0  0  0  0  0  0
   -1.0620   -5.8840  -22.8460 N   0  0  0  0  0  0  0  0  0  0  0  0
   -1.1070   -4.6190  -23.2560 C   0  0  0  0  0  3  0  0  0  0  0  0
   -0.7950   -4.1750  -24.4800 N   0  0  0  0  0  0  0  0  0  0  0  0
   -0.4800   -5.0900  -25.4240 C   0  0  0  0  0  0  0  0  0  0  0  0
   -0.1210   -4.7260  -26.7390 C   0  0  0  0  0  0  0  0  0  0  0  0
    0.1420   -5.6980  -27.7240 C   0  0  0  0  0  3  0  0  0  0  0  0
    0.0370   -7.0480  -27.4290 C   0  0  0  0  0  3  0  0  0  0  0  0
   -0.2810   -7.4260  -26.1310 C   0  0  0  0  0  3  0  0  0  0  0  0
   -0.4870   -6.4630  -25.1130 C   0  0  0  0  0  0  0  0  0  0  0  0
    0.0340   -3.3050  -27.1840 C   0  0  0  0  0  0  0  0  0  0  0  0
   -0.8230   -2.3690  -26.6840 N   0  0  0  0  0  0  0  0  0  0  0  0
    0.9100   -2.9730  -27.9720 O   0  0  0  0  0  0  0  0  0  0  0  0
   -0.7190   -1.4070  -26.9720 H   0  0  0  0  0  0  0  0  0  0  0  0
   -1.5500   -2.6270  -26.0240 H   0  0  0  0  0  0  0  0  0  0  0  0
  1  6  1  0  0  0  0
  1 22  1  0  0  0  0
  2  1  2  0  0  0  0
  3  4  2  0  0  0  0
  3  2  1  0  0  0  0
  4  5  1  0  0  0  0
  5  7  1  0  0  0  0
  5  6  2  0  0  0  0
  7 10  1  0  0  0  0
  8  9  2  0  0  0  0
  8  7  1  0  0  0  0
 11 12  1  0  0  0  0
 11  8  1  0  0  0  0
 13 12  2  0  0  0  0
 14 13  1  0  0  0  0
 15 14  2  0  0  0  0
 15 16  1  0  0  0  0
 16 11  2  0  0  0  0
 17 20  1  0  0  0  0
 17 14  1  0  0  0  0
 18 17  1  0  0  0  0
 19 17  1  0  0  0  0
 22 23  1  0  0  0  0
 22 21  1  1  0  0  0
 24 23  1  0  0  0  0
 25 23  1  0  0  0  0
 25 26  1  0  0  0  0
 27 26  2  0  0  0  0
 28 27  1  0  0  0  0
 29 34  1  0  0  0  0
 29 28  2  0  0  0  0
 30 29  1  0  0  0  0
 31 32  1  0  0  0  0
 31 30  2  0  0  0  0
 32 33  2  0  0  0  0
 33 34  1  0  0  0  0
 34 25  2  0  0  0  0
 35 30  1  0  0  0  0
 35 36  1  0  0  0  0
 36 39  1  0  0  0  0
 37 35  2  0  0  0  0
 38 36  1  0  0  0  0
M  END
>  <minimizedAffinity>
-9.16043949

$$$$

 OpenBabel10152418183D

 39 42  0  0  1  0  0  0  0  0999 V2000
    0.4180   -6.1650  -27.1500 C   0  0  0  0  0  0  0  0  0  0  0  0
    0.1590   -5.6660  -25.8680 C   0  0  0  0  0  3  0  0  0  0  0  0
   -0.2340   -6.5310  -24.8550 C   0  0  0  0  0  3  0  0  0  0  0  0
   -0.4040   -7.8920  -25.1200 C   0  0  0  0  0  3  0  0  0  0  0  0
   -0.2810   -8.3980  -26.4130 C   0  0  0  0  0  0  0  0  0  0  0  0
    0.1150   -7.5130  -27.4250 C   0  0  0  0  0  3  0  0  0  0  0  0
   -0.4350   -9.7500  -26.7920 N   0  0  0  0  0  0  0  0  0  0  0  0
   -0.5600  -10.9270  -26.0910 C   0  0  0  0  0  0  0  0  0  0  0  0
   -0.5220  -12.0040  -26.6810 O   0  0  0  0  0  0  0  0  0  0  0  0
   -0.4000   -9.9380  -27.7880 H   0  0  0  0  0  0  0  0  0  0  0  0
   -0.7500  -10.9370  -24.6440 C   0  0  0  0  0  0  0  0  0  0  0  0
   -0.1250  -11.8840  -23.8350 C   0  0  0  0  0  3  0  0  0  0  0  0
   -0.4830  -11.9540  -22.4890 C   0  0  0  0  0  3  0  0  0  0  0  0
   -1.4430  -11.0660  -21.9890 C   0  0  0  0  0  0  0  0  0  0  0  0
   -1.9810  -10.0770  -22.7660 N   0  0  0  0  0  0  0  0  0  0  0  0
   -1.6220  -10.0280  -24.0710 C   0  0  0  0  0  3  0  0  0  0  0  0
   -1.9220  -11.2160  -20.5500 C   0  0  0  0  0  0  0  0  0  0  0  0
   -0.9810  -11.7600  -19.7280 F   0  0  0  0  0  0  0  0  0  0  0  0
   -2.3030  -10.0410  -19.9730 F   0  0  0  0  0  0  0  0  0  0  0  0
   -3.0130  -12.0350  -20.4450 F   0  0  0  0  0  0  0  0  0  0  0  0
    0.8720   -3.8420  -27.9930 C   0  0  0  0  0  1  0  0  0  0  0  0
    1.1640   -5.3340  -28.1880 C   0  0  1  0  0  3  0  0  0  0  0  0
    2.6280   -5.5470  -28.2100 N   0  0  0  0  0  0  0  0  0  0  0  0
    3.1310   -4.8920  -27.6160 H   0  0  0  0  0  0  0  0  0  0  0  0
    3.2320   -6.7840  -28.0480 C   0  0  0  0  0  0  0  0  0  0  0  0
    3.3270   -7.1390  -26.7570 N   0  0  0  0  0  0  0  0  0  0  0  0
    3.6790   -8.4000  -26.5190 C   0  0  0  0  0  3  0  0  0  0  0  0
    3.9210   -9.3410  -27.4400 N   0  0  0  0  0  0  0  0  0  0  0  0
    3.8890   -8.9740  -28.7410 C   0  0  0  0  0  0  0  0  0  0  0  0
    4.1140   -9.8900  -29.7900 C   0  0  0  0  0  0  0  0  0  0  0  0
    4.1380   -9.4750  -31.1360 C   0  0  0  0  0  3  0  0  0  0  0  0
    3.9580   -8.1410  -31.4650 C   0  0  0  0  0  3  0  0  0  0  0  0
    3.7010   -7.2300  -30.4500 C   0  0  0  0  0  3  0  0  0  0  0  0
    3.6100   -7.6400  -29.0970 C   0  0  0  0  0  0  0  0  0  0  0  0
    4.3160  -11.3570  -29.5680 C   0  0  0  0  0  0  0  0  0  0  0  0
    3.7400  -11.9360  -28.4760 N   0  0  0  0  0  0  0  0  0  0  0  0
    4.9730  -12.0370  -30.3460 O   0  0  0  0  0  0  0  0  0  0  0  0
    3.8640  -12.9270  -28.3250 H   0  0  0  0  0  0  0  0  0  0  0  0
    3.1870  -11.3870  -27.8260 H   0  0  0  0  0  0  0  0  0  0  0  0
  1  2  1  0  0  0  0
  2  3  2  0  0  0  0
  4  3  1  0  0  0  0
  5  4  2  0  0  0  0
  6  1  2  0  0  0  0
  6  5  1  0  0  0  0
  7  5  1  0  0  0  0
  7  8  1  0  0  0  0
  8 11  1  0  0  0  0
  9  8  2  0  0  0  0
 10  7  1  0  0  0  0
 11 16  2  0  0  0  0
 11 12  1  0  0  0  0
 12 13  2  0  0  0  0
 13 14  1  0  0  0  0
 14 17  1  0  0  0  0
 15 14  2  0  0  0  0
 16 15  1  0  0  0  0
 17 20  1  0  0  0  0
 17 19  1  0  0  0  0
 17 18  1  0  0  0  0
 22 21  1  1  0  0  0
 22  1  1  0  0  0  0
 23 22  1  0  0  0  0
 23 25  1  0  0  0  0
 23 24  1  0  0  0  0
 25 26  1  0  0  0  0
 26 27  2  0  0  0  0
 28 27  1  0  0  0  0
 29 28  2  0  0  0  0
 30 35  1  0  0  0  0
 30 29  1  0  0  0  0
 31 30  2  0  0  0  0
 32 31  1  0  0  0  0
 32 33  2  0  0  0  0
 33 34  1  0  0  0  0
 34 29  1  0  0  0  0
 34 25  2  0  0  0  0
 35 36  1  0  0  0  0
 36 38  1  0  0  0  0
 36 39  1  0  0  0  0
 37 35  2  0  0  0  0
M  END
>  <minimizedAffinity>
-7.11711693

$$$$

 OpenBabel10152418183D

 39 42  0  0  1  0  0  0  0  0999 V2000
    0.1930   -5.4350  -27.4180 C   0  0  0  0  0  0  0  0  0  0  0  0
   -0.1450   -4.7510  -26.2430 C   0  0  0  0  0  3  0  0  0  0  0  0
   -0.7010   -5.4420  -25.1760 C   0  0  0  0  0  3  0  0  0  0  0  0
   -0.9560   -6.8110  -25.2810 C   0  0  0  0  0  3  0  0  0  0  0  0
   -0.7530   -7.4950  -26.4790 C   0  0  0  0  0  0  0  0  0  0  0  0
   -0.1920   -6.7830  -27.5490 C   0  0  0  0  0  3  0  0  0  0  0  0
   -0.9800   -8.8710  -26.6970 N   0  0  0  0  0  0  0  0  0  0  0  0
   -1.2520   -9.9340  -25.8670 C   0  0  0  0  0  0  0  0  0  0  0  0
   -1.2510  -11.0800  -26.3100 O   0  0  0  0  0  0  0  0  0  0  0  0
   -0.8800   -9.1910  -27.6540 H   0  0  0  0  0  0  0  0  0  0  0  0
   -1.5590   -9.7400  -24.4530 C   0  0  0  0  0  0  0  0  0  0  0  0
   -2.5720   -8.8780  -24.0400 C   0  0  0  0  0  3  0  0  0  0  0  0
   -2.6980   -8.5990  -22.6790 C   0  0  0  0  0  3  0  0  0  0  0  0
   -1.8190   -9.2030  -21.7720 C   0  0  0  0  0  0  0  0  0  0  0  0
   -0.8900  -10.1220  -22.1760 N   0  0  0  0  0  0  0  0  0  0  0  0
   -0.7810  -10.3760  -23.5010 C   0  0  0  0  0  3  0  0  0  0  0  0
   -1.8790   -8.8110  -20.3000 C   0  0  0  0  0  0  0  0  0  0  0  0
   -2.6510   -9.6510  -19.5550 F   0  0  0  0  0  0  0  0  0  0  0  0
   -0.6590   -8.7710  -19.6940 F   0  0  0  0  0  0  0  0  0  0  0  0
   -2.4110   -7.5650  -20.1130 F   0  0  0  0  0  0  0  0  0  0  0  0
    1.1670   -3.2850  -28.2790 C   0  0  0  0  0  1  0  0  0  0  0  0
    1.0990   -4.8050  -28.4700 C   0  0  1  0  0  3  0  0  0  0  0  0
    2.4710   -5.3550  -28.5080 N   0  0  0  0  0  0  0  0  0  0  0  0
    3.0000   -5.1570  -27.6620 H   0  0  0  0  0  0  0  0  0  0  0  0
    2.7730   -6.6570  -28.8760 C   0  0  0  0  0  0  0  0  0  0  0  0
    3.0150   -6.7720  -30.1900 N   0  0  0  0  0  0  0  0  0  0  0  0
    3.5350   -7.9290  -30.5930 C   0  0  0  0  0  3  0  0  0  0  0  0
    3.8550   -8.9660  -29.8110 N   0  0  0  0  0  0  0  0  0  0  0  0
    3.5560   -8.8820  -28.4940 C   0  0  0  0  0  0  0  0  0  0  0  0
    3.8660   -9.9120  -27.5820 C   0  0  0  0  0  0  0  0  0  0  0  0
    3.4890   -9.8300  -26.2270 C   0  0  0  0  0  3  0  0  0  0  0  0
    2.7830   -8.7350  -25.7570 C   0  0  0  0  0  3  0  0  0  0  0  0
    2.4990   -7.6950  -26.6320 C   0  0  0  0  0  3  0  0  0  0  0  0
    2.9250   -7.7320  -27.9820 C   0  0  0  0  0  0  0  0  0  0  0  0
    4.6300  -11.1420  -27.9620 C   0  0  0  0  0  0  0  0  0  0  0  0
    4.9560  -11.3280  -29.2720 N   0  0  0  0  0  0  0  0  0  0  0  0
    4.9680  -11.9690  -27.1240 O   0  0  0  0  0  0  0  0  0  0  0  0
    5.4790  -12.1510  -29.5350 H   0  0  0  0  0  0  0  0  0  0  0  0
    4.6880  -10.6480  -29.9780 H   0  0  0  0  0  0  0  0  0  0  0  0
  1  2  1  0  0  0  0
  2  3  2  0  0  0  0
  4  3  1  0  0  0  0
  5  4  2  0  0  0  0
  6  1  2  0  0  0  0
  6  5  1  0  0  0  0
  7  5  1  0  0  0  0
  7  8  1  0  0  0  0
  8 11  1  0  0  0  0
  9  8  2  0  0  0  0
 10  7  1  0  0  0  0
 11 12  2  0  0  0  0
 11 16  1  0  0  0  0
 12 13  1  0  0  0  0
 13 14  2  0  0  0  0
 14 17  1  0  0  0  0
 15 14  1  0  0  0  0
 16 15  2  0  0  0  0
 17 20  1  0  0  0  0
 17 19  1  0  0  0  0
 17 18  1  0  0  0  0
 22 21  1  1  0  0  0
 22  1  1  0  0  0  0
 23 22  1  0  0  0  0
 23 24  1  0  0  0  0
 25 23  1  0  0  0  0
 25 34  1  0  0  0  0
 26 25  2  0  0  0  0
 27 26  1  0  0  0  0
 27 28  2  0  0  0  0
 28 29  1  0  0  0  0
 29 34  2  0  0  0  0
 29 30  1  0  0  0  0
 30 31  2  0  0  0  0
 31 32  1  0  0  0  0
 33 32  2  0  0  0  0
 34 33  1  0  0  0  0
 35 30  1  0  0  0  0
 35 37  2  0  0  0  0
 36 35  1  0  0  0  0
 38 36  1  0  0  0  0
 39 36  1  0  0  0  0
M  END
>  <minimizedAffinity>
-6.8587203

$$$$

 OpenBabel10152418183D

 39 42  0  0  1  0  0  0  0  0999 V2000
    0.1450   -6.6210  -26.8870 C   0  0  0  0  0  0  0  0  0  0  0  0
   -0.2980   -5.3290  -26.5770 C   0  0  0  0  0  3  0  0  0  0  0  0
    0.2340   -4.2360  -27.2470 C   0  0  0  0  0  3  0  0  0  0  0  0
    1.2340   -4.4170  -28.2050 C   0  0  0  0  0  3  0  0  0  0  0  0
    1.7890   -5.6740  -28.4420 C   0  0  0  0  0  0  0  0  0  0  0  0
    1.2420   -6.7680  -27.7580 C   0  0  0  0  0  3  0  0  0  0  0  0
    2.8020   -5.9680  -29.3800 N   0  0  0  0  0  0  0  0  0  0  0  0
    3.7690   -6.9440  -29.4630 C   0  0  0  0  0  0  0  0  0  0  0  0
    4.6430   -6.8760  -30.3240 O   0  0  0  0  0  0  0  0  0  0  0  0
    2.9020   -5.3110  -30.1470 H   0  0  0  0  0  0  0  0  0  0  0  0
    3.7840   -8.0830  -28.5500 C   0  0  0  0  0  0  0  0  0  0  0  0
    3.6690   -9.3900  -29.0160 C   0  0  0  0  0  3  0  0  0  0  0  0
    3.5110  -10.4190  -28.0880 C   0  0  0  0  0  3  0  0  0  0  0  0
    3.4900  -10.1120  -26.7230 C   0  0  0  0  0  0  0  0  0  0  0  0
    3.7010   -8.8390  -26.2700 N   0  0  0  0  0  0  0  0  0  0  0  0
    3.8490   -7.8530  -27.1860 C   0  0  0  0  0  3  0  0  0  0  0  0
    3.2010  -11.2170  -25.7130 C   0  0  0  0  0  0  0  0  0  0  0  0
    2.1830  -12.0370  -26.0950 F   0  0  0  0  0  0  0  0  0  0  0  0
    4.2720  -12.0240  -25.4620 F   0  0  0  0  0  0  0  0  0  0  0  0
    2.8330  -10.7240  -24.4900 F   0  0  0  0  0  0  0  0  0  0  0  0
    0.3350   -8.9640  -25.9990 C   0  0  0  0  0  1  0  0  0  0  0  0
   -0.6290   -7.8540  -26.4360 C   0  0  1  0  0  3  0  0  0  0  0  0
   -1.6090   -7.6040  -25.3560 N   0  0  0  0  0  0  0  0  0  0  0  0
   -2.5610   -7.8440  -25.6230 H   0  0  0  0  0  0  0  0  0  0  0  0
   -1.4400   -8.0240  -24.0460 C   0  0  0  0  0  0  0  0  0  0  0  0
   -1.5190   -7.0100  -23.1720 N   0  0  0  0  0  0  0  0  0  0  0  0
   -1.6000   -7.3460  -21.8870 C   0  0  0  0  0  3  0  0  0  0  0  0
   -1.6330   -8.5900  -21.3960 N   0  0  0  0  0  0  0  0  0  0  0  0
   -1.4900   -9.6170  -22.2660 C   0  0  0  0  0  0  0  0  0  0  0  0
   -1.5260  -10.9660  -21.8540 C   0  0  0  0  0  0  0  0  0  0  0  0
   -1.3130  -12.0170  -22.7670 C   0  0  0  0  0  3  0  0  0  0  0  0
   -1.0420  -11.7500  -24.0990 C   0  0  0  0  0  3  0  0  0  0  0  0
   -1.0370  -10.4310  -24.5300 C   0  0  0  0  0  3  0  0  0  0  0  0
   -1.3120   -9.3640  -23.6390 C   0  0  0  0  0  0  0  0  0  0  0  0
   -1.8150  -11.3870  -20.4470 C   0  0  0  0  0  0  0  0  0  0  0  0
   -0.8150  -11.9610  -19.7200 N   0  0  0  0  0  0  0  0  0  0  0  0
   -2.9190  -11.2190  -19.9430 O   0  0  0  0  0  0  0  0  0  0  0  0
   -1.0000  -12.2400  -18.7680 H   0  0  0  0  0  0  0  0  0  0  0  0
    0.1070  -12.1010  -20.1220 H   0  0  0  0  0  0  0  0  0  0  0  0
  1  2  1  0  0  0  0
  1 22  1  0  0  0  0
  3  2  2  0  0  0  0
  4  3  1  0  0  0  0
  5  4  2  0  0  0  0
  5  6  1  0  0  0  0
  6  1  2  0  0  0  0
  7  5  1  0  0  0  0
  8  7  1  0  0  0  0
  8 11  1  0  0  0  0
  9  8  2  0  0  0  0
 10  7  1  0  0  0  0
 11 16  1  0  0  0  0
 12 11  2  0  0  0  0
 12 13  1  0  0  0  0
 13 14  2  0  0  0  0
 14 15  1  0  0  0  0
 14 17  1  0  0  0  0
 16 15  2  0  0  0  0
 17 19  1  0  0  0  0
 17 20  1  0  0  0  0
 18 17  1  0  0  0  0
 22 21  1  1  0  0  0
 22 23  1  0  0  0  0
 23 25  1  0  0  0  0
 24 23  1  0  0  0  0
 25 34  2  0  0  0  0
 25 26  1  0  0  0  0
 26 27  2  0  0  0  0
 27 28  1  0  0  0  0
 29 30  1  0  0  0  0
 29 28  2  0  0  0  0
 30 35  1  0  0  0  0
 31 30  2  0  0  0  0
 32 31  1  0  0  0  0
 33 32  2  0  0  0  0
 33 34  1  0  0  0  0
 34 29  1  0  0  0  0
 35 37  2  0  0  0  0
 35 36  1  0  0  0  0
 36 38  1  0  0  0  0
 39 36  1  0  0  0  0
M  END
>  <minimizedAffinity>
-6.84411097

$$$$
