
 OpenBabel10152418113D

 29 32  0  0  0  0  0  0  0  0999 V2000
   -0.9240   -9.0520  -23.0770 C   0  0  0  0  0  0  0  0  0  0  0  0
   -0.3910   -8.2750  -24.0440 N   0  0  0  0  0  0  0  0  0  0  0  0
   -0.6380   -6.9600  -23.9830 C   0  0  0  0  0  0  0  0  0  0  0  0
   -0.0310   -6.0700  -24.8630 N   0  0  0  0  0  0  0  0  0  0  0  0
   -1.3980   -6.3990  -23.0270 N   0  0  0  0  0  0  0  0  0  0  0  0
   -1.9080   -7.2160  -22.0780 C   0  0  0  0  0  3  0  0  0  0  0  0
   -1.6860   -8.5700  -22.0360 C   0  0  0  0  0  0  0  0  0  0  0  0
   -2.3100   -9.5290  -20.7620 Cl  0  0  0  0  0  0  0  0  0  0  0  0
   -0.2110   -5.1190  -24.5780 H   0  0  0  0  0  0  0  0  0  0  0  0
    0.8010   -6.2700  -25.9670 C   0  0  0  0  0  0  0  0  0  0  0  0
    1.7640   -7.2870  -25.9150 C   0  0  0  0  0  3  0  0  0  0  0  0
    2.5590   -7.5950  -27.0280 C   0  0  0  0  0  3  0  0  0  0  0  0
    2.4150   -6.8800  -28.2220 C   0  0  0  0  0  0  0  0  0  0  0  0
    1.4740   -5.8460  -28.2710 C   0  0  0  0  0  3  0  0  0  0  0  0
    0.6650   -5.5620  -27.1640 C   0  0  0  0  0  3  0  0  0  0  0  0
    3.2040   -7.1900  -29.4050 C   0  0  0  0  0  0  0  0  0  0  0  0
    2.8530   -7.9140  -30.4500 N   0  0  0  0  0  0  0  0  0  0  0  0
    3.9420   -7.9460  -31.2890 N   0  0  0  0  0  0  0  0  0  0  0  0
    4.9600   -7.2790  -30.7680 N   0  0  0  0  0  0  0  0  0  0  0  0
    4.5090   -6.8180  -29.5950 N   0  0  0  0  0  0  0  0  0  0  0  0
    5.1280   -6.3040  -28.9870 H   0  0  0  0  0  0  0  0  0  0  0  0
   -0.5280  -10.3700  -23.1130 O   0  0  0  0  0  0  0  0  0  0  0  0
    2.3150  -12.0380  -27.5100 F   0  0  0  0  0  0  0  0  0  0  0  0
    1.6500  -11.6380  -26.4200 C   0  0  0  0  0  0  0  0  0  0  0  0
    0.2610  -11.6080  -26.4380 C   0  0  0  0  0  3  0  0  0  0  0  0
   -0.4280  -11.1830  -25.3030 C   0  0  0  0  0  3  0  0  0  0  0  0
    0.2710  -10.7870  -24.1550 C   0  0  0  0  0  0  0  0  0  0  0  0
    1.6690  -10.8410  -24.1420 C   0  0  0  0  0  3  0  0  0  0  0  0
    2.3580  -11.2610  -25.2840 C   0  0  0  0  0  3  0  0  0  0  0  0
  1  7  1  0  0  0  0
  2  3  1  0  0  0  0
  2  1  2  0  0  0  0
  3  5  2  0  0  0  0
  4  9  1  0  0  0  0
  4  3  1  0  0  0  0
  5  6  1  0  0  0  0
  6  7  2  0  0  0  0
  7  8  1  0  0  0  0
 10 11  1  0  0  0  0
 10  4  1  0  0  0  0
 12 11  2  0  0  0  0
 13 12  1  0  0  0  0
 14 13  2  0  0  0  0
 14 15  1  0  0  0  0
 15 10  2  0  0  0  0
 16 13  1  0  0  0  0
 17 16  2  0  0  0  0
 18 19  2  0  0  0  0
 18 17  1  0  0  0  0
 19 20  1  0  0  0  0
 20 16  1  0  0  0  0
 20 21  1  0  0  0  0
 22  1  1  0  0  0  0
 23 24  1  0  0  0  0
 24 29  1  0  0  0  0
 25 24  2  0  0  0  0
 25 26  1  0  0  0  0
 26 27  2  0  0  0  0
 27 28  1  0  0  0  0
 27 22  1  0  0  0  0
 29 28  2  0  0  0  0
M  END
>  <minimizedAffinity>
-9.23355293

$$$$
