
 OpenBabel10152418113D

 29 32  0  0  0  0  0  0  0  0999 V2000
   -1.6640  -10.6380  -22.1350 C   0  0  0  0  0  0  0  0  0  0  0  0
   -1.2320   -9.5280  -22.7700 N   0  0  0  0  0  0  0  0  0  0  0  0
   -1.3850   -8.3570  -22.1380 C   0  0  0  0  0  0  0  0  0  0  0  0
   -0.8600   -7.1800  -22.6620 N   0  0  0  0  0  0  0  0  0  0  0  0
   -1.9600   -8.2460  -20.9280 N   0  0  0  0  0  0  0  0  0  0  0  0
   -2.3740   -9.3850  -20.3280 C   0  0  0  0  0  3  0  0  0  0  0  0
   -2.2340  -10.6340  -20.8800 C   0  0  0  0  0  0  0  0  0  0  0  0
   -2.7210  -12.0370  -20.0290 Cl  0  0  0  0  0  0  0  0  0  0  0  0
   -0.9370   -6.4340  -21.9870 H   0  0  0  0  0  0  0  0  0  0  0  0
   -0.2140   -6.9020  -23.8680 C   0  0  0  0  0  0  0  0  0  0  0  0
    0.7840   -7.7770  -24.3210 C   0  0  0  0  0  3  0  0  0  0  0  0
    1.3960   -7.5990  -25.5690 C   0  0  0  0  0  3  0  0  0  0  0  0
    1.0300   -6.5300  -26.3930 C   0  0  0  0  0  0  0  0  0  0  0  0
    0.0550   -5.6380  -25.9340 C   0  0  0  0  0  3  0  0  0  0  0  0
   -0.5720   -5.8360  -24.6980 C   0  0  0  0  0  3  0  0  0  0  0  0
    1.6260   -6.3300  -27.7060 C   0  0  0  0  0  0  0  0  0  0  0  0
    2.5240   -7.0810  -28.3130 N   0  0  0  0  0  0  0  0  0  0  0  0
    2.7980   -6.4700  -29.5150 N   0  0  0  0  0  0  0  0  0  0  0  0
    2.1060   -5.3500  -29.6440 N   0  0  0  0  0  0  0  0  0  0  0  0
    1.3860   -5.2550  -28.5200 N   0  0  0  0  0  0  0  0  0  0  0  0
    0.8000   -4.4480  -28.3660 H   0  0  0  0  0  0  0  0  0  0  0  0
   -1.3610  -11.8220  -22.7690 O   0  0  0  0  0  0  0  0  0  0  0  0
    2.2270  -11.6230  -26.9280 F   0  0  0  0  0  0  0  0  0  0  0  0
    1.3280  -11.6670  -25.9370 C   0  0  0  0  0  0  0  0  0  0  0  0
    1.7320  -11.4090  -24.6340 C   0  0  0  0  0  3  0  0  0  0  0  0
    0.7940  -11.4650  -23.6030 C   0  0  0  0  0  3  0  0  0  0  0  0
   -0.5430  -11.7800  -23.8770 C   0  0  0  0  0  0  0  0  0  0  0  0
   -0.9430  -12.0180  -25.1970 C   0  0  0  0  0  3  0  0  0  0  0  0
    0.0010  -11.9680  -26.2280 C   0  0  0  0  0  3  0  0  0  0  0  0
  1  7  1  0  0  0  0
  2  3  1  0  0  0  0
  2  1  2  0  0  0  0
  3  5  2  0  0  0  0
  4  3  1  0  0  0  0
  4  9  1  0  0  0  0
  5  6  1  0  0  0  0
  7  6  2  0  0  0  0
  7  8  1  0  0  0  0
 10  4  1  0  0  0  0
 11 10  1  0  0  0  0
 12 11  2  0  0  0  0
 13 14  2  0  0  0  0
 13 12  1  0  0  0  0
 14 15  1  0  0  0  0
 15 10  2  0  0  0  0
 16 13  1  0  0  0  0
 17 16  2  0  0  0  0
 18 17  1  0  0  0  0
 19 18  2  0  0  0  0
 19 20  1  0  0  0  0
 20 21  1  0  0  0  0
 20 16  1  0  0  0  0
 22  1  1  0  0  0  0
 23 24  1  0  0  0  0
 24 25  1  0  0  0  0
 25 26  2  0  0  0  0
 27 26  1  0  0  0  0
 27 22  1  0  0  0  0
 28 27  2  0  0  0  0
 29 24  2  0  0  0  0
 29 28  1  0  0  0  0
M  END
>  <minimizedAffinity>
-6.94040966

$$$$
