
 OpenBabel10152418113D

 29 32  0  0  0  0  0  0  0  0999 V2000
    2.0840   -7.4180  -27.5120 C   0  0  0  0  0  0  0  0  0  0  0  0
    1.2620   -7.8530  -26.5330 N   0  0  0  0  0  0  0  0  0  0  0  0
    1.7850   -8.6660  -25.6060 C   0  0  0  0  0  0  0  0  0  0  0  0
    1.0480   -9.0630  -24.4950 N   0  0  0  0  0  0  0  0  0  0  0  0
    3.0660   -9.0720  -25.6240 N   0  0  0  0  0  0  0  0  0  0  0  0
    3.8530   -8.6090  -26.6220 C   0  0  0  0  0  3  0  0  0  0  0  0
    3.4180   -7.7490  -27.6000 C   0  0  0  0  0  0  0  0  0  0  0  0
    4.4920   -7.1500  -28.7910 Cl  0  0  0  0  0  0  0  0  0  0  0  0
    1.6420   -9.5420  -23.8350 H   0  0  0  0  0  0  0  0  0  0  0  0
   -0.2850   -8.8500  -24.1350 C   0  0  0  0  0  0  0  0  0  0  0  0
   -0.7200   -7.5410  -23.8850 C   0  0  0  0  0  3  0  0  0  0  0  0
   -2.0660   -7.2600  -23.6150 C   0  0  0  0  0  3  0  0  0  0  0  0
   -3.0120   -8.2900  -23.5790 C   0  0  0  0  0  0  0  0  0  0  0  0
   -2.5790   -9.6010  -23.8000 C   0  0  0  0  0  3  0  0  0  0  0  0
   -1.2380   -9.8720  -24.0960 C   0  0  0  0  0  3  0  0  0  0  0  0
   -4.4230   -8.0320  -23.3280 C   0  0  0  0  0  0  0  0  0  0  0  0
   -5.4650   -8.6790  -23.8090 N   0  0  0  0  0  0  0  0  0  0  0  0
   -6.5820   -8.0480  -23.3130 N   0  0  0  0  0  0  0  0  0  0  0  0
   -6.2450   -7.0140  -22.5590 N   0  0  0  0  0  0  0  0  0  0  0  0
   -4.9070   -6.9950  -22.5750 N   0  0  0  0  0  0  0  0  0  0  0  0
   -4.4100   -6.2590  -22.0960 H   0  0  0  0  0  0  0  0  0  0  0  0
    1.5300   -6.4830  -28.3580 O   0  0  0  0  0  0  0  0  0  0  0  0
   -1.0180   -2.0130  -26.4260 F   0  0  0  0  0  0  0  0  0  0  0  0
   -0.4080   -3.1190  -26.8700 C   0  0  0  0  0  0  0  0  0  0  0  0
    0.6310   -3.0080  -27.7850 C   0  0  0  0  0  3  0  0  0  0  0  0
    1.2570   -4.1630  -28.2510 C   0  0  0  0  0  3  0  0  0  0  0  0
    0.8430   -5.4250  -27.8040 C   0  0  0  0  0  0  0  0  0  0  0  0
   -0.1920   -5.5230  -26.8670 C   0  0  0  0  0  3  0  0  0  0  0  0
   -0.8230   -4.3630  -26.4060 C   0  0  0  0  0  3  0  0  0  0  0  0
  1  2  2  0  0  0  0
  2  3  1  0  0  0  0
  3  4  1  0  0  0  0
  4 10  1  0  0  0  0
  4  9  1  0  0  0  0
  5  3  2  0  0  0  0
  6  5  1  0  0  0  0
  7  1  1  0  0  0  0
  7  6  2  0  0  0  0
  8  7  1  0  0  0  0
 10 15  2  0  0  0  0
 10 11  1  0  0  0  0
 11 12  2  0  0  0  0
 12 13  1  0  0  0  0
 13 16  1  0  0  0  0
 14 13  2  0  0  0  0
 15 14  1  0  0  0  0
 16 20  1  0  0  0  0
 17 16  2  0  0  0  0
 17 18  1  0  0  0  0
 18 19  2  0  0  0  0
 20 19  1  0  0  0  0
 20 21  1  0  0  0  0
 22 27  1  0  0  0  0
 22  1  1  0  0  0  0
 24 23  1  0  0  0  0
 24 29  1  0  0  0  0
 25 24  2  0  0  0  0
 26 27  2  0  0  0  0
 26 25  1  0  0  0  0
 27 28  1  0  0  0  0
 28 29  2  0  0  0  0
M  END
>  <minimizedAffinity>
-7.35709095

$$$$
