
 OpenBabel10152418113D

 29 32  0  0  0  0  0  0  0  0999 V2000
    2.9560   -7.6230  -28.9310 C   0  0  0  0  0  0  0  0  0  0  0  0
    2.5550   -8.2850  -27.8250 N   0  0  0  0  0  0  0  0  0  0  0  0
    3.4070   -9.1720  -27.2940 C   0  0  0  0  0  0  0  0  0  0  0  0
    3.1300   -9.8080  -26.0890 N   0  0  0  0  0  0  0  0  0  0  0  0
    4.6140   -9.4380  -27.8230 N   0  0  0  0  0  0  0  0  0  0  0  0
    4.9740   -8.7490  -28.9300 C   0  0  0  0  0  3  0  0  0  0  0  0
    4.1850   -7.7990  -29.5290 C   0  0  0  0  0  0  0  0  0  0  0  0
    4.7390   -6.9180  -30.8880 Cl  0  0  0  0  0  0  0  0  0  0  0  0
    3.9390  -10.3190  -25.7690 H   0  0  0  0  0  0  0  0  0  0  0  0
    2.0040   -9.7910  -25.2620 C   0  0  0  0  0  0  0  0  0  0  0  0
    1.5710  -10.9900  -24.6790 C   0  0  0  0  0  3  0  0  0  0  0  0
    0.5080  -11.0140  -23.7660 C   0  0  0  0  0  3  0  0  0  0  0  0
   -0.1570   -9.8320  -23.4210 C   0  0  0  0  0  0  0  0  0  0  0  0
    0.2530   -8.6370  -24.0200 C   0  0  0  0  0  3  0  0  0  0  0  0
    1.3330   -8.6160  -24.9110 C   0  0  0  0  0  3  0  0  0  0  0  0
   -1.2470   -9.8160  -22.4560 C   0  0  0  0  0  0  0  0  0  0  0  0
   -2.0390   -8.8090  -22.1430 N   0  0  0  0  0  0  0  0  0  0  0  0
   -2.8880   -9.2690  -21.1630 N   0  0  0  0  0  0  0  0  0  0  0  0
   -2.6160  -10.5270  -20.8540 N   0  0  0  0  0  0  0  0  0  0  0  0
   -1.5920  -10.8660  -21.6470 N   0  0  0  0  0  0  0  0  0  0  0  0
   -1.1750  -11.7800  -21.5640 H   0  0  0  0  0  0  0  0  0  0  0  0
    2.0990   -6.6320  -29.3530 O   0  0  0  0  0  0  0  0  0  0  0  0
   -1.0300   -3.8560  -25.7890 F   0  0  0  0  0  0  0  0  0  0  0  0
   -0.2730   -4.5600  -26.6390 C   0  0  0  0  0  0  0  0  0  0  0  0
    0.6390   -3.9000  -27.4520 C   0  0  0  0  0  3  0  0  0  0  0  0
    1.4200   -4.6360  -28.3420 C   0  0  0  0  0  3  0  0  0  0  0  0
    1.2850   -6.0290  -28.4200 C   0  0  0  0  0  0  0  0  0  0  0  0
    0.3770   -6.6850  -27.5820 C   0  0  0  0  0  3  0  0  0  0  0  0
   -0.4090   -5.9430  -26.6940 C   0  0  0  0  0  3  0  0  0  0  0  0
  1  2  2  0  0  0  0
  2  3  1  0  0  0  0
  3  4  1  0  0  0  0
  4  9  1  0  0  0  0
  4 10  1  0  0  0  0
  5  3  2  0  0  0  0
  6  5  1  0  0  0  0
  7  1  1  0  0  0  0
  7  6  2  0  0  0  0
  8  7  1  0  0  0  0
 10 15  2  0  0  0  0
 10 11  1  0  0  0  0
 11 12  2  0  0  0  0
 12 13  1  0  0  0  0
 13 16  1  0  0  0  0
 14 13  2  0  0  0  0
 15 14  1  0  0  0  0
 16 17  2  0  0  0  0
 16 20  1  0  0  0  0
 17 18  1  0  0  0  0
 18 19  2  0  0  0  0
 20 21  1  0  0  0  0
 20 19  1  0  0  0  0
 22  1  1  0  0  0  0
 22 27  1  0  0  0  0
 24 23  1  0  0  0  0
 25 24  2  0  0  0  0
 26 25  1  0  0  0  0
 27 26  2  0  0  0  0
 27 28  1  0  0  0  0
 28 29  2  0  0  0  0
 29 24  1  0  0  0  0
M  END
>  <minimizedAffinity>
-8.19830036

$$$$
