
 OpenBabel10152418113D

 29 32  0  0  0  0  0  0  0  0999 V2000
   -1.3460  -10.7600  -22.2880 C   0  0  0  0  0  0  0  0  0  0  0  0
   -0.9320   -9.7070  -23.0230 N   0  0  0  0  0  0  0  0  0  0  0  0
   -1.2990   -8.4860  -22.6100 C   0  0  0  0  0  0  0  0  0  0  0  0
   -0.8180   -7.3390  -23.2330 N   0  0  0  0  0  0  0  0  0  0  0  0
   -2.0640   -8.2770  -21.5260 N   0  0  0  0  0  0  0  0  0  0  0  0
   -2.4530   -9.3620  -20.8190 C   0  0  0  0  0  3  0  0  0  0  0  0
   -2.1030  -10.6500  -21.1420 C   0  0  0  0  0  0  0  0  0  0  0  0
   -2.5760  -11.9680  -20.1580 Cl  0  0  0  0  0  0  0  0  0  0  0  0
   -1.0730   -6.5200  -22.7010 H   0  0  0  0  0  0  0  0  0  0  0  0
   -0.0210   -7.1560  -24.3650 C   0  0  0  0  0  0  0  0  0  0  0  0
    0.8740   -8.1700  -24.7370 C   0  0  0  0  0  3  0  0  0  0  0  0
    1.6260   -8.0810  -25.9160 C   0  0  0  0  0  3  0  0  0  0  0  0
    1.5090   -6.9630  -26.7500 C   0  0  0  0  0  0  0  0  0  0  0  0
    0.6390   -5.9360  -26.3690 C   0  0  0  0  0  3  0  0  0  0  0  0
   -0.1290   -6.0440  -25.2040 C   0  0  0  0  0  3  0  0  0  0  0  0
    2.2550   -6.8500  -27.9940 C   0  0  0  0  0  0  0  0  0  0  0  0
    1.9680   -6.1120  -29.0490 N   0  0  0  0  0  0  0  0  0  0  0  0
    2.9480   -6.3640  -29.9810 N   0  0  0  0  0  0  0  0  0  0  0  0
    3.8130   -7.2570  -29.5290 N   0  0  0  0  0  0  0  0  0  0  0  0
    3.3800   -7.5690  -28.3010 N   0  0  0  0  0  0  0  0  0  0  0  0
    3.8630   -8.2730  -27.7630 H   0  0  0  0  0  0  0  0  0  0  0  0
   -0.8310  -11.9750  -22.6800 O   0  0  0  0  0  0  0  0  0  0  0  0
    2.2790  -12.0290  -27.2110 F   0  0  0  0  0  0  0  0  0  0  0  0
    1.5470  -12.0270  -26.0900 C   0  0  0  0  0  0  0  0  0  0  0  0
    0.1610  -12.0200  -26.1760 C   0  0  0  0  0  3  0  0  0  0  0  0
   -0.5960  -12.0100  -25.0060 C   0  0  0  0  0  3  0  0  0  0  0  0
    0.0320  -12.0060  -23.7530 C   0  0  0  0  0  0  0  0  0  0  0  0
    1.4290  -12.0340  -23.6790 C   0  0  0  0  0  3  0  0  0  0  0  0
    2.1870  -12.0370  -24.8540 C   0  0  0  0  0  3  0  0  0  0  0  0
  1  7  1  0  0  0  0
  2  3  1  0  0  0  0
  2  1  2  0  0  0  0
  3  5  2  0  0  0  0
  4  9  1  0  0  0  0
  4  3  1  0  0  0  0
  5  6  1  0  0  0  0
  7  6  2  0  0  0  0
  7  8  1  0  0  0  0
 10  4  1  0  0  0  0
 11 10  1  0  0  0  0
 12 11  2  0  0  0  0
 13 14  2  0  0  0  0
 13 12  1  0  0  0  0
 14 15  1  0  0  0  0
 15 10  2  0  0  0  0
 16 13  1  0  0  0  0
 17 16  2  0  0  0  0
 18 19  2  0  0  0  0
 18 17  1  0  0  0  0
 19 20  1  0  0  0  0
 20 16  1  0  0  0  0
 20 21  1  0  0  0  0
 22  1  1  0  0  0  0
 23 24  1  0  0  0  0
 24 29  1  0  0  0  0
 25 24  2  0  0  0  0
 25 26  1  0  0  0  0
 26 27  2  0  0  0  0
 27 28  1  0  0  0  0
 27 22  1  0  0  0  0
 29 28  2  0  0  0  0
M  END
>  <minimizedAffinity>
-7.72532511

$$$$
