
 OpenBabel10152418113D

 29 32  0  0  0  0  0  0  0  0999 V2000
   -0.7470   -9.5790  -22.8850 C   0  0  0  0  0  0  0  0  0  0  0  0
    0.2280   -9.8130  -23.7890 N   0  0  0  0  0  0  0  0  0  0  0  0
    0.7420  -11.0490  -23.8340 C   0  0  0  0  0  0  0  0  0  0  0  0
    1.6610  -11.4130  -24.8130 N   0  0  0  0  0  0  0  0  0  0  0  0
    0.3460  -12.0390  -23.0160 N   0  0  0  0  0  0  0  0  0  0  0  0
   -0.6350  -11.7590  -22.1290 C   0  0  0  0  0  3  0  0  0  0  0  0
   -1.2460  -10.5340  -22.0270 C   0  0  0  0  0  0  0  0  0  0  0  0
   -2.5310  -10.2750  -20.9250 Cl  0  0  0  0  0  0  0  0  0  0  0  0
    1.8210  -12.4090  -24.7880 H   0  0  0  0  0  0  0  0  0  0  0  0
    2.2990  -10.6780  -25.8140 C   0  0  0  0  0  0  0  0  0  0  0  0
    3.0810  -11.3550  -26.7600 C   0  0  0  0  0  3  0  0  0  0  0  0
    3.6640  -10.6790  -27.8410 C   0  0  0  0  0  3  0  0  0  0  0  0
    3.4850   -9.3000  -27.9960 C   0  0  0  0  0  0  0  0  0  0  0  0
    2.7280   -8.6150  -27.0390 C   0  0  0  0  0  3  0  0  0  0  0  0
    2.1270   -9.3000  -25.9770 C   0  0  0  0  0  3  0  0  0  0  0  0
    4.0530   -8.5710  -29.1200 C   0  0  0  0  0  0  0  0  0  0  0  0
    4.1420   -7.2650  -29.2800 N   0  0  0  0  0  0  0  0  0  0  0  0
    4.7230   -7.0600  -30.5090 N   0  0  0  0  0  0  0  0  0  0  0  0
    4.9680   -8.2110  -31.1150 N   0  0  0  0  0  0  0  0  0  0  0  0
    4.5440   -9.1500  -30.2600 N   0  0  0  0  0  0  0  0  0  0  0  0
    4.5900  -10.1230  -30.5220 H   0  0  0  0  0  0  0  0  0  0  0  0
   -1.3300   -8.3340  -22.9740 O   0  0  0  0  0  0  0  0  0  0  0  0
    0.1860   -4.8740  -26.9650 F   0  0  0  0  0  0  0  0  0  0  0  0
   -0.2030   -5.7330  -26.0150 C   0  0  0  0  0  0  0  0  0  0  0  0
   -0.0280   -5.4000  -24.6780 C   0  0  0  0  0  3  0  0  0  0  0  0
   -0.4280   -6.3000  -23.6910 C   0  0  0  0  0  3  0  0  0  0  0  0
   -0.9980   -7.5310  -24.0420 C   0  0  0  0  0  0  0  0  0  0  0  0
   -1.1890   -7.8460  -25.3920 C   0  0  0  0  0  3  0  0  0  0  0  0
   -0.7810   -6.9440  -26.3800 C   0  0  0  0  0  3  0  0  0  0  0  0
  1  7  1  0  0  0  0
  2  1  2  0  0  0  0
  3  2  1  0  0  0  0
  3  5  2  0  0  0  0
  4  9  1  0  0  0  0
  4  3  1  0  0  0  0
  5  6  1  0  0  0  0
  6  7  2  0  0  0  0
  7  8  1  0  0  0  0
 10  4  1  0  0  0  0
 11 10  2  0  0  0  0
 12 11  1  0  0  0  0
 13 12  2  0  0  0  0
 13 14  1  0  0  0  0
 14 15  2  0  0  0  0
 15 10  1  0  0  0  0
 16 13  1  0  0  0  0
 17 16  2  0  0  0  0
 18 17  1  0  0  0  0
 19 18  2  0  0  0  0
 19 20  1  0  0  0  0
 20 16  1  0  0  0  0
 21 20  1  0  0  0  0
 22  1  1  0  0  0  0
 23 24  1  0  0  0  0
 24 25  1  0  0  0  0
 25 26  2  0  0  0  0
 27 26  1  0  0  0  0
 27 22  1  0  0  0  0
 28 27  2  0  0  0  0
 29 24  2  0  0  0  0
 29 28  1  0  0  0  0
M  END
>  <minimizedAffinity>
-7.62407207

$$$$
