
 OpenBabel10152418113D

 29 32  0  0  0  0  0  0  0  0999 V2000
    2.8670   -7.6150  -27.8630 C   0  0  0  0  0  0  0  0  0  0  0  0
    1.8750   -7.2460  -27.0250 N   0  0  0  0  0  0  0  0  0  0  0  0
    1.0730   -6.2490  -27.4220 C   0  0  0  0  0  0  0  0  0  0  0  0
   -0.0470   -5.8850  -26.6820 N   0  0  0  0  0  0  0  0  0  0  0  0
    1.2290   -5.6010  -28.5890 N   0  0  0  0  0  0  0  0  0  0  0  0
    2.2350   -6.0060  -29.3970 C   0  0  0  0  0  3  0  0  0  0  0  0
    3.0890   -7.0380  -29.0940 C   0  0  0  0  0  0  0  0  0  0  0  0
    4.2960   -7.5390  -30.2000 Cl  0  0  0  0  0  0  0  0  0  0  0  0
   -0.6110   -5.2290  -27.2010 H   0  0  0  0  0  0  0  0  0  0  0  0
   -0.5280   -6.3170  -25.4430 C   0  0  0  0  0  0  0  0  0  0  0  0
   -1.2620   -7.5100  -25.3780 C   0  0  0  0  0  3  0  0  0  0  0  0
   -1.6850   -8.0390  -24.1510 C   0  0  0  0  0  3  0  0  0  0  0  0
   -1.3890   -7.3770  -22.9540 C   0  0  0  0  0  0  0  0  0  0  0  0
   -0.6810   -6.1730  -23.0150 C   0  0  0  0  0  3  0  0  0  0  0  0
   -0.2390   -5.6640  -24.2420 C   0  0  0  0  0  3  0  0  0  0  0  0
   -1.7890   -7.9120  -21.6600 C   0  0  0  0  0  0  0  0  0  0  0  0
   -1.8920   -9.1760  -21.3000 N   0  0  0  0  0  0  0  0  0  0  0  0
   -2.3330   -9.1770  -19.9970 N   0  0  0  0  0  0  0  0  0  0  0  0
   -2.5250   -7.9430  -19.5610 N   0  0  0  0  0  0  0  0  0  0  0  0
   -2.1980   -7.1560  -20.5940 N   0  0  0  0  0  0  0  0  0  0  0  0
   -2.3040   -6.1550  -20.5150 H   0  0  0  0  0  0  0  0  0  0  0  0
    3.5730   -8.7280  -27.4670 O   0  0  0  0  0  0  0  0  0  0  0  0
    0.9870  -11.9440  -23.8370 F   0  0  0  0  0  0  0  0  0  0  0  0
    1.6340  -11.1880  -24.7320 C   0  0  0  0  0  0  0  0  0  0  0  0
    1.6840   -9.8110  -24.5560 C   0  0  0  0  0  3  0  0  0  0  0  0
    2.3520   -9.0260  -25.4950 C   0  0  0  0  0  3  0  0  0  0  0  0
    2.9660   -9.6170  -26.6070 C   0  0  0  0  0  0  0  0  0  0  0  0
    2.9270  -11.0070  -26.7620 C   0  0  0  0  0  3  0  0  0  0  0  0
    2.2500  -11.7920  -25.8230 C   0  0  0  0  0  3  0  0  0  0  0  0
  1 22  1  0  0  0  0
  1  2  2  0  0  0  0
  3  2  1  0  0  0  0
  3  4  1  0  0  0  0
  4 10  1  0  0  0  0
  5  3  2  0  0  0  0
  6  7  2  0  0  0  0
  6  5  1  0  0  0  0
  7  1  1  0  0  0  0
  8  7  1  0  0  0  0
  9  4  1  0  0  0  0
 10 11  2  0  0  0  0
 10 15  1  0  0  0  0
 11 12  1  0  0  0  0
 12 13  2  0  0  0  0
 13 16  1  0  0  0  0
 14 13  1  0  0  0  0
 15 14  2  0  0  0  0
 16 17  2  0  0  0  0
 16 20  1  0  0  0  0
 17 18  1  0  0  0  0
 18 19  2  0  0  0  0
 20 21  1  0  0  0  0
 20 19  1  0  0  0  0
 22 27  1  0  0  0  0
 24 25  1  0  0  0  0
 24 23  1  0  0  0  0
 26 25  2  0  0  0  0
 27 26  1  0  0  0  0
 28 27  2  0  0  0  0
 28 29  1  0  0  0  0
 29 24  2  0  0  0  0
M  END
>  <minimizedAffinity>
-7.48588228

$$$$
