
 OpenBabel11232420113D

 37 41  0  0  1  0  0  0  0  0999 V2000
   -8.4020   -8.8110    8.6610 C   0  0  2  0  0  3  0  0  0  0  0  0
   -9.2720   -8.3860    7.7590 N   0  0  0  0  0  2  0  0  0  0  0  0
  -10.3470   -9.2350    7.7940 C   0  0  2  0  0  3  0  0  0  0  0  0
  -10.0640  -10.2870    8.6290 C   0  0  0  0  0  2  0  0  0  0  0  0
   -8.7720  -10.0780    9.0610 N   0  0  0  0  0  0  0  0  0  0  0  0
  -11.5600   -9.0260    7.0200 C   0  0  0  0  0  0  0  0  0  0  0  0
  -12.4120  -10.1130    6.7720 C   0  0  0  0  0  3  0  0  0  0  0  0
  -13.5900   -9.9440    6.0430 C   0  0  0  0  0  3  0  0  0  0  0  0
  -13.9170   -8.6880    5.5460 C   0  0  0  0  0  0  0  0  0  0  0  0
  -15.0550   -8.5390    4.8570 F   0  0  0  0  0  0  0  0  0  0  0  0
  -13.0810   -7.5900    5.7540 C   0  0  0  0  0  0  0  0  0  0  0  0
  -13.4610   -6.2440    5.2150 C   0  0  0  0  0  1  0  0  0  0  0  0
  -11.9070   -7.7650    6.5040 C   0  0  0  0  0  3  0  0  0  0  0  0
   -5.1340   -6.9680   10.8280 N   0  0  0  0  0  0  0  0  0  0  0  0
   -6.4770   -6.4160   10.9970 C   0  0  0  0  0  2  0  0  0  0  0  0
   -7.5550   -7.3810   10.5100 C   0  0  0  0  0  2  0  0  0  0  0  0
   -7.2510   -7.9250    9.0970 C   0  0  1  0  0  3  0  0  0  0  0  0
   -5.8390   -8.5070    9.0560 C   0  0  0  0  0  2  0  0  0  0  0  0
   -4.8040   -7.4700    9.5030 C   0  0  0  0  0  2  0  0  0  0  0  0
   -3.6110   -7.1890   12.7070 C   0  0  0  0  0  0  0  0  0  0  0  0
   -3.1840   -8.0150   13.7420 C   0  0  0  0  0  0  0  0  0  0  0  0
   -2.1800   -7.6470   14.6190 N   0  0  0  0  0  0  0  0  0  0  0  0
   -3.6730   -9.2420   13.9470 N   0  0  0  0  0  0  0  0  0  0  0  0
   -4.6480   -9.6310   13.1250 C   0  0  0  0  0  3  0  0  0  0  0  0
   -5.1490   -8.9260   12.1070 N   0  0  0  0  0  0  0  0  0  0  0  0
   -4.6270   -7.7050   11.8990 C   0  0  0  0  0  0  0  0  0  0  0  0
   -1.9860   -8.3760   15.2970 H   0  0  0  0  0  0  0  0  0  0  0  0
   -2.1950   -6.7050   14.9810 H   0  0  0  0  0  0  0  0  0  0  0  0
   -3.7350   -4.7380   13.3310 C   0  0  0  0  0  1  0  0  0  0  0  0
   -3.0360   -5.8090   12.5030 C   0  0  0  0  0  2  0  0  0  0  0  0
   -7.9900  -11.1480    9.6560 C   0  0  0  0  0  2  0  0  0  0  0  0
   -7.5910  -12.2460    8.6730 C   0  0  0  0  0  3  0  0  0  0  0  0
   -6.3680  -13.1340    8.9920 C   0  0  0  0  0  2  0  0  0  0  0  0
   -7.0970  -14.2770    8.4110 N   0  0  0  0  0  4  0  0  0  0  0  0
   -7.0080  -15.4750    9.2860 C   0  0  0  0  0  1  0  0  0  0  0  0
   -8.3800  -13.5730    8.5990 C   0  0  0  0  0  2  0  0  0  0  0  0
   -6.8620  -14.4710    7.4290 H   0  0  0  0  0  0  0  0  0  0  0  0
  1  2  1  1  0  0  0
  1  5  1  0  0  0  0
  1 17  1  0  0  0  0
  2  3  1  0  0  0  0
  3  6  1  6  0  0  0
  3  4  1  0  0  0  0
  4  5  1  0  0  0  0
  5 31  1  0  0  0  0
  7  6  1  0  0  0  0
  8  7  2  0  0  0  0
  9 11  2  0  0  0  0
  9  8  1  0  0  0  0
 10  9  1  0  0  0  0
 11 13  1  0  0  0  0
 12 11  1  0  0  0  0
 13  6  2  0  0  0  0
 14 15  1  0  0  0  0
 14 26  1  0  0  0  0
 16 15  1  0  0  0  0
 17 18  1  1  0  0  0
 17 16  1  0  0  0  0
 18 19  1  0  0  0  0
 19 14  1  0  0  0  0
 20 21  1  0  0  0  0
 21 23  2  0  0  0  0
 21 22  1  0  0  0  0
 22 28  1  0  0  0  0
 22 27  1  0  0  0  0
 24 23  1  0  0  0  0
 25 24  2  0  0  0  0
 26 25  1  0  0  0  0
 26 20  2  0  0  0  0
 30 20  1  0  0  0  0
 30 29  1  0  0  0  0
 32 33  1  0  0  0  0
 32 31  1  0  0  0  0
 34 36  1  0  0  0  0
 34 33  1  0  0  0  0
 34 35  1  0  0  0  0
 36 32  1  0  0  0  0
 37 34  1  0  0  0  0
M  END
>  <minimizedAffinity>
-5.71337795

$$$$
