
 OpenBabel11232420113D

 37 41  0  0  1  0  0  0  0  0999 V2000
   -9.0300  -10.1150    9.0280 C   0  0  2  0  0  3  0  0  0  0  0  0
   -8.8370   -8.9020    9.5210 N   0  0  0  0  0  2  0  0  0  0  0  0
   -7.5080   -8.6040    9.3700 C   0  0  2  0  0  3  0  0  0  0  0  0
   -6.8460   -9.7170    8.9130 C   0  0  0  0  0  2  0  0  0  0  0  0
   -7.7990  -10.7080    8.8360 N   0  0  0  0  0  0  0  0  0  0  0  0
   -6.9350   -7.3080    9.6930 C   0  0  0  0  0  0  0  0  0  0  0  0
   -6.2670   -6.5840    8.6930 C   0  0  0  0  0  3  0  0  0  0  0  0
   -5.7150   -5.3320    8.9670 C   0  0  0  0  0  3  0  0  0  0  0  0
   -5.8190   -4.8000   10.2460 C   0  0  0  0  0  0  0  0  0  0  0  0
   -5.2940   -3.5920   10.4910 F   0  0  0  0  0  0  0  0  0  0  0  0
   -6.4570   -5.5020   11.2710 C   0  0  0  0  0  0  0  0  0  0  0  0
   -6.5630   -4.9010   12.6400 C   0  0  0  0  0  1  0  0  0  0  0  0
   -7.0240   -6.7530   10.9820 C   0  0  0  0  0  3  0  0  0  0  0  0
  -13.3290  -10.5390    8.6950 N   0  0  0  0  0  0  0  0  0  0  0  0
  -12.6690  -11.0740    9.8850 C   0  0  0  0  0  2  0  0  0  0  0  0
  -11.2580  -10.5150   10.0540 C   0  0  0  0  0  2  0  0  0  0  0  0
  -10.4330  -10.6200    8.7530 C   0  0  1  0  0  3  0  0  0  0  0  0
  -11.2080   -9.9960    7.5930 C   0  0  0  0  0  2  0  0  0  0  0  0
  -12.5900  -10.6410    7.4460 C   0  0  0  0  0  2  0  0  0  0  0  0
  -15.4180   -9.3130    8.5180 C   0  0  0  0  0  0  0  0  0  0  0  0
  -16.0500   -8.0920    8.7330 C   0  0  0  0  0  0  0  0  0  0  0  0
  -17.3810   -7.8800    8.4270 N   0  0  0  0  0  0  0  0  0  0  0  0
  -15.4150   -7.0160    9.2100 N   0  0  0  0  0  0  0  0  0  0  0  0
  -14.1300   -7.1810    9.5240 C   0  0  0  0  0  3  0  0  0  0  0  0
  -13.4200   -8.3030    9.3750 N   0  0  0  0  0  0  0  0  0  0  0  0
  -14.0670   -9.3670    8.8690 C   0  0  0  0  0  0  0  0  0  0  0  0
  -17.6690   -6.9300    8.6310 H   0  0  0  0  0  0  0  0  0  0  0  0
  -18.0410   -8.6020    8.6780 H   0  0  0  0  0  0  0  0  0  0  0  0
  -16.1680  -10.5750    6.4550 C   0  0  0  0  0  1  0  0  0  0  0  0
  -16.1630  -10.5080    7.9770 C   0  0  0  0  0  2  0  0  0  0  0  0
   -7.4290  -12.1110    8.7500 C   0  0  0  0  0  2  0  0  0  0  0  0
   -7.5900  -12.8760   10.0610 C   0  0  0  0  0  3  0  0  0  0  0  0
   -7.0470  -14.3190   10.1610 C   0  0  0  0  0  2  0  0  0  0  0  0
   -6.6470  -14.0290   11.5510 N   0  0  0  0  0  4  0  0  0  0  0  0
   -5.2620  -14.4960   11.8230 C   0  0  0  0  0  1  0  0  0  0  0  0
   -6.6770  -12.5810   11.2730 C   0  0  0  0  0  2  0  0  0  0  0  0
   -7.3270  -14.3370   12.2580 H   0  0  0  0  0  0  0  0  0  0  0  0
  1  2  1  6  0  0  0
  3  2  1  0  0  0  0
  3  6  1  1  0  0  0
  4  3  1  0  0  0  0
  5  4  1  0  0  0  0
  5  1  1  0  0  0  0
  6 13  1  0  0  0  0
  7  8  1  0  0  0  0
  7  6  2  0  0  0  0
  8  9  2  0  0  0  0
  9 10  1  0  0  0  0
  9 11  1  0  0  0  0
 11 12  1  0  0  0  0
 13 11  2  0  0  0  0
 14 26  1  0  0  0  0
 14 15  1  0  0  0  0
 15 16  1  0  0  0  0
 17 18  1  6  0  0  0
 17  1  1  0  0  0  0
 17 16  1  0  0  0  0
 19 18  1  0  0  0  0
 19 14  1  0  0  0  0
 20 21  2  0  0  0  0
 20 26  1  0  0  0  0
 21 23  1  0  0  0  0
 22 27  1  0  0  0  0
 22 28  1  0  0  0  0
 22 21  1  0  0  0  0
 23 24  2  0  0  0  0
 25 24  1  0  0  0  0
 26 25  2  0  0  0  0
 29 30  1  0  0  0  0
 30 20  1  0  0  0  0
 31  5  1  0  0  0  0
 31 32  1  0  0  0  0
 32 33  1  0  0  0  0
 32 36  1  0  0  0  0
 33 34  1  0  0  0  0
 34 35  1  0  0  0  0
 34 37  1  0  0  0  0
 36 34  1  0  0  0  0
M  END
>  <minimizedAffinity>
-5.45808792

$$$$
