
 OpenBabel11232420113D

 37 41  0  0  1  0  0  0  0  0999 V2000
   -9.2120  -10.0010    9.4800 C   0  0  2  0  0  3  0  0  0  0  0  0
   -8.7070   -8.9810   10.1550 N   0  0  0  0  0  2  0  0  0  0  0  0
   -7.3480   -9.0060    9.9800 C   0  0  2  0  0  3  0  0  0  0  0  0
   -7.0010  -10.1520    9.3080 C   0  0  0  0  0  2  0  0  0  0  0  0
   -8.1790  -10.8420    9.1220 N   0  0  0  0  0  0  0  0  0  0  0  0
   -6.4560   -7.9730   10.4800 C   0  0  0  0  0  0  0  0  0  0  0  0
   -5.4610   -8.3160   11.4090 C   0  0  0  0  0  3  0  0  0  0  0  0
   -4.5810   -7.3500   11.9000 C   0  0  0  0  0  3  0  0  0  0  0  0
   -4.6990   -6.0330   11.4740 C   0  0  0  0  0  0  0  0  0  0  0  0
   -3.8400   -5.1190   11.9460 F   0  0  0  0  0  0  0  0  0  0  0  0
   -5.6910   -5.6520   10.5690 C   0  0  0  0  0  0  0  0  0  0  0  0
   -5.7900   -4.2260   10.1180 C   0  0  0  0  0  1  0  0  0  0  0  0
   -6.5600   -6.6330   10.0660 C   0  0  0  0  0  3  0  0  0  0  0  0
  -13.2870   -9.1790    8.2580 N   0  0  0  0  0  0  0  0  0  0  0  0
  -12.8960   -8.8590    9.6300 C   0  0  0  0  0  2  0  0  0  0  0  0
  -11.3790   -8.8240    9.7970 C   0  0  0  0  0  2  0  0  0  0  0  0
  -10.7020  -10.0810    9.2060 C   0  0  1  0  0  3  0  0  0  0  0  0
  -11.1580  -10.2880    7.7630 C   0  0  0  0  0  2  0  0  0  0  0  0
  -12.6850  -10.3690    7.6760 C   0  0  0  0  0  2  0  0  0  0  0  0
  -14.6470   -7.9160    6.6910 C   0  0  0  0  0  0  0  0  0  0  0  0
  -14.6940   -6.8060    5.8540 C   0  0  0  0  0  0  0  0  0  0  0  0
  -15.8040   -6.4990    5.0890 N   0  0  0  0  0  0  0  0  0  0  0  0
  -13.6620   -5.9720    5.6880 N   0  0  0  0  0  0  0  0  0  0  0  0
  -12.5740   -6.2300    6.4140 C   0  0  0  0  0  3  0  0  0  0  0  0
  -12.4130   -7.2550    7.2560 N   0  0  0  0  0  0  0  0  0  0  0  0
  -13.4520   -8.0980    7.3910 C   0  0  0  0  0  0  0  0  0  0  0  0
  -15.6580   -5.6680    4.5280 H   0  0  0  0  0  0  0  0  0  0  0  0
  -16.7110   -6.5780    5.5260 H   0  0  0  0  0  0  0  0  0  0  0  0
  -16.7550   -8.4330    7.9950 C   0  0  0  0  0  1  0  0  0  0  0  0
  -15.8290   -8.8380    6.8550 C   0  0  0  0  0  2  0  0  0  0  0  0
   -8.1840  -12.2560    8.7840 C   0  0  0  0  0  2  0  0  0  0  0  0
   -7.5800  -13.1530    9.8620 C   0  0  0  0  0  3  0  0  0  0  0  0
   -8.3960  -14.3580   10.3810 C   0  0  0  0  0  2  0  0  0  0  0  0
   -7.1370  -15.1220   10.4640 N   0  0  0  0  0  4  0  0  0  0  0  0
   -7.2890  -16.4780    9.8750 C   0  0  0  0  0  1  0  0  0  0  0  0
   -6.4940  -14.1960    9.5130 C   0  0  0  0  0  2  0  0  0  0  0  0
   -6.7100  -15.1300   11.4000 H   0  0  0  0  0  0  0  0  0  0  0  0
  1  2  1  6  0  0  0
  3  2  1  0  0  0  0
  3  6  1  1  0  0  0
  4  3  1  0  0  0  0
  5  4  1  0  0  0  0
  5  1  1  0  0  0  0
  6  7  1  0  0  0  0
  7  8  2  0  0  0  0
  9  8  1  0  0  0  0
  9 10  1  0  0  0  0
 11  9  2  0  0  0  0
 12 11  1  0  0  0  0
 13  6  2  0  0  0  0
 13 11  1  0  0  0  0
 14 15  1  0  0  0  0
 15 16  1  0  0  0  0
 17 18  1  6  0  0  0
 17  1  1  0  0  0  0
 17 16  1  0  0  0  0
 19 18  1  0  0  0  0
 19 14  1  0  0  0  0
 20 30  1  0  0  0  0
 20 26  1  0  0  0  0
 21 20  2  0  0  0  0
 22 28  1  0  0  0  0
 22 21  1  0  0  0  0
 23 21  1  0  0  0  0
 23 24  2  0  0  0  0
 24 25  1  0  0  0  0
 25 26  2  0  0  0  0
 26 14  1  0  0  0  0
 27 22  1  0  0  0  0
 30 29  1  0  0  0  0
 31  5  1  0  0  0  0
 31 32  1  0  0  0  0
 32 33  1  0  0  0  0
 33 34  1  0  0  0  0
 34 37  1  0  0  0  0
 35 34  1  0  0  0  0
 36 32  1  0  0  0  0
 36 34  1  0  0  0  0
M  END
>  <minimizedAffinity>
-5.12636042

$$$$
