
 OpenBabel11232420113D

 37 41  0  0  1  0  0  0  0  0999 V2000
   -8.6430   -9.3940    8.6790 C   0  0  2  0  0  3  0  0  0  0  0  0
   -9.3840   -8.8220    7.7430 N   0  0  0  0  0  2  0  0  0  0  0  0
  -10.6270   -9.3980    7.7950 C   0  0  2  0  0  3  0  0  0  0  0  0
  -10.6000  -10.4480    8.6790 C   0  0  0  0  0  2  0  0  0  0  0  0
   -9.2980  -10.5220    9.1250 N   0  0  0  0  0  0  0  0  0  0  0  0
  -11.7520   -8.9500    6.9910 C   0  0  0  0  0  0  0  0  0  0  0  0
  -12.6970   -9.8900    6.5490 C   0  0  0  0  0  3  0  0  0  0  0  0
  -13.7950   -9.4920    5.7850 C   0  0  0  0  0  3  0  0  0  0  0  0
  -13.9490   -8.1520    5.4500 C   0  0  0  0  0  0  0  0  0  0  0  0
  -15.0140   -7.7840    4.7250 F   0  0  0  0  0  0  0  0  0  0  0  0
  -13.0170   -7.1940    5.8530 C   0  0  0  0  0  0  0  0  0  0  0  0
  -13.2120   -5.7550    5.4850 C   0  0  0  0  0  1  0  0  0  0  0  0
  -11.9250   -7.6010    6.6360 C   0  0  0  0  0  3  0  0  0  0  0  0
   -5.5610   -6.9240   10.4620 N   0  0  0  0  0  0  0  0  0  0  0  0
   -6.0470   -6.5730    9.1280 C   0  0  0  0  0  2  0  0  0  0  0  0
   -7.3700   -7.2620    8.8040 C   0  0  0  0  0  2  0  0  0  0  0  0
   -7.3220   -8.7770    9.0970 C   0  0  1  0  0  3  0  0  0  0  0  0
   -6.8380   -9.0160   10.5270 C   0  0  0  0  0  2  0  0  0  0  0  0
   -5.4820   -8.3450   10.7660 C   0  0  0  0  0  2  0  0  0  0  0  0
   -5.0470   -5.4920   12.3550 C   0  0  0  0  0  0  0  0  0  0  0  0
   -5.5780   -4.6980   13.3660 C   0  0  0  0  0  0  0  0  0  0  0  0
   -4.7850   -4.0380   14.2860 N   0  0  0  0  0  0  0  0  0  0  0  0
   -6.8920   -4.5430   13.5590 N   0  0  0  0  0  0  0  0  0  0  0  0
   -7.6910   -5.1590   12.6880 C   0  0  0  0  0  3  0  0  0  0  0  0
   -7.3020   -5.9360   11.6730 N   0  0  0  0  0  0  0  0  0  0  0  0
   -5.9770   -6.1020   11.5100 C   0  0  0  0  0  0  0  0  0  0  0  0
   -5.3380   -3.5210   14.9600 H   0  0  0  0  0  0  0  0  0  0  0  0
   -3.9610   -3.5650   13.9420 H   0  0  0  0  0  0  0  0  0  0  0  0
   -2.9620   -6.7820   12.9890 C   0  0  0  0  0  1  0  0  0  0  0  0
   -3.5580   -5.6470   12.1660 C   0  0  0  0  0  2  0  0  0  0  0  0
   -8.7880  -11.7160    9.7780 C   0  0  0  0  0  2  0  0  0  0  0  0
   -7.9420  -12.6060    8.8710 C   0  0  0  0  0  3  0  0  0  0  0  0
   -6.7660  -13.4010    9.4830 C   0  0  0  0  0  2  0  0  0  0  0  0
   -7.0970  -14.5120    8.5710 N   0  0  0  0  0  4  0  0  0  0  0  0
   -7.1160  -15.8130    9.2890 C   0  0  0  0  0  1  0  0  0  0  0  0
   -8.4620  -13.9810    8.3940 C   0  0  0  0  0  2  0  0  0  0  0  0
   -6.5370  -14.5310    7.7090 H   0  0  0  0  0  0  0  0  0  0  0  0
  1  2  1  1  0  0  0
  1 17  1  0  0  0  0
  1  5  1  0  0  0  0
  2  3  1  0  0  0  0
  3  6  1  6  0  0  0
  3  4  1  0  0  0  0
  4  5  1  0  0  0  0
  5 31  1  0  0  0  0
  7  6  2  0  0  0  0
  8  7  1  0  0  0  0
  9  8  2  0  0  0  0
  9 11  1  0  0  0  0
 10  9  1  0  0  0  0
 11 13  2  0  0  0  0
 12 11  1  0  0  0  0
 13  6  1  0  0  0  0
 14 19  1  0  0  0  0
 14 26  1  0  0  0  0
 15 14  1  0  0  0  0
 16 15  1  0  0  0  0
 17 16  1  1  0  0  0
 17 18  1  0  0  0  0
 18 19  1  0  0  0  0
 20 21  1  0  0  0  0
 21 23  2  0  0  0  0
 21 22  1  0  0  0  0
 22 27  1  0  0  0  0
 24 23  1  0  0  0  0
 25 24  2  0  0  0  0
 26 25  1  0  0  0  0
 26 20  2  0  0  0  0
 28 22  1  0  0  0  0
 30 20  1  0  0  0  0
 30 29  1  0  0  0  0
 32 33  1  0  0  0  0
 32 31  1  0  0  0  0
 34 35  1  0  0  0  0
 34 33  1  0  0  0  0
 36 34  1  0  0  0  0
 36 32  1  0  0  0  0
 37 34  1  0  0  0  0
M  END
>  <minimizedAffinity>
-5.88183594

$$$$
