
 OpenBabel11232419583D

 35 39  0  0  1  0  0  0  0  0999 V2000
   -5.2470   -8.7820    9.5890 O   0  0  0  0  0  0  0  0  0  0  0  0
   -6.4450  -12.1930    8.7040 C   0  0  0  0  0  0  0  0  0  0  0  0
   -7.1130  -12.4200    9.9040 C   0  0  0  0  0  3  0  0  0  0  0  0
   -7.1880  -11.5170   10.9070 N   0  0  0  0  0  0  0  0  0  0  0  0
   -6.5870  -10.3260   10.7050 C   0  0  0  0  0  3  0  0  0  0  0  0
   -5.8740   -9.9920    9.5590 C   0  0  0  0  0  0  0  0  0  0  0  0
   -5.8250  -10.9400    8.5400 C   0  0  0  0  0  3  0  0  0  0  0  0
   -7.8230  -17.7260    7.7640 C   0  0  0  0  0  1  0  0  0  0  0  0
   -7.1400  -16.8640    6.7690 C   0  0  0  0  0  0  0  0  0  0  0  0
   -6.7900  -17.3610    5.5780 N   0  0  0  0  0  0  0  0  0  0  0  0
   -6.2240  -16.3200    4.9430 N   0  0  0  0  0  0  0  0  0  0  0  0
   -6.1730  -15.1720    5.6910 C   0  0  0  0  0  0  0  0  0  0  0  0
   -5.6700  -13.9010    5.4090 C   0  0  0  0  0  3  0  0  0  0  0  0
   -5.7780  -12.9330    6.4170 C   0  0  0  0  0  3  0  0  0  0  0  0
   -6.3660  -13.2180    7.6590 C   0  0  0  0  0  0  0  0  0  0  0  0
   -6.8730  -14.5110    7.8990 C   0  0  0  0  0  3  0  0  0  0  0  0
   -6.7690  -15.4990    6.9010 C   0  0  0  0  0  0  0  0  0  0  0  0
   -5.8890  -16.4590    3.9970 H   0  0  0  0  0  0  0  0  0  0  0  0
   -5.9950   -7.5790    9.7970 C   0  0  0  0  0  2  0  0  0  0  0  0
   -5.1540   -6.3530    9.3790 C   0  0  1  0  0  3  0  0  0  0  0  0
   -5.0420   -6.2960    7.8780 N   0  0  0  0  0  4  0  0  0  0  0  0
   -5.9480   -6.1670    7.4120 H   0  0  0  0  0  0  0  0  0  0  0  0
   -4.4110   -5.5440    7.5740 H   0  0  0  0  0  0  0  0  0  0  0  0
   -4.6390   -7.1800    7.5300 H   0  0  0  0  0  0  0  0  0  0  0  0
   -5.7410   -5.0280    9.8850 C   0  0  0  0  0  2  0  0  0  0  0  0
   -5.8540   -4.9970   11.3720 C   0  0  0  0  0  0  0  0  0  0  0  0
   -7.0010   -4.7120   12.0870 C   0  0  0  0  0  3  0  0  0  0  0  0
   -6.7070   -4.7840   13.4230 N   0  0  0  0  0  0  0  0  0  0  0  0
   -5.3820   -5.1040   13.5960 C   0  0  0  0  0  0  0  0  0  0  0  0
   -4.6530   -5.2770   14.7780 C   0  0  0  0  0  3  0  0  0  0  0  0
   -3.3050   -5.6220   14.6620 C   0  0  0  0  0  3  0  0  0  0  0  0
   -2.7140   -5.7900   13.4140 C   0  0  0  0  0  3  0  0  0  0  0  0
   -3.4570   -5.6130   12.2400 C   0  0  0  0  0  3  0  0  0  0  0  0
   -4.8200   -5.2580   12.3290 C   0  0  0  0  0  0  0  0  0  0  0  0
   -7.3630   -4.6350   14.1800 H   0  0  0  0  0  0  0  0  0  0  0  0
  1 19  1  0  0  0  0
  2  3  1  0  0  0  0
  3  4  2  0  0  0  0
  5  4  1  0  0  0  0
  6  1  1  0  0  0  0
  6  5  2  0  0  0  0
  7  2  2  0  0  0  0
  7  6  1  0  0  0  0
  9 17  1  0  0  0  0
  9  8  1  0  0  0  0
 10  9  2  0  0  0  0
 11 10  1  0  0  0  0
 11 12  1  0  0  0  0
 12 17  1  0  0  0  0
 13 12  2  0  0  0  0
 13 14  1  0  0  0  0
 14 15  2  0  0  0  0
 15 16  1  0  0  0  0
 15  2  1  0  0  0  0
 17 16  2  0  0  0  0
 18 11  1  0  0  0  0
 20 19  1  6  0  0  0
 20 25  1  0  0  0  0
 21 20  1  0  0  0  0
 22 21  1  0  0  0  0
 23 21  1  0  0  0  0
 24 21  1  0  0  0  0
 25 26  1  0  0  0  0
 26 27  2  0  0  0  0
 26 34  1  0  0  0  0
 27 28  1  0  0  0  0
 28 29  1  0  0  0  0
 28 35  1  0  0  0  0
 29 30  1  0  0  0  0
 31 30  2  0  0  0  0
 32 31  1  0  0  0  0
 33 34  1  0  0  0  0
 33 32  2  0  0  0  0
 34 29  2  0  0  0  0
M  END
>  <minimizedAffinity>
-4.5301342

$$$$
