
 OpenBabel11232419583D

 35 39  0  0  1  0  0  0  0  0999 V2000
   -3.6230   -8.7190   15.2520 O   0  0  0  0  0  0  0  0  0  0  0  0
   -6.7160   -8.4880   13.1940 C   0  0  0  0  0  0  0  0  0  0  0  0
   -7.3070   -7.4760   13.9460 C   0  0  0  0  0  3  0  0  0  0  0  0
   -6.7250   -6.8980   15.0200 N   0  0  0  0  0  0  0  0  0  0  0  0
   -5.4910   -7.3320   15.3560 C   0  0  0  0  0  3  0  0  0  0  0  0
   -4.8110   -8.3490   14.6950 C   0  0  0  0  0  0  0  0  0  0  0  0
   -5.4340   -8.9150   13.5850 C   0  0  0  0  0  3  0  0  0  0  0  0
   -5.6630  -11.9140    8.6610 C   0  0  0  0  0  1  0  0  0  0  0  0
   -6.9920  -11.3310    8.9650 C   0  0  0  0  0  0  0  0  0  0  0  0
   -8.0320  -11.5730    8.1590 N   0  0  0  0  0  0  0  0  0  0  0  0
   -9.0520  -10.9160    8.7370 N   0  0  0  0  0  0  0  0  0  0  0  0
   -8.7040  -10.2360    9.8750 C   0  0  0  0  0  0  0  0  0  0  0  0
   -9.4510   -9.4430   10.7480 C   0  0  0  0  0  3  0  0  0  0  0  0
   -8.7730   -8.8830   11.8400 C   0  0  0  0  0  3  0  0  0  0  0  0
   -7.4040   -9.1040   12.0560 C   0  0  0  0  0  0  0  0  0  0  0  0
   -6.6900   -9.9230   11.1580 C   0  0  0  0  0  3  0  0  0  0  0  0
   -7.3520  -10.4900   10.0520 C   0  0  0  0  0  0  0  0  0  0  0  0
   -9.9660  -10.9700    8.3000 H   0  0  0  0  0  0  0  0  0  0  0  0
   -2.4400   -8.8130   14.4500 C   0  0  0  0  0  2  0  0  0  0  0  0
   -1.7820   -7.4240   14.3140 C   0  0  1  0  0  3  0  0  0  0  0  0
   -0.3110   -7.5200   14.6250 N   0  0  0  0  0  4  0  0  0  0  0  0
    0.2000   -8.1220   13.9680 H   0  0  0  0  0  0  0  0  0  0  0  0
    0.1360   -6.5950   14.6330 H   0  0  0  0  0  0  0  0  0  0  0  0
   -0.1850   -7.9180   15.5680 H   0  0  0  0  0  0  0  0  0  0  0  0
   -1.9550   -6.8170   12.9130 C   0  0  0  0  0  2  0  0  0  0  0  0
   -3.1440   -5.9210   12.8350 C   0  0  0  0  0  0  0  0  0  0  0  0
   -3.4230   -4.8740   13.6930 C   0  0  0  0  0  3  0  0  0  0  0  0
   -4.5970   -4.2910   13.2970 N   0  0  0  0  0  0  0  0  0  0  0  0
   -5.0990   -4.9440   12.1970 C   0  0  0  0  0  0  0  0  0  0  0  0
   -6.2670   -4.6950   11.4660 C   0  0  0  0  0  3  0  0  0  0  0  0
   -6.5290   -5.5130   10.3670 C   0  0  0  0  0  3  0  0  0  0  0  0
   -5.6550   -6.5360   10.0110 C   0  0  0  0  0  3  0  0  0  0  0  0
   -4.4900   -6.7720   10.7510 C   0  0  0  0  0  3  0  0  0  0  0  0
   -4.2050   -5.9640   11.8720 C   0  0  0  0  0  0  0  0  0  0  0  0
   -5.0350   -3.4910   13.7360 H   0  0  0  0  0  0  0  0  0  0  0  0
  2  7  2  0  0  0  0
  2  3  1  0  0  0  0
  3  4  2  0  0  0  0
  4  5  1  0  0  0  0
  6  1  1  0  0  0  0
  6  5  2  0  0  0  0
  7  6  1  0  0  0  0
  8  9  1  0  0  0  0
  9 17  1  0  0  0  0
 10 11  1  0  0  0  0
 10  9  2  0  0  0  0
 11 12  1  0  0  0  0
 12 17  2  0  0  0  0
 12 13  1  0  0  0  0
 13 14  2  0  0  0  0
 14 15  1  0  0  0  0
 15  2  1  0  0  0  0
 16 15  2  0  0  0  0
 17 16  1  0  0  0  0
 18 11  1  0  0  0  0
 19  1  1  0  0  0  0
 20 25  1  6  0  0  0
 20 19  1  0  0  0  0
 20 21  1  0  0  0  0
 21 23  1  0  0  0  0
 21 24  1  0  0  0  0
 22 21  1  0  0  0  0
 26 25  1  0  0  0  0
 26 27  2  0  0  0  0
 28 27  1  0  0  0  0
 28 35  1  0  0  0  0
 29 28  1  0  0  0  0
 30 29  2  0  0  0  0
 31 30  1  0  0  0  0
 32 31  2  0  0  0  0
 32 33  1  0  0  0  0
 33 34  2  0  0  0  0
 34 29  1  0  0  0  0
 34 26  1  0  0  0  0
M  END
>  <minimizedAffinity>
-4.72165442

$$$$
