
 OpenBabel11232419583D

 35 39  0  0  1  0  0  0  0  0999 V2000
   -5.0070   -8.1730    8.8210 O   0  0  0  0  0  0  0  0  0  0  0  0
   -4.7320   -5.4330   11.3240 C   0  0  0  0  0  0  0  0  0  0  0  0
   -5.3810   -4.4740   10.5510 C   0  0  0  0  0  3  0  0  0  0  0  0
   -5.8910   -4.7160    9.3230 N   0  0  0  0  0  0  0  0  0  0  0  0
   -5.7680   -5.9720    8.8450 C   0  0  0  0  0  3  0  0  0  0  0  0
   -5.1230   -7.0060    9.5150 C   0  0  0  0  0  0  0  0  0  0  0  0
   -4.6190   -6.7260   10.7830 C   0  0  0  0  0  3  0  0  0  0  0  0
   -0.8960   -7.4430   15.1510 C   0  0  0  0  0  1  0  0  0  0  0  0
   -1.7100   -6.2210   15.3610 C   0  0  0  0  0  0  0  0  0  0  0  0
   -1.5930   -5.5220   16.4950 N   0  0  0  0  0  0  0  0  0  0  0  0
   -2.4460   -4.4950   16.3360 N   0  0  0  0  0  0  0  0  0  0  0  0
   -3.1300   -4.5180   15.1480 C   0  0  0  0  0  0  0  0  0  0  0  0
   -4.0900   -3.6570   14.6120 C   0  0  0  0  0  3  0  0  0  0  0  0
   -4.5980   -3.9770   13.3460 C   0  0  0  0  0  3  0  0  0  0  0  0
   -4.1670   -5.1100   12.6380 C   0  0  0  0  0  0  0  0  0  0  0  0
   -3.1860   -5.9450   13.2090 C   0  0  0  0  0  3  0  0  0  0  0  0
   -2.6670   -5.6440   14.4830 C   0  0  0  0  0  0  0  0  0  0  0  0
   -2.5160   -3.8100   17.0800 H   0  0  0  0  0  0  0  0  0  0  0  0
   -5.6280   -9.3710    9.3000 C   0  0  0  0  0  2  0  0  0  0  0  0
   -7.0750   -9.0750    9.7470 C   0  0  1  0  0  3  0  0  0  0  0  0
   -8.0470   -9.7950    8.8500 N   0  0  0  0  0  4  0  0  0  0  0  0
   -7.9590  -10.8170    8.8990 H   0  0  0  0  0  0  0  0  0  0  0  0
   -9.0200   -9.5430    9.0660 H   0  0  0  0  0  0  0  0  0  0  0  0
   -7.8800   -9.5180    7.8700 H   0  0  0  0  0  0  0  0  0  0  0  0
   -7.3450   -9.4850   11.2030 C   0  0  0  0  0  2  0  0  0  0  0  0
   -7.4900   -8.3020   12.0990 C   0  0  0  0  0  0  0  0  0  0  0  0
   -8.3330   -7.2280   11.8870 C   0  0  0  0  0  3  0  0  0  0  0  0
   -8.1840   -6.3500   12.9280 N   0  0  0  0  0  0  0  0  0  0  0  0
   -7.2490   -6.8250   13.8150 C   0  0  0  0  0  0  0  0  0  0  0  0
   -6.7810   -6.2600   15.0070 C   0  0  0  0  0  3  0  0  0  0  0  0
   -5.8280   -6.9770   15.7320 C   0  0  0  0  0  3  0  0  0  0  0  0
   -5.3650   -8.2100   15.2830 C   0  0  0  0  0  3  0  0  0  0  0  0
   -5.8430   -8.7630   14.0880 C   0  0  0  0  0  3  0  0  0  0  0  0
   -6.8030   -8.0550   13.3320 C   0  0  0  0  0  0  0  0  0  0  0  0
   -8.6890   -5.4800   13.0410 H   0  0  0  0  0  0  0  0  0  0  0  0
  1 19  1  0  0  0  0
  1  6  1  0  0  0  0
  2 15  1  0  0  0  0
  3  2  2  0  0  0  0
  4  3  1  0  0  0  0
  5  4  2  0  0  0  0
  5  6  1  0  0  0  0
  6  7  2  0  0  0  0
  7  2  1  0  0  0  0
  8  9  1  0  0  0  0
  9 10  2  0  0  0  0
 11 10  1  0  0  0  0
 11 18  1  0  0  0  0
 12 11  1  0  0  0  0
 13 12  1  0  0  0  0
 14 13  2  0  0  0  0
 15 16  2  0  0  0  0
 15 14  1  0  0  0  0
 16 17  1  0  0  0  0
 17 12  2  0  0  0  0
 17  9  1  0  0  0  0
 20 19  1  6  0  0  0
 20 25  1  0  0  0  0
 21 22  1  0  0  0  0
 21 23  1  0  0  0  0
 21 20  1  0  0  0  0
 24 21  1  0  0  0  0
 25 26  1  0  0  0  0
 26 34  1  0  0  0  0
 27 26  2  0  0  0  0
 27 28  1  0  0  0  0
 28 35  1  0  0  0  0
 28 29  1  0  0  0  0
 29 30  1  0  0  0  0
 30 31  2  0  0  0  0
 32 31  1  0  0  0  0
 33 32  2  0  0  0  0
 34 29  2  0  0  0  0
 34 33  1  0  0  0  0
M  END
>  <minimizedAffinity>
-5.06030321

$$$$
