
 OpenBabel11232419583D

 35 39  0  0  1  0  0  0  0  0999 V2000
   -6.8800   -8.4100    9.6150 O   0  0  0  0  0  0  0  0  0  0  0  0
   -6.2660   -8.5610   13.2820 C   0  0  0  0  0  0  0  0  0  0  0  0
   -7.6090   -8.5370   13.6480 C   0  0  0  0  0  3  0  0  0  0  0  0
   -8.6300   -8.5040   12.7630 N   0  0  0  0  0  0  0  0  0  0  0  0
   -8.3070   -8.5120   11.4530 C   0  0  0  0  0  3  0  0  0  0  0  0
   -7.0030   -8.5140   10.9680 C   0  0  0  0  0  0  0  0  0  0  0  0
   -5.9750   -8.5590   11.9060 C   0  0  0  0  0  3  0  0  0  0  0  0
   -0.5240   -8.0420   13.6760 C   0  0  0  0  0  1  0  0  0  0  0  0
   -1.4140   -8.2780   14.8390 C   0  0  0  0  0  0  0  0  0  0  0  0
   -0.8970   -8.4020   16.0660 N   0  0  0  0  0  0  0  0  0  0  0  0
   -1.9700   -8.5850   16.8550 N   0  0  0  0  0  0  0  0  0  0  0  0
   -3.1620   -8.6100   16.1780 C   0  0  0  0  0  0  0  0  0  0  0  0
   -4.4760   -8.7800   16.6170 C   0  0  0  0  0  3  0  0  0  0  0  0
   -5.4830   -8.7530   15.6430 C   0  0  0  0  0  3  0  0  0  0  0  0
   -5.1950   -8.5630   14.2820 C   0  0  0  0  0  0  0  0  0  0  0  0
   -3.8550   -8.3810   13.8830 C   0  0  0  0  0  3  0  0  0  0  0  0
   -2.8280   -8.4100   14.8460 C   0  0  0  0  0  0  0  0  0  0  0  0
   -1.8200   -8.6900   17.8520 H   0  0  0  0  0  0  0  0  0  0  0  0
   -6.8560   -7.1260    8.9810 C   0  0  0  0  0  2  0  0  0  0  0  0
   -5.5290   -6.4040    9.2970 C   0  0  1  0  0  3  0  0  0  0  0  0
   -4.6650   -6.3550    8.0640 N   0  0  0  0  0  4  0  0  0  0  0  0
   -5.0860   -5.8120    7.3000 H   0  0  0  0  0  0  0  0  0  0  0  0
   -3.7370   -5.9620    8.2680 H   0  0  0  0  0  0  0  0  0  0  0  0
   -4.5120   -7.3130    7.7130 H   0  0  0  0  0  0  0  0  0  0  0  0
   -5.7380   -4.9740    9.8160 C   0  0  0  0  0  2  0  0  0  0  0  0
   -6.0780   -4.9500   11.2680 C   0  0  0  0  0  0  0  0  0  0  0  0
   -7.3540   -4.9390   11.7970 C   0  0  0  0  0  3  0  0  0  0  0  0
   -7.2560   -4.9190   13.1630 N   0  0  0  0  0  0  0  0  0  0  0  0
   -5.9350   -4.9070   13.5400 C   0  0  0  0  0  0  0  0  0  0  0  0
   -5.3710   -4.8820   14.8210 C   0  0  0  0  0  3  0  0  0  0  0  0
   -3.9790   -4.8920   14.9160 C   0  0  0  0  0  3  0  0  0  0  0  0
   -3.1840   -4.9310   13.7740 C   0  0  0  0  0  3  0  0  0  0  0  0
   -3.7620   -4.9570   12.4990 C   0  0  0  0  0  3  0  0  0  0  0  0
   -5.1680   -4.9390   12.3750 C   0  0  0  0  0  0  0  0  0  0  0  0
   -8.0340   -4.9220   13.8100 H   0  0  0  0  0  0  0  0  0  0  0  0
  1  6  1  0  0  0  0
  2  3  1  0  0  0  0
  2 15  1  0  0  0  0
  4  3  2  0  0  0  0
  5  4  1  0  0  0  0
  6  5  2  0  0  0  0
  6  7  1  0  0  0  0
  7  2  2  0  0  0  0
  8  9  1  0  0  0  0
  9 17  1  0  0  0  0
  9 10  2  0  0  0  0
 10 11  1  0  0  0  0
 11 18  1  0  0  0  0
 12 13  1  0  0  0  0
 12 11  1  0  0  0  0
 14 13  2  0  0  0  0
 15 14  1  0  0  0  0
 16 15  2  0  0  0  0
 16 17  1  0  0  0  0
 17 12  2  0  0  0  0
 19  1  1  0  0  0  0
 20 19  1  6  0  0  0
 20 25  1  0  0  0  0
 21 23  1  0  0  0  0
 21 20  1  0  0  0  0
 22 21  1  0  0  0  0
 24 21  1  0  0  0  0
 25 26  1  0  0  0  0
 26 27  2  0  0  0  0
 26 34  1  0  0  0  0
 27 28  1  0  0  0  0
 28 29  1  0  0  0  0
 28 35  1  0  0  0  0
 29 30  1  0  0  0  0
 30 31  2  0  0  0  0
 32 31  1  0  0  0  0
 33 32  2  0  0  0  0
 34 33  1  0  0  0  0
 34 29  2  0  0  0  0
M  END
>  <minimizedAffinity>
-4.38631725

$$$$
