
 OpenBabel11232419583D

 35 39  0  0  1  0  0  0  0  0999 V2000
   -5.9940  -10.8720   11.7900 O   0  0  0  0  0  0  0  0  0  0  0  0
   -5.5880   -8.1770   14.3240 C   0  0  0  0  0  0  0  0  0  0  0  0
   -6.9000   -8.2250   14.7880 C   0  0  0  0  0  3  0  0  0  0  0  0
   -7.8300   -9.0910   14.3280 N   0  0  0  0  0  0  0  0  0  0  0  0
   -7.4380   -9.9610   13.3740 C   0  0  0  0  0  3  0  0  0  0  0  0
   -6.1640   -9.9930   12.8180 C   0  0  0  0  0  0  0  0  0  0  0  0
   -5.2260   -9.0960   13.3230 C   0  0  0  0  0  3  0  0  0  0  0  0
    0.0390   -7.6510   15.5320 C   0  0  0  0  0  1  0  0  0  0  0  0
   -0.9560   -6.5720   15.7440 C   0  0  0  0  0  0  0  0  0  0  0  0
   -0.5750   -5.3980   16.2600 N   0  0  0  0  0  0  0  0  0  0  0  0
   -1.7060   -4.6740   16.2940 N   0  0  0  0  0  0  0  0  0  0  0  0
   -2.8120   -5.3450   15.8420 C   0  0  0  0  0  0  0  0  0  0  0  0
   -4.1490   -4.9600   15.7240 C   0  0  0  0  0  3  0  0  0  0  0  0
   -5.0440   -5.9100   15.2130 C   0  0  0  0  0  3  0  0  0  0  0  0
   -4.6260   -7.1950   14.8340 C   0  0  0  0  0  0  0  0  0  0  0  0
   -3.2650   -7.5390   14.9570 C   0  0  0  0  0  3  0  0  0  0  0  0
   -2.3500   -6.6010   15.4730 C   0  0  0  0  0  0  0  0  0  0  0  0
   -1.6560   -3.7220   16.6400 H   0  0  0  0  0  0  0  0  0  0  0  0
   -6.7420  -10.7280   10.5770 C   0  0  0  0  0  2  0  0  0  0  0  0
   -5.9800   -9.8160    9.5910 C   0  0  1  0  0  3  0  0  0  0  0  0
   -5.2910  -10.6540    8.5450 N   0  0  0  0  0  4  0  0  0  0  0  0
   -5.9470  -11.1870    7.9610 H   0  0  0  0  0  0  0  0  0  0  0  0
   -4.7010  -10.0800    7.9300 H   0  0  0  0  0  0  0  0  0  0  0  0
   -4.6670  -11.3330    9.0070 H   0  0  0  0  0  0  0  0  0  0  0  0
   -6.8950   -8.8000    8.8910 C   0  0  0  0  0  2  0  0  0  0  0  0
   -6.4070   -7.4010    9.0550 C   0  0  0  0  0  0  0  0  0  0  0  0
   -5.6510   -6.6990    8.1360 C   0  0  0  0  0  3  0  0  0  0  0  0
   -5.4030   -5.4510    8.6450 N   0  0  0  0  0  0  0  0  0  0  0  0
   -5.9770   -5.3260    9.8870 C   0  0  0  0  0  0  0  0  0  0  0  0
   -5.9750   -4.2370   10.7660 C   0  0  0  0  0  3  0  0  0  0  0  0
   -6.6620   -4.3790   11.9730 C   0  0  0  0  0  3  0  0  0  0  0  0
   -7.3260   -5.5610   12.2840 C   0  0  0  0  0  3  0  0  0  0  0  0
   -7.3200   -6.6420   11.3930 C   0  0  0  0  0  3  0  0  0  0  0  0
   -6.6270   -6.5280   10.1690 C   0  0  0  0  0  0  0  0  0  0  0  0
   -4.8820   -4.7180    8.1790 H   0  0  0  0  0  0  0  0  0  0  0  0
  1  6  1  0  0  0  0
  2  3  1  0  0  0  0
  2 15  1  0  0  0  0
  4  3  2  0  0  0  0
  5  4  1  0  0  0  0
  6  7  1  0  0  0  0
  6  5  2  0  0  0  0
  7  2  2  0  0  0  0
  8  9  1  0  0  0  0
  9 10  2  0  0  0  0
 10 11  1  0  0  0  0
 11 18  1  0  0  0  0
 12 11  1  0  0  0  0
 13 12  1  0  0  0  0
 14 13  2  0  0  0  0
 15 16  2  0  0  0  0
 15 14  1  0  0  0  0
 16 17  1  0  0  0  0
 17  9  1  0  0  0  0
 17 12  2  0  0  0  0
 19  1  1  0  0  0  0
 20 25  1  6  0  0  0
 20 19  1  0  0  0  0
 21 24  1  0  0  0  0
 21 20  1  0  0  0  0
 22 21  1  0  0  0  0
 23 21  1  0  0  0  0
 25 26  1  0  0  0  0
 26 34  1  0  0  0  0
 27 28  1  0  0  0  0
 27 26  2  0  0  0  0
 28 29  1  0  0  0  0
 29 34  2  0  0  0  0
 29 30  1  0  0  0  0
 30 31  2  0  0  0  0
 31 32  1  0  0  0  0
 33 32  2  0  0  0  0
 34 33  1  0  0  0  0
 35 28  1  0  0  0  0
M  END
>  <minimizedAffinity>
-4.41623592

$$$$
