
 OpenBabel11232419583D

 35 39  0  0  1  0  0  0  0  0999 V2000
   -5.9110   -5.9100   15.5400 O   0  0  0  0  0  0  0  0  0  0  0  0
   -7.7060   -7.4930   12.6900 C   0  0  0  0  0  0  0  0  0  0  0  0
   -8.7140   -6.5350   12.6130 C   0  0  0  0  0  3  0  0  0  0  0  0
   -8.7810   -5.4460   13.4100 N   0  0  0  0  0  0  0  0  0  0  0  0
   -7.7930   -5.2890   14.3170 C   0  0  0  0  0  3  0  0  0  0  0  0
   -6.7480   -6.1880   14.5010 C   0  0  0  0  0  0  0  0  0  0  0  0
   -6.7030   -7.2940   13.6550 C   0  0  0  0  0  3  0  0  0  0  0  0
  -10.4550   -9.6850    8.1030 C   0  0  0  0  0  1  0  0  0  0  0  0
   -9.3540  -10.3780    8.8160 C   0  0  0  0  0  0  0  0  0  0  0  0
   -8.9550  -11.5910    8.4180 N   0  0  0  0  0  0  0  0  0  0  0  0
   -7.9540  -11.8980    9.2610 N   0  0  0  0  0  0  0  0  0  0  0  0
   -7.7070  -10.9370   10.2070 C   0  0  0  0  0  0  0  0  0  0  0  0
   -6.7780  -10.8740   11.2470 C   0  0  0  0  0  3  0  0  0  0  0  0
   -6.7930   -9.7230   12.0480 C   0  0  0  0  0  3  0  0  0  0  0  0
   -7.6980   -8.6740   11.8230 C   0  0  0  0  0  0  0  0  0  0  0  0
   -8.6110   -8.7720   10.7530 C   0  0  0  0  0  3  0  0  0  0  0  0
   -8.6150   -9.9220    9.9400 C   0  0  0  0  0  0  0  0  0  0  0  0
   -7.4770  -12.7840    9.1380 H   0  0  0  0  0  0  0  0  0  0  0  0
   -4.4950   -5.8480   15.3380 C   0  0  0  0  0  2  0  0  0  0  0  0
   -4.1550   -4.7540   14.3030 C   0  0  1  0  0  3  0  0  0  0  0  0
   -3.0730   -3.8550   14.8430 N   0  0  0  0  0  4  0  0  0  0  0  0
   -2.1870   -4.3480   15.0080 H   0  0  0  0  0  0  0  0  0  0  0  0
   -2.8910   -3.0630   14.2140 H   0  0  0  0  0  0  0  0  0  0  0  0
   -3.3760   -3.4560   15.7440 H   0  0  0  0  0  0  0  0  0  0  0  0
   -3.6970   -5.3300   12.9550 C   0  0  0  0  0  2  0  0  0  0  0  0
   -4.6890   -5.0730   11.8710 C   0  0  0  0  0  0  0  0  0  0  0  0
   -5.4400   -3.9240   11.7220 C   0  0  0  0  0  3  0  0  0  0  0  0
   -6.2300   -4.0650   10.6110 N   0  0  0  0  0  0  0  0  0  0  0  0
   -6.0160   -5.2930   10.0350 C   0  0  0  0  0  0  0  0  0  0  0  0
   -6.6020   -5.8600    8.8970 C   0  0  0  0  0  3  0  0  0  0  0  0
   -6.1800   -7.1360    8.5190 C   0  0  0  0  0  3  0  0  0  0  0  0
   -5.2090   -7.8140    9.2490 C   0  0  0  0  0  3  0  0  0  0  0  0
   -4.6310   -7.2330   10.3850 C   0  0  0  0  0  3  0  0  0  0  0  0
   -5.0440   -5.9470   10.7930 C   0  0  0  0  0  0  0  0  0  0  0  0
   -6.8730   -3.3700   10.2540 H   0  0  0  0  0  0  0  0  0  0  0  0
  2  7  1  0  0  0  0
  3  2  2  0  0  0  0
  3  4  1  0  0  0  0
  4  5  2  0  0  0  0
  5  6  1  0  0  0  0
  6  1  1  0  0  0  0
  7  6  2  0  0  0  0
  8  9  1  0  0  0  0
  9 17  1  0  0  0  0
 10  9  2  0  0  0  0
 10 11  1  0  0  0  0
 11 12  1  0  0  0  0
 12 13  1  0  0  0  0
 13 14  2  0  0  0  0
 15 14  1  0  0  0  0
 15  2  1  0  0  0  0
 16 15  2  0  0  0  0
 17 12  2  0  0  0  0
 17 16  1  0  0  0  0
 18 11  1  0  0  0  0
 19  1  1  0  0  0  0
 20 25  1  6  0  0  0
 20 21  1  0  0  0  0
 20 19  1  0  0  0  0
 21 22  1  0  0  0  0
 21 24  1  0  0  0  0
 23 21  1  0  0  0  0
 26 25  1  0  0  0  0
 27 26  2  0  0  0  0
 28 27  1  0  0  0  0
 29 28  1  0  0  0  0
 29 34  1  0  0  0  0
 30 29  2  0  0  0  0
 31 30  1  0  0  0  0
 31 32  2  0  0  0  0
 32 33  1  0  0  0  0
 33 34  2  0  0  0  0
 34 26  1  0  0  0  0
 35 28  1  0  0  0  0
M  END
>  <minimizedAffinity>
-4.36428785

$$$$
