
 OpenBabel10152418303D

 40 43  0  0  1  0  0  0  0  0999 V2000
   -0.2420  -10.4260  -23.5480 C   0  0  0  0  0  0  0  0  0  0  0  0
   -1.0120  -11.1900  -22.6670 C   0  0  0  0  0  3  0  0  0  0  0  0
   -1.7370  -10.5730  -21.6390 C   0  0  0  0  0  3  0  0  0  0  0  0
   -1.7560   -9.1780  -21.5030 C   0  0  0  0  0  3  0  0  0  0  0  0
   -1.0060   -8.3960  -22.3700 C   0  0  0  0  0  0  0  0  0  0  0  0
   -0.2180   -9.0360  -23.3320 C   0  0  0  0  0  3  0  0  0  0  0  0
   -1.0510   -6.9940  -22.4650 N   0  0  0  0  0  0  0  0  0  0  0  0
   -0.6260   -6.1050  -23.4140 C   0  0  0  0  0  0  0  0  0  0  0  0
   -0.4170   -4.9320  -23.1050 O   0  0  0  0  0  0  0  0  0  0  0  0
   -1.3630   -6.5030  -21.6350 H   0  0  0  0  0  0  0  0  0  0  0  0
   -0.4830   -6.4710  -24.8250 C   0  0  0  0  0  0  0  0  0  0  0  0
    0.3670   -5.7060  -25.6330 C   0  0  0  0  0  3  0  0  0  0  0  0
    0.4380   -5.9500  -27.0140 C   0  0  0  0  0  0  0  0  0  0  0  0
   -0.3720   -6.9560  -27.5680 C   0  0  0  0  0  3  0  0  0  0  0  0
   -1.2340   -7.7020  -26.7590 C   0  0  0  0  0  3  0  0  0  0  0  0
   -1.2940   -7.4510  -25.3920 C   0  0  0  0  0  0  0  0  0  0  0  0
   -2.1710   -8.1410  -24.6500 F   0  0  0  0  0  0  0  0  0  0  0  0
    1.3390   -5.1020  -27.8820 C   0  0  0  0  0  0  0  0  0  0  0  0
    1.4730   -5.6030  -29.1380 F   0  0  0  0  0  0  0  0  0  0  0  0
    0.8740   -3.8310  -28.0270 F   0  0  0  0  0  0  0  0  0  0  0  0
    2.6020   -4.9810  -27.3860 F   0  0  0  0  0  0  0  0  0  0  0  0
   -0.2070  -10.8420  -26.0780 C   0  0  0  0  0  1  0  0  0  0  0  0
    0.5330  -10.9900  -24.7380 C   0  0  1  0  0  3  0  0  0  0  0  0
    1.8540  -10.3690  -24.9000 N   0  0  0  0  0  0  0  0  0  0  0  0
    2.4400  -10.4460  -24.0730 H   0  0  0  0  0  0  0  0  0  0  0  0
    2.6840  -10.5280  -25.9930 C   0  0  0  0  0  0  0  0  0  0  0  0
    2.7350  -11.8070  -26.3970 N   0  0  0  0  0  0  0  0  0  0  0  0
    3.3270  -12.0380  -27.5650 C   0  0  0  0  0  3  0  0  0  0  0  0
    3.8350  -11.1130  -28.3830 N   0  0  0  0  0  0  0  0  0  0  0  0
    3.8550   -9.8330  -27.9530 C   0  0  0  0  0  0  0  0  0  0  0  0
    4.3540   -8.7840  -28.7530 C   0  0  0  0  0  0  0  0  0  0  0  0
    4.4350   -7.4650  -28.2660 C   0  0  0  0  0  3  0  0  0  0  0  0
    4.0480   -7.1690  -26.9700 C   0  0  0  0  0  3  0  0  0  0  0  0
    3.5220   -8.1810  -26.1790 C   0  0  0  0  0  3  0  0  0  0  0  0
    3.3540   -9.4990  -26.6790 C   0  0  0  0  0  0  0  0  0  0  0  0
    4.7870   -8.9730  -30.1720 C   0  0  0  0  0  0  0  0  0  0  0  0
    4.9370  -10.2440  -30.6410 N   0  0  0  0  0  0  0  0  0  0  0  0
    4.9740   -8.0150  -30.9170 O   0  0  0  0  0  0  0  0  0  0  0  0
    5.1870  -10.3830  -31.6080 H   0  0  0  0  0  0  0  0  0  0  0  0
    4.8230  -11.0460  -30.0270 H   0  0  0  0  0  0  0  0  0  0  0  0
  1  6  2  0  0  0  0
  1  2  1  0  0  0  0
  2  3  2  0  0  0  0
  3  4  1  0  0  0  0
  5  4  2  0  0  0  0
  6  5  1  0  0  0  0
  7  5  1  0  0  0  0
  7 10  1  0  0  0  0
  8  9  2  0  0  0  0
  8  7  1  0  0  0  0
 11  8  1  0  0  0  0
 12 11  2  0  0  0  0
 13 12  1  0  0  0  0
 14 13  2  0  0  0  0
 14 15  1  0  0  0  0
 15 16  2  0  0  0  0
 16 11  1  0  0  0  0
 16 17  1  0  0  0  0
 18 21  1  0  0  0  0
 18 13  1  0  0  0  0
 19 18  1  0  0  0  0
 20 18  1  0  0  0  0
 23 22  1  6  0  0  0
 23  1  1  0  0  0  0
 24 23  1  0  0  0  0
 24 25  1  0  0  0  0
 26 24  1  0  0  0  0
 27 26  1  0  0  0  0
 28 27  2  0  0  0  0
 29 30  2  0  0  0  0
 29 28  1  0  0  0  0
 30 35  1  0  0  0  0
 31 32  2  0  0  0  0
 31 30  1  0  0  0  0
 32 33  1  0  0  0  0
 33 34  2  0  0  0  0
 35 34  1  0  0  0  0
 35 26  2  0  0  0  0
 36 31  1  0  0  0  0
 37 36  1  0  0  0  0
 37 40  1  0  0  0  0
 38 36  2  0  0  0  0
 39 37  1  0  0  0  0
M  END
>  <minimizedAffinity>
-9.18132782

$$$$
