
 OpenBabel10152418303D

 40 43  0  0  1  0  0  0  0  0999 V2000
    3.7130   -9.3440  -27.7330 C   0  0  0  0  0  0  0  0  0  0  0  0
    4.2430   -8.9230  -26.5100 C   0  0  0  0  0  3  0  0  0  0  0  0
    4.2260   -7.5660  -26.1580 C   0  0  0  0  0  3  0  0  0  0  0  0
    3.6280   -6.6110  -26.9900 C   0  0  0  0  0  3  0  0  0  0  0  0
    3.0860   -7.0040  -28.2060 C   0  0  0  0  0  0  0  0  0  0  0  0
    3.1940   -8.3470  -28.5790 C   0  0  0  0  0  3  0  0  0  0  0  0
    2.3150   -6.2020  -29.0640 N   0  0  0  0  0  0  0  0  0  0  0  0
    1.1010   -5.5860  -28.9320 C   0  0  0  0  0  0  0  0  0  0  0  0
    0.4590   -5.2760  -29.9350 O   0  0  0  0  0  0  0  0  0  0  0  0
    2.6480   -6.1260  -30.0190 H   0  0  0  0  0  0  0  0  0  0  0  0
    0.5550   -5.1980  -27.6300 C   0  0  0  0  0  0  0  0  0  0  0  0
    0.2690   -6.2030  -26.6960 C   0  0  0  0  0  3  0  0  0  0  0  0
   -0.3660   -5.8820  -25.4860 C   0  0  0  0  0  0  0  0  0  0  0  0
   -0.7270   -4.5460  -25.2410 C   0  0  0  0  0  3  0  0  0  0  0  0
   -0.4580   -3.5520  -26.1860 C   0  0  0  0  0  3  0  0  0  0  0  0
    0.1740   -3.8830  -27.3810 C   0  0  0  0  0  0  0  0  0  0  0  0
    0.3670   -2.9200  -28.2930 F   0  0  0  0  0  0  0  0  0  0  0  0
   -0.6930   -6.9770  -24.4960 C   0  0  0  0  0  0  0  0  0  0  0  0
    0.1940   -8.0050  -24.5470 F   0  0  0  0  0  0  0  0  0  0  0  0
   -0.6860   -6.5320  -23.2090 F   0  0  0  0  0  0  0  0  0  0  0  0
   -1.9230   -7.5270  -24.6920 F   0  0  0  0  0  0  0  0  0  0  0  0
    4.7760  -11.6760  -27.6660 C   0  0  0  0  0  1  0  0  0  0  0  0
    3.6240  -10.8010  -28.1850 C   0  0  1  0  0  3  0  0  0  0  0  0
    2.3690  -11.4450  -27.7780 N   0  0  0  0  0  0  0  0  0  0  0  0
    2.1790  -12.3120  -28.2760 H   0  0  0  0  0  0  0  0  0  0  0  0
    1.9540  -11.6370  -26.4740 C   0  0  0  0  0  0  0  0  0  0  0  0
    2.9630  -12.0350  -25.6850 N   0  0  0  0  0  0  0  0  0  0  0  0
    2.7290  -12.0390  -24.3760 C   0  0  0  0  0  3  0  0  0  0  0  0
    1.5990  -11.6460  -23.7810 N   0  0  0  0  0  0  0  0  0  0  0  0
    0.5540  -11.3140  -24.5690 C   0  0  0  0  0  0  0  0  0  0  0  0
   -0.6730  -10.8690  -24.0340 C   0  0  0  0  0  0  0  0  0  0  0  0
   -1.7780  -10.5950  -24.8620 C   0  0  0  0  0  3  0  0  0  0  0  0
   -1.6940  -10.7810  -26.2310 C   0  0  0  0  0  3  0  0  0  0  0  0
   -0.4840  -11.1850  -26.7810 C   0  0  0  0  0  3  0  0  0  0  0  0
    0.6640  -11.3860  -25.9710 C   0  0  0  0  0  0  0  0  0  0  0  0
   -0.8830  -10.6140  -22.5740 C   0  0  0  0  0  0  0  0  0  0  0  0
   -0.8300  -11.6700  -21.7160 N   0  0  0  0  0  0  0  0  0  0  0  0
   -1.0690   -9.4780  -22.1440 O   0  0  0  0  0  0  0  0  0  0  0  0
   -0.9280  -11.5030  -20.7260 H   0  0  0  0  0  0  0  0  0  0  0  0
   -0.7150  -12.6200  -22.0600 H   0  0  0  0  0  0  0  0  0  0  0  0
  1  2  1  0  0  0  0
  2  3  2  0  0  0  0
  4  3  1  0  0  0  0
  5  4  2  0  0  0  0
  6  5  1  0  0  0  0
  6  1  2  0  0  0  0
  7  8  1  0  0  0  0
  7  5  1  0  0  0  0
  8 11  1  0  0  0  0
  9  8  2  0  0  0  0
 10  7  1  0  0  0  0
 11 16  2  0  0  0  0
 11 12  1  0  0  0  0
 12 13  2  0  0  0  0
 13 14  1  0  0  0  0
 13 18  1  0  0  0  0
 15 14  2  0  0  0  0
 16 15  1  0  0  0  0
 17 16  1  0  0  0  0
 18 20  1  0  0  0  0
 19 18  1  0  0  0  0
 21 18  1  0  0  0  0
 23 24  1  0  0  0  0
 23  1  1  0  0  0  0
 23 22  1  1  0  0  0
 24 26  1  0  0  0  0
 25 24  1  0  0  0  0
 26 35  2  0  0  0  0
 26 27  1  0  0  0  0
 27 28  2  0  0  0  0
 28 29  1  0  0  0  0
 30 31  1  0  0  0  0
 30 29  2  0  0  0  0
 31 36  1  0  0  0  0
 32 31  2  0  0  0  0
 33 32  1  0  0  0  0
 34 33  2  0  0  0  0
 34 35  1  0  0  0  0
 35 30  1  0  0  0  0
 36 38  2  0  0  0  0
 36 37  1  0  0  0  0
 37 39  1  0  0  0  0
 40 37  1  0  0  0  0
M  END
>  <minimizedAffinity>
-7.82730103

$$$$
