
 OpenBabel10152418303D

 40 43  0  0  1  0  0  0  0  0999 V2000
    0.3830   -6.2320  -27.3490 C   0  0  0  0  0  0  0  0  0  0  0  0
   -0.0950   -7.4920  -27.7170 C   0  0  0  0  0  3  0  0  0  0  0  0
   -0.6900   -8.3320  -26.7660 C   0  0  0  0  0  3  0  0  0  0  0  0
   -0.8730   -7.9100  -25.4430 C   0  0  0  0  0  3  0  0  0  0  0  0
   -0.4150   -6.6600  -25.0530 C   0  0  0  0  0  0  0  0  0  0  0  0
    0.2570   -5.8730  -25.9940 C   0  0  0  0  0  3  0  0  0  0  0  0
   -0.6680   -6.0360  -23.8190 N   0  0  0  0  0  0  0  0  0  0  0  0
   -1.2410   -6.4630  -22.6530 C   0  0  0  0  0  0  0  0  0  0  0  0
   -1.7080   -5.6420  -21.8630 O   0  0  0  0  0  0  0  0  0  0  0  0
   -0.4970   -5.0360  -23.7840 H   0  0  0  0  0  0  0  0  0  0  0  0
   -1.2550   -7.8710  -22.2550 C   0  0  0  0  0  0  0  0  0  0  0  0
   -0.6630   -8.8140  -23.1060 C   0  0  0  0  0  3  0  0  0  0  0  0
   -0.7610  -10.1850  -22.8180 C   0  0  0  0  0  0  0  0  0  0  0  0
   -1.4790  -10.5900  -21.6800 C   0  0  0  0  0  3  0  0  0  0  0  0
   -2.0850   -9.6450  -20.8470 C   0  0  0  0  0  3  0  0  0  0  0  0
   -1.9790   -8.2900  -21.1430 C   0  0  0  0  0  0  0  0  0  0  0  0
   -2.6190   -7.4100  -20.3600 F   0  0  0  0  0  0  0  0  0  0  0  0
   -0.1410  -11.1960  -23.7560 C   0  0  0  0  0  0  0  0  0  0  0  0
   -1.0690  -11.9870  -24.3550 F   0  0  0  0  0  0  0  0  0  0  0  0
    0.5630  -10.6070  -24.7610 F   0  0  0  0  0  0  0  0  0  0  0  0
    0.7310  -12.0390  -23.1350 F   0  0  0  0  0  0  0  0  0  0  0  0
    0.8300   -3.7580  -27.8530 C   0  0  0  0  0  1  0  0  0  0  0  0
    0.9890   -5.2150  -28.3160 C   0  0  1  0  0  3  0  0  0  0  0  0
    2.4200   -5.4430  -28.5550 N   0  0  0  0  0  0  0  0  0  0  0  0
    3.0090   -4.6730  -28.2460 H   0  0  0  0  0  0  0  0  0  0  0  0
    3.1040   -6.6080  -28.2670 C   0  0  0  0  0  0  0  0  0  0  0  0
    3.1500   -6.8440  -26.9470 N   0  0  0  0  0  0  0  0  0  0  0  0
    3.5910   -8.0420  -26.5720 C   0  0  0  0  0  3  0  0  0  0  0  0
    3.9500   -9.0350  -27.3890 N   0  0  0  0  0  0  0  0  0  0  0  0
    3.9790   -8.7830  -28.7150 C   0  0  0  0  0  0  0  0  0  0  0  0
    4.3260   -9.7730  -29.6570 C   0  0  0  0  0  0  0  0  0  0  0  0
    4.4210   -9.4790  -31.0310 C   0  0  0  0  0  3  0  0  0  0  0  0
    4.1970   -8.1920  -31.4910 C   0  0  0  0  0  3  0  0  0  0  0  0
    3.8190   -7.2110  -30.5840 C   0  0  0  0  0  3  0  0  0  0  0  0
    3.6380   -7.5080  -29.2080 C   0  0  0  0  0  0  0  0  0  0  0  0
    4.5750  -11.2020  -29.2860 C   0  0  0  0  0  0  0  0  0  0  0  0
    4.4040  -11.5740  -27.9870 N   0  0  0  0  0  0  0  0  0  0  0  0
    4.8960  -12.0340  -30.1300 O   0  0  0  0  0  0  0  0  0  0  0  0
    4.5270  -12.5440  -27.7350 H   0  0  0  0  0  0  0  0  0  0  0  0
    4.1760  -10.8900  -27.2710 H   0  0  0  0  0  0  0  0  0  0  0  0
  1  6  1  0  0  0  0
  2  1  2  0  0  0  0
  2  3  1  0  0  0  0
  3  4  2  0  0  0  0
  4  5  1  0  0  0  0
  5  7  1  0  0  0  0
  6  5  2  0  0  0  0
  7 10  1  0  0  0  0
  7  8  1  0  0  0  0
  8 11  1  0  0  0  0
  8  9  2  0  0  0  0
 11 16  1  0  0  0  0
 12 13  1  0  0  0  0
 12 11  2  0  0  0  0
 13 14  2  0  0  0  0
 14 15  1  0  0  0  0
 16 15  2  0  0  0  0
 16 17  1  0  0  0  0
 18 21  1  0  0  0  0
 18 13  1  0  0  0  0
 19 18  1  0  0  0  0
 20 18  1  0  0  0  0
 23 22  1  1  0  0  0
 23  1  1  0  0  0  0
 24 23  1  0  0  0  0
 24 26  1  0  0  0  0
 24 25  1  0  0  0  0
 26 27  1  0  0  0  0
 27 28  2  0  0  0  0
 29 28  1  0  0  0  0
 30 29  2  0  0  0  0
 31 36  1  0  0  0  0
 31 30  1  0  0  0  0
 32 31  2  0  0  0  0
 33 32  1  0  0  0  0
 33 34  2  0  0  0  0
 34 35  1  0  0  0  0
 35 30  1  0  0  0  0
 35 26  2  0  0  0  0
 36 37  1  0  0  0  0
 37 39  1  0  0  0  0
 37 40  1  0  0  0  0
 38 36  2  0  0  0  0
M  END
>  <minimizedAffinity>
-8.74680328

$$$$
