
 OpenBabel10152418303D

 40 43  0  0  1  0  0  0  0  0999 V2000
    3.4150   -9.6590  -27.7850 C   0  0  0  0  0  0  0  0  0  0  0  0
    3.7580  -10.1650  -29.0420 C   0  0  0  0  0  3  0  0  0  0  0  0
    3.7810   -9.3260  -30.1640 C   0  0  0  0  0  3  0  0  0  0  0  0
    3.5190   -7.9550  -30.0460 C   0  0  0  0  0  3  0  0  0  0  0  0
    3.1830   -7.4250  -28.8080 C   0  0  0  0  0  0  0  0  0  0  0  0
    3.0780   -8.2950  -27.7180 C   0  0  0  0  0  3  0  0  0  0  0  0
    3.0570   -6.0590  -28.5020 N   0  0  0  0  0  0  0  0  0  0  0  0
    1.9950   -5.2720  -28.1510 C   0  0  0  0  0  0  0  0  0  0  0  0
    2.0530   -4.0540  -28.3180 O   0  0  0  0  0  0  0  0  0  0  0  0
    3.8810   -5.4900  -28.6610 H   0  0  0  0  0  0  0  0  0  0  0  0
    0.8000   -5.8110  -27.4980 C   0  0  0  0  0  0  0  0  0  0  0  0
    0.5690   -7.1920  -27.5560 C   0  0  0  0  0  3  0  0  0  0  0  0
   -0.6240   -7.7310  -27.0480 C   0  0  0  0  0  0  0  0  0  0  0  0
   -1.5840   -6.8610  -26.5050 C   0  0  0  0  0  3  0  0  0  0  0  0
   -1.3570   -5.4820  -26.4700 C   0  0  0  0  0  3  0  0  0  0  0  0
   -0.1700   -4.9620  -26.9750 C   0  0  0  0  0  0  0  0  0  0  0  0
   -0.0040   -3.6320  -26.9810 F   0  0  0  0  0  0  0  0  0  0  0  0
   -0.8740   -9.2190  -27.1390 C   0  0  0  0  0  0  0  0  0  0  0  0
   -1.5720   -9.6940  -26.0740 F   0  0  0  0  0  0  0  0  0  0  0  0
   -1.5910   -9.5580  -28.2460 F   0  0  0  0  0  0  0  0  0  0  0  0
    0.2720   -9.9530  -27.1980 F   0  0  0  0  0  0  0  0  0  0  0  0
    4.8140  -10.9880  -26.0970 C   0  0  0  0  0  1  0  0  0  0  0  0
    3.4210  -10.4700  -26.4900 C   0  0  1  0  0  3  0  0  0  0  0  0
    2.8980   -9.7140  -25.3450 N   0  0  0  0  0  0  0  0  0  0  0  0
    3.0150   -8.7080  -25.4370 H   0  0  0  0  0  0  0  0  0  0  0  0
    1.6710   -9.9190  -24.7440 C   0  0  0  0  0  0  0  0  0  0  0  0
    1.3570  -11.2220  -24.6870 N   0  0  0  0  0  0  0  0  0  0  0  0
    0.3070  -11.5490  -23.9380 C   0  0  0  0  0  3  0  0  0  0  0  0
   -0.4300  -10.7040  -23.2120 N   0  0  0  0  0  0  0  0  0  0  0  0
   -0.1690   -9.3840  -23.3200 C   0  0  0  0  0  0  0  0  0  0  0  0
   -0.8810   -8.4180  -22.5790 C   0  0  0  0  0  0  0  0  0  0  0  0
   -0.6470   -7.0400  -22.7540 C   0  0  0  0  0  3  0  0  0  0  0  0
    0.2780   -6.5970  -23.6840 C   0  0  0  0  0  3  0  0  0  0  0  0
    1.0140   -7.5330  -24.3990 C   0  0  0  0  0  3  0  0  0  0  0  0
    0.8520   -8.9260  -24.1770 C   0  0  0  0  0  0  0  0  0  0  0  0
   -1.8910   -8.7720  -21.5340 C   0  0  0  0  0  0  0  0  0  0  0  0
   -1.6280   -9.8210  -20.7060 N   0  0  0  0  0  0  0  0  0  0  0  0
   -2.9230   -8.1200  -21.3960 O   0  0  0  0  0  0  0  0  0  0  0  0
   -2.2830  -10.0410  -19.9710 H   0  0  0  0  0  0  0  0  0  0  0  0
   -0.7990  -10.3930  -20.8320 H   0  0  0  0  0  0  0  0  0  0  0  0
  1  6  1  0  0  0  0
  1 23  1  0  0  0  0
  2  1  2  0  0  0  0
  3  4  2  0  0  0  0
  3  2  1  0  0  0  0
  4  5  1  0  0  0  0
  5  7  1  0  0  0  0
  5  6  2  0  0  0  0
  7  8  1  0  0  0  0
  8 11  1  0  0  0  0
  9  8  2  0  0  0  0
 10  7  1  0  0  0  0
 11 16  1  0  0  0  0
 12 11  2  0  0  0  0
 12 13  1  0  0  0  0
 13 14  2  0  0  0  0
 14 15  1  0  0  0  0
 16 15  2  0  0  0  0
 17 16  1  0  0  0  0
 18 13  1  0  0  0  0
 18 19  1  0  0  0  0
 20 18  1  0  0  0  0
 21 18  1  0  0  0  0
 23 22  1  1  0  0  0
 23 24  1  0  0  0  0
 24 26  1  0  0  0  0
 25 24  1  0  0  0  0
 26 27  2  0  0  0  0
 26 35  1  0  0  0  0
 27 28  1  0  0  0  0
 28 29  2  0  0  0  0
 30 29  1  0  0  0  0
 30 31  1  0  0  0  0
 31 36  1  0  0  0  0
 32 31  2  0  0  0  0
 33 32  1  0  0  0  0
 34 35  1  0  0  0  0
 34 33  2  0  0  0  0
 35 30  2  0  0  0  0
 36 38  2  0  0  0  0
 36 37  1  0  0  0  0
 37 39  1  0  0  0  0
 40 37  1  0  0  0  0
M  END
>  <minimizedAffinity>
-6.43793583

$$$$
