
 OpenBabel10152418303D

 40 43  0  0  1  0  0  0  0  0999 V2000
    3.7690   -9.6240  -27.6930 C   0  0  0  0  0  0  0  0  0  0  0  0
    4.2400   -9.2410  -26.4340 C   0  0  0  0  0  3  0  0  0  0  0  0
    4.2130   -7.8950  -26.0440 C   0  0  0  0  0  3  0  0  0  0  0  0
    3.6620   -6.9130  -26.8780 C   0  0  0  0  0  3  0  0  0  0  0  0
    3.1800   -7.2670  -28.1300 C   0  0  0  0  0  0  0  0  0  0  0  0
    3.2990   -8.6010  -28.5350 C   0  0  0  0  0  3  0  0  0  0  0  0
    2.4570   -6.4360  -29.0020 N   0  0  0  0  0  0  0  0  0  0  0  0
    1.1740   -5.9610  -28.9960 C   0  0  0  0  0  0  0  0  0  0  0  0
    0.6550   -5.5840  -30.0470 O   0  0  0  0  0  0  0  0  0  0  0  0
    2.9150   -6.2040  -29.8760 H   0  0  0  0  0  0  0  0  0  0  0  0
    0.4020   -5.8010  -27.7620 C   0  0  0  0  0  0  0  0  0  0  0  0
   -0.0280   -4.5170  -27.4020 C   0  0  0  0  0  3  0  0  0  0  0  0
   -0.6660   -4.3060  -26.1680 C   0  0  0  0  0  0  0  0  0  0  0  0
   -0.8420   -5.3970  -25.3000 C   0  0  0  0  0  3  0  0  0  0  0  0
   -0.3920   -6.6710  -25.6570 C   0  0  0  0  0  3  0  0  0  0  0  0
    0.2370   -6.8670  -26.8830 C   0  0  0  0  0  0  0  0  0  0  0  0
    0.7100   -8.0870  -27.1740 F   0  0  0  0  0  0  0  0  0  0  0  0
   -1.1030   -2.9130  -25.7780 C   0  0  0  0  0  0  0  0  0  0  0  0
   -2.3650   -2.6290  -26.1940 F   0  0  0  0  0  0  0  0  0  0  0  0
   -1.0960   -2.7270  -24.4290 F   0  0  0  0  0  0  0  0  0  0  0  0
   -0.3060   -1.9370  -26.2920 F   0  0  0  0  0  0  0  0  0  0  0  0
    4.9290  -11.9060  -27.8260 C   0  0  0  0  0  1  0  0  0  0  0  0
    3.6950  -11.0670  -28.1900 C   0  0  1  0  0  3  0  0  0  0  0  0
    2.5170  -11.7820  -27.6820 N   0  0  0  0  0  0  0  0  0  0  0  0
    2.4890  -12.7610  -27.9560 H   0  0  0  0  0  0  0  0  0  0  0  0
    2.0360  -11.7160  -26.3890 C   0  0  0  0  0  0  0  0  0  0  0  0
    2.9800  -12.0390  -25.4910 N   0  0  0  0  0  0  0  0  0  0  0  0
    2.6940  -11.8000  -24.2140 C   0  0  0  0  0  3  0  0  0  0  0  0
    1.5750  -11.2330  -23.7560 N   0  0  0  0  0  0  0  0  0  0  0  0
    0.5900  -10.9730  -24.6420 C   0  0  0  0  0  0  0  0  0  0  0  0
   -0.6200  -10.3590  -24.2560 C   0  0  0  0  0  0  0  0  0  0  0  0
   -1.6670  -10.1580  -25.1750 C   0  0  0  0  0  3  0  0  0  0  0  0
   -1.5420  -10.5840  -26.4870 C   0  0  0  0  0  3  0  0  0  0  0  0
   -0.3460  -11.1580  -26.8950 C   0  0  0  0  0  3  0  0  0  0  0  0
    0.7500  -11.2940  -26.0040 C   0  0  0  0  0  0  0  0  0  0  0  0
   -0.8680   -9.8410  -22.8740 C   0  0  0  0  0  0  0  0  0  0  0  0
   -0.5970   -8.5320  -22.6130 N   0  0  0  0  0  0  0  0  0  0  0  0
   -1.3350  -10.5610  -21.9960 O   0  0  0  0  0  0  0  0  0  0  0  0
   -0.8010   -8.1620  -21.6970 H   0  0  0  0  0  0  0  0  0  0  0  0
   -0.1750   -7.9330  -23.3180 H   0  0  0  0  0  0  0  0  0  0  0  0
  1  2  1  0  0  0  0
  2  3  2  0  0  0  0
  4  3  1  0  0  0  0
  5  4  2  0  0  0  0
  6  5  1  0  0  0  0
  6  1  2  0  0  0  0
  7  8  1  0  0  0  0
  7  5  1  0  0  0  0
  8 11  1  0  0  0  0
  9  8  2  0  0  0  0
 10  7  1  0  0  0  0
 11 12  2  0  0  0  0
 11 16  1  0  0  0  0
 12 13  1  0  0  0  0
 13 18  1  0  0  0  0
 13 14  2  0  0  0  0
 15 14  1  0  0  0  0
 16 15  2  0  0  0  0
 17 16  1  0  0  0  0
 18 20  1  0  0  0  0
 19 18  1  0  0  0  0
 21 18  1  0  0  0  0
 23 22  1  1  0  0  0
 23  1  1  0  0  0  0
 23 24  1  0  0  0  0
 24 26  1  0  0  0  0
 25 24  1  0  0  0  0
 26 35  2  0  0  0  0
 26 27  1  0  0  0  0
 27 28  2  0  0  0  0
 28 29  1  0  0  0  0
 30 31  1  0  0  0  0
 30 29  2  0  0  0  0
 31 36  1  0  0  0  0
 32 31  2  0  0  0  0
 33 32  1  0  0  0  0
 34 33  2  0  0  0  0
 34 35  1  0  0  0  0
 35 30  1  0  0  0  0
 36 37  1  0  0  0  0
 36 38  2  0  0  0  0
 37 39  1  0  0  0  0
 40 37  1  0  0  0  0
M  END
>  <minimizedAffinity>
-8.03779602

$$$$
