
 OpenBabel10152418303D

 40 43  0  0  1  0  0  0  0  0999 V2000
   -1.4250   -7.8030  -23.0530 C   0  0  0  0  0  0  0  0  0  0  0  0
   -1.3560   -6.4990  -22.5570 C   0  0  0  0  0  3  0  0  0  0  0  0
   -0.3400   -5.6310  -22.9800 C   0  0  0  0  0  3  0  0  0  0  0  0
    0.5920   -6.0260  -23.9490 C   0  0  0  0  0  3  0  0  0  0  0  0
    0.5400   -7.3140  -24.4640 C   0  0  0  0  0  0  0  0  0  0  0  0
   -0.4250   -8.1930  -23.9620 C   0  0  0  0  0  3  0  0  0  0  0  0
    1.2910   -7.8000  -25.5470 N   0  0  0  0  0  0  0  0  0  0  0  0
    1.4370   -7.3920  -26.8450 C   0  0  0  0  0  0  0  0  0  0  0  0
    1.8270   -8.1900  -27.6980 O   0  0  0  0  0  0  0  0  0  0  0  0
    1.7520   -8.6920  -25.4030 H   0  0  0  0  0  0  0  0  0  0  0  0
    1.2240   -6.0050  -27.2600 C   0  0  0  0  0  0  0  0  0  0  0  0
    0.3370   -5.2120  -26.5200 C   0  0  0  0  0  3  0  0  0  0  0  0
    0.0140   -3.9160  -26.9560 C   0  0  0  0  0  0  0  0  0  0  0  0
    0.5790   -3.4430  -28.1530 C   0  0  0  0  0  3  0  0  0  0  0  0
    1.4460   -4.2470  -28.8980 C   0  0  0  0  0  3  0  0  0  0  0  0
    1.7590   -5.5280  -28.4530 C   0  0  0  0  0  0  0  0  0  0  0  0
    2.5470   -6.2980  -29.2170 F   0  0  0  0  0  0  0  0  0  0  0  0
   -0.9630   -3.0790  -26.1640 C   0  0  0  0  0  0  0  0  0  0  0  0
   -2.2220   -3.1310  -26.6720 F   0  0  0  0  0  0  0  0  0  0  0  0
   -1.0590   -3.4810  -24.8670 F   0  0  0  0  0  0  0  0  0  0  0  0
   -0.6270   -1.7600  -26.1210 F   0  0  0  0  0  0  0  0  0  0  0  0
   -3.8550   -8.5300  -23.4230 C   0  0  0  0  0  1  0  0  0  0  0  0
   -2.5240   -8.8070  -22.7080 C   0  0  1  0  0  3  0  0  0  0  0  0
   -2.1440  -10.1920  -23.0160 N   0  0  0  0  0  0  0  0  0  0  0  0
   -2.8850  -10.8640  -22.8330 H   0  0  0  0  0  0  0  0  0  0  0  0
   -1.5030  -10.6090  -24.1660 C   0  0  0  0  0  0  0  0  0  0  0  0
   -2.2350  -10.3580  -25.2620 N   0  0  0  0  0  0  0  0  0  0  0  0
   -1.6260  -10.5170  -26.4340 C   0  0  0  0  0  3  0  0  0  0  0  0
   -0.3480  -10.8640  -26.6120 N   0  0  0  0  0  0  0  0  0  0  0  0
    0.3760  -11.1900  -25.5190 C   0  0  0  0  0  0  0  0  0  0  0  0
    1.7360  -11.5500  -25.6050 C   0  0  0  0  0  0  0  0  0  0  0  0
    2.4610  -11.9570  -24.4680 C   0  0  0  0  0  3  0  0  0  0  0  0
    1.8410  -12.0380  -23.2320 C   0  0  0  0  0  3  0  0  0  0  0  0
    0.5120  -11.6550  -23.1210 C   0  0  0  0  0  3  0  0  0  0  0  0
   -0.2120  -11.1630  -24.2390 C   0  0  0  0  0  0  0  0  0  0  0  0
    2.5200  -11.4860  -26.8780 C   0  0  0  0  0  0  0  0  0  0  0  0
    1.9800  -12.0390  -28.0000 N   0  0  0  0  0  0  0  0  0  0  0  0
    3.6110  -10.9250  -26.9300 O   0  0  0  0  0  0  0  0  0  0  0  0
    2.4810  -11.9640  -28.8730 H   0  0  0  0  0  0  0  0  0  0  0  0
    1.0970  -12.5400  -27.9650 H   0  0  0  0  0  0  0  0  0  0  0  0
  1 23  1  0  0  0  0
  1  2  1  0  0  0  0
  3  2  2  0  0  0  0
  4  3  1  0  0  0  0
  5  6  1  0  0  0  0
  5  4  2  0  0  0  0
  6  1  2  0  0  0  0
  7 10  1  0  0  0  0
  7  5  1  0  0  0  0
  8  7  1  0  0  0  0
  9  8  2  0  0  0  0
 11  8  1  0  0  0  0
 11 12  1  0  0  0  0
 13 12  2  0  0  0  0
 13 18  1  0  0  0  0
 14 13  1  0  0  0  0
 15 16  1  0  0  0  0
 15 14  2  0  0  0  0
 16 11  2  0  0  0  0
 17 16  1  0  0  0  0
 18 21  1  0  0  0  0
 18 20  1  0  0  0  0
 19 18  1  0  0  0  0
 23 22  1  6  0  0  0
 24 25  1  0  0  0  0
 24 23  1  0  0  0  0
 26 24  1  0  0  0  0
 27 26  2  0  0  0  0
 28 27  1  0  0  0  0
 29 28  2  0  0  0  0
 29 30  1  0  0  0  0
 30 35  1  0  0  0  0
 31 30  2  0  0  0  0
 31 32  1  0  0  0  0
 32 33  2  0  0  0  0
 33 34  1  0  0  0  0
 35 26  1  0  0  0  0
 35 34  2  0  0  0  0
 36 31  1  0  0  0  0
 37 40  1  0  0  0  0
 37 36  1  0  0  0  0
 38 36  2  0  0  0  0
 39 37  1  0  0  0  0
M  END
>  <minimizedAffinity>
-6.75206661

$$$$
