
 OpenBabel10152418303D

 40 43  0  0  1  0  0  0  0  0999 V2000
   -0.2420  -10.4260  -23.5480 C   0  0  0  0  0  0  0  0  0  0  0  0
   -1.0120  -11.1900  -22.6670 C   0  0  0  0  0  3  0  0  0  0  0  0
   -1.7370  -10.5730  -21.6390 C   0  0  0  0  0  3  0  0  0  0  0  0
   -1.7560   -9.1780  -21.5030 C   0  0  0  0  0  3  0  0  0  0  0  0
   -1.0060   -8.3960  -22.3700 C   0  0  0  0  0  0  0  0  0  0  0  0
   -0.2180   -9.0360  -23.3320 C   0  0  0  0  0  3  0  0  0  0  0  0
   -1.0510   -6.9940  -22.4650 N   0  0  0  0  0  0  0  0  0  0  0  0
   -0.6260   -6.1050  -23.4140 C   0  0  0  0  0  0  0  0  0  0  0  0
   -0.4170   -4.9320  -23.1050 O   0  0  0  0  0  0  0  0  0  0  0  0
   -1.3630   -6.5030  -21.6350 H   0  0  0  0  0  0  0  0  0  0  0  0
   -0.4830   -6.4710  -24.8250 C   0  0  0  0  0  0  0  0  0  0  0  0
    0.3670   -5.7060  -25.6330 C   0  0  0  0  0  3  0  0  0  0  0  0
    0.4380   -5.9500  -27.0140 C   0  0  0  0  0  0  0  0  0  0  0  0
   -0.3720   -6.9560  -27.5680 C   0  0  0  0  0  3  0  0  0  0  0  0
   -1.2340   -7.7020  -26.7590 C   0  0  0  0  0  3  0  0  0  0  0  0
   -1.2940   -7.4510  -25.3920 C   0  0  0  0  0  0  0  0  0  0  0  0
   -2.1710   -8.1410  -24.6500 F   0  0  0  0  0  0  0  0  0  0  0  0
    1.3390   -5.1020  -27.8820 C   0  0  0  0  0  0  0  0  0  0  0  0
    1.4730   -5.6030  -29.1380 F   0  0  0  0  0  0  0  0  0  0  0  0
    0.8740   -3.8310  -28.0270 F   0  0  0  0  0  0  0  0  0  0  0  0
    2.6020   -4.9810  -27.3860 F   0  0  0  0  0  0  0  0  0  0  0  0
   -0.2070  -10.8420  -26.0780 C   0  0  0  0  0  1  0  0  0  0  0  0
    0.5330  -10.9900  -24.7380 C   0  0  1  0  0  3  0  0  0  0  0  0
    1.8540  -10.3690  -24.9000 N   0  0  0  0  0  0  0  0  0  0  0  0
    2.4400  -10.4460  -24.0730 H   0  0  0  0  0  0  0  0  0  0  0  0
    2.6840  -10.5280  -25.9930 C   0  0  0  0  0  0  0  0  0  0  0  0
    2.7350  -11.8070  -26.3970 N   0  0  0  0  0  0  0  0  0  0  0  0
    3.3270  -12.0380  -27.5650 C   0  0  0  0  0  3  0  0  0  0  0  0
    3.8350  -11.1130  -28.3830 N   0  0  0  0  0  0  0  0  0  0  0  0
    3.8550   -9.8330  -27.9530 C   0  0  0  0  0  0  0  0  0  0  0  0
    4.3540   -8.7840  -28.7530 C   0  0  0  0  0  0  0  0  0  0  0  0
    4.4350   -7.4650  -28.2660 C   0  0  0  0  0  3  0  0  0  0  0  0
    4.0480   -7.1690  -26.9700 C   0  0  0  0  0  3  0  0  0  0  0  0
    3.5220   -8.1810  -26.1790 C   0  0  0  0  0  3  0  0  0  0  0  0
    3.3540   -9.4990  -26.6790 C   0  0  0  0  0  0  0  0  0  0  0  0
    4.7870   -8.9730  -30.1720 C   0  0  0  0  0  0  0  0  0  0  0  0
    4.9370  -10.2440  -30.6410 N   0  0  0  0  0  0  0  0  0  0  0  0
    4.9740   -8.0150  -30.9170 O   0  0  0  0  0  0  0  0  0  0  0  0
    5.1870  -10.3830  -31.6080 H   0  0  0  0  0  0  0  0  0  0  0  0
    4.8230  -11.0460  -30.0270 H   0  0  0  0  0  0  0  0  0  0  0  0
  1  6  2  0  0  0  0
  1  2  1  0  0  0  0
  2  3  2  0  0  0  0
  3  4  1  0  0  0  0
  5  4  2  0  0  0  0
  6  5  1  0  0  0  0
  7  5  1  0  0  0  0
  7 10  1  0  0  0  0
  8  9  2  0  0  0  0
  8  7  1  0  0  0  0
 11  8  1  0  0  0  0
 12 11  2  0  0  0  0
 13 12  1  0  0  0  0
 14 13  2  0  0  0  0
 14 15  1  0  0  0  0
 15 16  2  0  0  0  0
 16 11  1  0  0  0  0
 16 17  1  0  0  0  0
 18 21  1  0  0  0  0
 18 13  1  0  0  0  0
 19 18  1  0  0  0  0
 20 18  1  0  0  0  0
 23 22  1  6  0  0  0
 23  1  1  0  0  0  0
 24 23  1  0  0  0  0
 24 25  1  0  0  0  0
 26 24  1  0  0  0  0
 27 26  1  0  0  0  0
 28 27  2  0  0  0  0
 29 30  2  0  0  0  0
 29 28  1  0  0  0  0
 30 35  1  0  0  0  0
 31 32  2  0  0  0  0
 31 30  1  0  0  0  0
 32 33  1  0  0  0  0
 33 34  2  0  0  0  0
 35 34  1  0  0  0  0
 35 26  2  0  0  0  0
 36 31  1  0  0  0  0
 37 36  1  0  0  0  0
 37 40  1  0  0  0  0
 38 36  2  0  0  0  0
 39 37  1  0  0  0  0
M  END
>  <minimizedAffinity>
-9.18132782

$$$$

 OpenBabel10152418303D

 40 43  0  0  1  0  0  0  0  0999 V2000
    0.3830   -6.2320  -27.3490 C   0  0  0  0  0  0  0  0  0  0  0  0
   -0.0950   -7.4920  -27.7170 C   0  0  0  0  0  3  0  0  0  0  0  0
   -0.6900   -8.3320  -26.7660 C   0  0  0  0  0  3  0  0  0  0  0  0
   -0.8730   -7.9100  -25.4430 C   0  0  0  0  0  3  0  0  0  0  0  0
   -0.4150   -6.6600  -25.0530 C   0  0  0  0  0  0  0  0  0  0  0  0
    0.2570   -5.8730  -25.9940 C   0  0  0  0  0  3  0  0  0  0  0  0
   -0.6680   -6.0360  -23.8190 N   0  0  0  0  0  0  0  0  0  0  0  0
   -1.2410   -6.4630  -22.6530 C   0  0  0  0  0  0  0  0  0  0  0  0
   -1.7080   -5.6420  -21.8630 O   0  0  0  0  0  0  0  0  0  0  0  0
   -0.4970   -5.0360  -23.7840 H   0  0  0  0  0  0  0  0  0  0  0  0
   -1.2550   -7.8710  -22.2550 C   0  0  0  0  0  0  0  0  0  0  0  0
   -0.6630   -8.8140  -23.1060 C   0  0  0  0  0  3  0  0  0  0  0  0
   -0.7610  -10.1850  -22.8180 C   0  0  0  0  0  0  0  0  0  0  0  0
   -1.4790  -10.5900  -21.6800 C   0  0  0  0  0  3  0  0  0  0  0  0
   -2.0850   -9.6450  -20.8470 C   0  0  0  0  0  3  0  0  0  0  0  0
   -1.9790   -8.2900  -21.1430 C   0  0  0  0  0  0  0  0  0  0  0  0
   -2.6190   -7.4100  -20.3600 F   0  0  0  0  0  0  0  0  0  0  0  0
   -0.1410  -11.1960  -23.7560 C   0  0  0  0  0  0  0  0  0  0  0  0
   -1.0690  -11.9870  -24.3550 F   0  0  0  0  0  0  0  0  0  0  0  0
    0.5630  -10.6070  -24.7610 F   0  0  0  0  0  0  0  0  0  0  0  0
    0.7310  -12.0390  -23.1350 F   0  0  0  0  0  0  0  0  0  0  0  0
    0.8300   -3.7580  -27.8530 C   0  0  0  0  0  1  0  0  0  0  0  0
    0.9890   -5.2150  -28.3160 C   0  0  1  0  0  3  0  0  0  0  0  0
    2.4200   -5.4430  -28.5550 N   0  0  0  0  0  0  0  0  0  0  0  0
    3.0090   -4.6730  -28.2460 H   0  0  0  0  0  0  0  0  0  0  0  0
    3.1040   -6.6080  -28.2670 C   0  0  0  0  0  0  0  0  0  0  0  0
    3.1500   -6.8440  -26.9470 N   0  0  0  0  0  0  0  0  0  0  0  0
    3.5910   -8.0420  -26.5720 C   0  0  0  0  0  3  0  0  0  0  0  0
    3.9500   -9.0350  -27.3890 N   0  0  0  0  0  0  0  0  0  0  0  0
    3.9790   -8.7830  -28.7150 C   0  0  0  0  0  0  0  0  0  0  0  0
    4.3260   -9.7730  -29.6570 C   0  0  0  0  0  0  0  0  0  0  0  0
    4.4210   -9.4790  -31.0310 C   0  0  0  0  0  3  0  0  0  0  0  0
    4.1970   -8.1920  -31.4910 C   0  0  0  0  0  3  0  0  0  0  0  0
    3.8190   -7.2110  -30.5840 C   0  0  0  0  0  3  0  0  0  0  0  0
    3.6380   -7.5080  -29.2080 C   0  0  0  0  0  0  0  0  0  0  0  0
    4.5750  -11.2020  -29.2860 C   0  0  0  0  0  0  0  0  0  0  0  0
    4.4040  -11.5740  -27.9870 N   0  0  0  0  0  0  0  0  0  0  0  0
    4.8960  -12.0340  -30.1300 O   0  0  0  0  0  0  0  0  0  0  0  0
    4.5270  -12.5440  -27.7350 H   0  0  0  0  0  0  0  0  0  0  0  0
    4.1760  -10.8900  -27.2710 H   0  0  0  0  0  0  0  0  0  0  0  0
  1  6  1  0  0  0  0
  2  1  2  0  0  0  0
  2  3  1  0  0  0  0
  3  4  2  0  0  0  0
  4  5  1  0  0  0  0
  5  7  1  0  0  0  0
  6  5  2  0  0  0  0
  7 10  1  0  0  0  0
  7  8  1  0  0  0  0
  8 11  1  0  0  0  0
  8  9  2  0  0  0  0
 11 16  1  0  0  0  0
 12 13  1  0  0  0  0
 12 11  2  0  0  0  0
 13 14  2  0  0  0  0
 14 15  1  0  0  0  0
 16 15  2  0  0  0  0
 16 17  1  0  0  0  0
 18 21  1  0  0  0  0
 18 13  1  0  0  0  0
 19 18  1  0  0  0  0
 20 18  1  0  0  0  0
 23 22  1  1  0  0  0
 23  1  1  0  0  0  0
 24 23  1  0  0  0  0
 24 26  1  0  0  0  0
 24 25  1  0  0  0  0
 26 27  1  0  0  0  0
 27 28  2  0  0  0  0
 29 28  1  0  0  0  0
 30 29  2  0  0  0  0
 31 36  1  0  0  0  0
 31 30  1  0  0  0  0
 32 31  2  0  0  0  0
 33 32  1  0  0  0  0
 33 34  2  0  0  0  0
 34 35  1  0  0  0  0
 35 30  1  0  0  0  0
 35 26  2  0  0  0  0
 36 37  1  0  0  0  0
 37 39  1  0  0  0  0
 37 40  1  0  0  0  0
 38 36  2  0  0  0  0
M  END
>  <minimizedAffinity>
-8.74680328

$$$$

 OpenBabel10152418303D

 40 43  0  0  1  0  0  0  0  0999 V2000
    3.7690   -9.6240  -27.6930 C   0  0  0  0  0  0  0  0  0  0  0  0
    4.2400   -9.2410  -26.4340 C   0  0  0  0  0  3  0  0  0  0  0  0
    4.2130   -7.8950  -26.0440 C   0  0  0  0  0  3  0  0  0  0  0  0
    3.6620   -6.9130  -26.8780 C   0  0  0  0  0  3  0  0  0  0  0  0
    3.1800   -7.2670  -28.1300 C   0  0  0  0  0  0  0  0  0  0  0  0
    3.2990   -8.6010  -28.5350 C   0  0  0  0  0  3  0  0  0  0  0  0
    2.4570   -6.4360  -29.0020 N   0  0  0  0  0  0  0  0  0  0  0  0
    1.1740   -5.9610  -28.9960 C   0  0  0  0  0  0  0  0  0  0  0  0
    0.6550   -5.5840  -30.0470 O   0  0  0  0  0  0  0  0  0  0  0  0
    2.9150   -6.2040  -29.8760 H   0  0  0  0  0  0  0  0  0  0  0  0
    0.4020   -5.8010  -27.7620 C   0  0  0  0  0  0  0  0  0  0  0  0
   -0.0280   -4.5170  -27.4020 C   0  0  0  0  0  3  0  0  0  0  0  0
   -0.6660   -4.3060  -26.1680 C   0  0  0  0  0  0  0  0  0  0  0  0
   -0.8420   -5.3970  -25.3000 C   0  0  0  0  0  3  0  0  0  0  0  0
   -0.3920   -6.6710  -25.6570 C   0  0  0  0  0  3  0  0  0  0  0  0
    0.2370   -6.8670  -26.8830 C   0  0  0  0  0  0  0  0  0  0  0  0
    0.7100   -8.0870  -27.1740 F   0  0  0  0  0  0  0  0  0  0  0  0
   -1.1030   -2.9130  -25.7780 C   0  0  0  0  0  0  0  0  0  0  0  0
   -2.3650   -2.6290  -26.1940 F   0  0  0  0  0  0  0  0  0  0  0  0
   -1.0960   -2.7270  -24.4290 F   0  0  0  0  0  0  0  0  0  0  0  0
   -0.3060   -1.9370  -26.2920 F   0  0  0  0  0  0  0  0  0  0  0  0
    4.9290  -11.9060  -27.8260 C   0  0  0  0  0  1  0  0  0  0  0  0
    3.6950  -11.0670  -28.1900 C   0  0  1  0  0  3  0  0  0  0  0  0
    2.5170  -11.7820  -27.6820 N   0  0  0  0  0  0  0  0  0  0  0  0
    2.4890  -12.7610  -27.9560 H   0  0  0  0  0  0  0  0  0  0  0  0
    2.0360  -11.7160  -26.3890 C   0  0  0  0  0  0  0  0  0  0  0  0
    2.9800  -12.0390  -25.4910 N   0  0  0  0  0  0  0  0  0  0  0  0
    2.6940  -11.8000  -24.2140 C   0  0  0  0  0  3  0  0  0  0  0  0
    1.5750  -11.2330  -23.7560 N   0  0  0  0  0  0  0  0  0  0  0  0
    0.5900  -10.9730  -24.6420 C   0  0  0  0  0  0  0  0  0  0  0  0
   -0.6200  -10.3590  -24.2560 C   0  0  0  0  0  0  0  0  0  0  0  0
   -1.6670  -10.1580  -25.1750 C   0  0  0  0  0  3  0  0  0  0  0  0
   -1.5420  -10.5840  -26.4870 C   0  0  0  0  0  3  0  0  0  0  0  0
   -0.3460  -11.1580  -26.8950 C   0  0  0  0  0  3  0  0  0  0  0  0
    0.7500  -11.2940  -26.0040 C   0  0  0  0  0  0  0  0  0  0  0  0
   -0.8680   -9.8410  -22.8740 C   0  0  0  0  0  0  0  0  0  0  0  0
   -0.5970   -8.5320  -22.6130 N   0  0  0  0  0  0  0  0  0  0  0  0
   -1.3350  -10.5610  -21.9960 O   0  0  0  0  0  0  0  0  0  0  0  0
   -0.8010   -8.1620  -21.6970 H   0  0  0  0  0  0  0  0  0  0  0  0
   -0.1750   -7.9330  -23.3180 H   0  0  0  0  0  0  0  0  0  0  0  0
  1  2  1  0  0  0  0
  2  3  2  0  0  0  0
  4  3  1  0  0  0  0
  5  4  2  0  0  0  0
  6  5  1  0  0  0  0
  6  1  2  0  0  0  0
  7  8  1  0  0  0  0
  7  5  1  0  0  0  0
  8 11  1  0  0  0  0
  9  8  2  0  0  0  0
 10  7  1  0  0  0  0
 11 12  2  0  0  0  0
 11 16  1  0  0  0  0
 12 13  1  0  0  0  0
 13 18  1  0  0  0  0
 13 14  2  0  0  0  0
 15 14  1  0  0  0  0
 16 15  2  0  0  0  0
 17 16  1  0  0  0  0
 18 20  1  0  0  0  0
 19 18  1  0  0  0  0
 21 18  1  0  0  0  0
 23 22  1  1  0  0  0
 23  1  1  0  0  0  0
 23 24  1  0  0  0  0
 24 26  1  0  0  0  0
 25 24  1  0  0  0  0
 26 35  2  0  0  0  0
 26 27  1  0  0  0  0
 27 28  2  0  0  0  0
 28 29  1  0  0  0  0
 30 31  1  0  0  0  0
 30 29  2  0  0  0  0
 31 36  1  0  0  0  0
 32 31  2  0  0  0  0
 33 32  1  0  0  0  0
 34 33  2  0  0  0  0
 34 35  1  0  0  0  0
 35 30  1  0  0  0  0
 36 37  1  0  0  0  0
 36 38  2  0  0  0  0
 37 39  1  0  0  0  0
 40 37  1  0  0  0  0
M  END
>  <minimizedAffinity>
-8.03779602

$$$$

 OpenBabel10152418303D

 40 43  0  0  1  0  0  0  0  0999 V2000
    3.7130   -9.3440  -27.7330 C   0  0  0  0  0  0  0  0  0  0  0  0
    4.2430   -8.9230  -26.5100 C   0  0  0  0  0  3  0  0  0  0  0  0
    4.2260   -7.5660  -26.1580 C   0  0  0  0  0  3  0  0  0  0  0  0
    3.6280   -6.6110  -26.9900 C   0  0  0  0  0  3  0  0  0  0  0  0
    3.0860   -7.0040  -28.2060 C   0  0  0  0  0  0  0  0  0  0  0  0
    3.1940   -8.3470  -28.5790 C   0  0  0  0  0  3  0  0  0  0  0  0
    2.3150   -6.2020  -29.0640 N   0  0  0  0  0  0  0  0  0  0  0  0
    1.1010   -5.5860  -28.9320 C   0  0  0  0  0  0  0  0  0  0  0  0
    0.4590   -5.2760  -29.9350 O   0  0  0  0  0  0  0  0  0  0  0  0
    2.6480   -6.1260  -30.0190 H   0  0  0  0  0  0  0  0  0  0  0  0
    0.5550   -5.1980  -27.6300 C   0  0  0  0  0  0  0  0  0  0  0  0
    0.2690   -6.2030  -26.6960 C   0  0  0  0  0  3  0  0  0  0  0  0
   -0.3660   -5.8820  -25.4860 C   0  0  0  0  0  0  0  0  0  0  0  0
   -0.7270   -4.5460  -25.2410 C   0  0  0  0  0  3  0  0  0  0  0  0
   -0.4580   -3.5520  -26.1860 C   0  0  0  0  0  3  0  0  0  0  0  0
    0.1740   -3.8830  -27.3810 C   0  0  0  0  0  0  0  0  0  0  0  0
    0.3670   -2.9200  -28.2930 F   0  0  0  0  0  0  0  0  0  0  0  0
   -0.6930   -6.9770  -24.4960 C   0  0  0  0  0  0  0  0  0  0  0  0
    0.1940   -8.0050  -24.5470 F   0  0  0  0  0  0  0  0  0  0  0  0
   -0.6860   -6.5320  -23.2090 F   0  0  0  0  0  0  0  0  0  0  0  0
   -1.9230   -7.5270  -24.6920 F   0  0  0  0  0  0  0  0  0  0  0  0
    4.7760  -11.6760  -27.6660 C   0  0  0  0  0  1  0  0  0  0  0  0
    3.6240  -10.8010  -28.1850 C   0  0  1  0  0  3  0  0  0  0  0  0
    2.3690  -11.4450  -27.7780 N   0  0  0  0  0  0  0  0  0  0  0  0
    2.1790  -12.3120  -28.2760 H   0  0  0  0  0  0  0  0  0  0  0  0
    1.9540  -11.6370  -26.4740 C   0  0  0  0  0  0  0  0  0  0  0  0
    2.9630  -12.0350  -25.6850 N   0  0  0  0  0  0  0  0  0  0  0  0
    2.7290  -12.0390  -24.3760 C   0  0  0  0  0  3  0  0  0  0  0  0
    1.5990  -11.6460  -23.7810 N   0  0  0  0  0  0  0  0  0  0  0  0
    0.5540  -11.3140  -24.5690 C   0  0  0  0  0  0  0  0  0  0  0  0
   -0.6730  -10.8690  -24.0340 C   0  0  0  0  0  0  0  0  0  0  0  0
   -1.7780  -10.5950  -24.8620 C   0  0  0  0  0  3  0  0  0  0  0  0
   -1.6940  -10.7810  -26.2310 C   0  0  0  0  0  3  0  0  0  0  0  0
   -0.4840  -11.1850  -26.7810 C   0  0  0  0  0  3  0  0  0  0  0  0
    0.6640  -11.3860  -25.9710 C   0  0  0  0  0  0  0  0  0  0  0  0
   -0.8830  -10.6140  -22.5740 C   0  0  0  0  0  0  0  0  0  0  0  0
   -0.8300  -11.6700  -21.7160 N   0  0  0  0  0  0  0  0  0  0  0  0
   -1.0690   -9.4780  -22.1440 O   0  0  0  0  0  0  0  0  0  0  0  0
   -0.9280  -11.5030  -20.7260 H   0  0  0  0  0  0  0  0  0  0  0  0
   -0.7150  -12.6200  -22.0600 H   0  0  0  0  0  0  0  0  0  0  0  0
  1  2  1  0  0  0  0
  2  3  2  0  0  0  0
  4  3  1  0  0  0  0
  5  4  2  0  0  0  0
  6  5  1  0  0  0  0
  6  1  2  0  0  0  0
  7  8  1  0  0  0  0
  7  5  1  0  0  0  0
  8 11  1  0  0  0  0
  9  8  2  0  0  0  0
 10  7  1  0  0  0  0
 11 16  2  0  0  0  0
 11 12  1  0  0  0  0
 12 13  2  0  0  0  0
 13 14  1  0  0  0  0
 13 18  1  0  0  0  0
 15 14  2  0  0  0  0
 16 15  1  0  0  0  0
 17 16  1  0  0  0  0
 18 20  1  0  0  0  0
 19 18  1  0  0  0  0
 21 18  1  0  0  0  0
 23 24  1  0  0  0  0
 23  1  1  0  0  0  0
 23 22  1  1  0  0  0
 24 26  1  0  0  0  0
 25 24  1  0  0  0  0
 26 35  2  0  0  0  0
 26 27  1  0  0  0  0
 27 28  2  0  0  0  0
 28 29  1  0  0  0  0
 30 31  1  0  0  0  0
 30 29  2  0  0  0  0
 31 36  1  0  0  0  0
 32 31  2  0  0  0  0
 33 32  1  0  0  0  0
 34 33  2  0  0  0  0
 34 35  1  0  0  0  0
 35 30  1  0  0  0  0
 36 38  2  0  0  0  0
 36 37  1  0  0  0  0
 37 39  1  0  0  0  0
 40 37  1  0  0  0  0
M  END
>  <minimizedAffinity>
-7.82730103

$$$$

 OpenBabel10152418303D

 40 43  0  0  1  0  0  0  0  0999 V2000
   -0.7910   -8.2060  -23.6670 C   0  0  0  0  0  0  0  0  0  0  0  0
   -1.4590   -7.2580  -24.4460 C   0  0  0  0  0  3  0  0  0  0  0  0
   -0.7620   -6.5020  -25.3990 C   0  0  0  0  0  3  0  0  0  0  0  0
    0.6010   -6.7180  -25.6350 C   0  0  0  0  0  3  0  0  0  0  0  0
    1.2870   -7.6600  -24.8810 C   0  0  0  0  0  0  0  0  0  0  0  0
    0.5940   -8.3390  -23.8740 C   0  0  0  0  0  3  0  0  0  0  0  0
    2.6010   -8.1020  -25.1100 N   0  0  0  0  0  0  0  0  0  0  0  0
    3.3520   -8.2640  -26.2410 C   0  0  0  0  0  0  0  0  0  0  0  0
    4.3180   -9.0270  -26.2320 O   0  0  0  0  0  0  0  0  0  0  0  0
    3.0880   -8.4830  -24.3050 H   0  0  0  0  0  0  0  0  0  0  0  0
    3.1050   -7.4980  -27.4640 C   0  0  0  0  0  0  0  0  0  0  0  0
    2.3820   -6.3010  -27.3700 C   0  0  0  0  0  3  0  0  0  0  0  0
    2.0210   -5.6000  -28.5330 C   0  0  0  0  0  0  0  0  0  0  0  0
    2.3780   -6.1320  -29.7840 C   0  0  0  0  0  3  0  0  0  0  0  0
    3.0800   -7.3380  -29.8710 C   0  0  0  0  0  3  0  0  0  0  0  0
    3.4330   -8.0210  -28.7110 C   0  0  0  0  0  0  0  0  0  0  0  0
    4.0540   -9.2030  -28.8260 F   0  0  0  0  0  0  0  0  0  0  0  0
    1.2210   -4.3240  -28.4230 C   0  0  0  0  0  0  0  0  0  0  0  0
    0.8150   -3.8590  -29.6340 F   0  0  0  0  0  0  0  0  0  0  0  0
    0.0920   -4.4820  -27.6780 F   0  0  0  0  0  0  0  0  0  0  0  0
    1.9110   -3.3060  -27.8390 F   0  0  0  0  0  0  0  0  0  0  0  0
   -2.8570   -8.6410  -22.2120 C   0  0  0  0  0  1  0  0  0  0  0  0
   -1.4650   -9.1250  -22.6490 C   0  0  1  0  0  3  0  0  0  0  0  0
   -1.6160  -10.5010  -23.1400 N   0  0  0  0  0  0  0  0  0  0  0  0
   -2.5780  -10.8320  -23.1240 H   0  0  0  0  0  0  0  0  0  0  0  0
   -1.0380  -11.0100  -24.2860 C   0  0  0  0  0  0  0  0  0  0  0  0
   -1.8830  -10.9710  -25.3280 N   0  0  0  0  0  0  0  0  0  0  0  0
   -1.3640  -11.2310  -26.5250 C   0  0  0  0  0  3  0  0  0  0  0  0
   -0.0780  -11.4860  -26.7830 N   0  0  0  0  0  0  0  0  0  0  0  0
    0.7650  -11.6010  -25.7340 C   0  0  0  0  0  0  0  0  0  0  0  0
    2.1420  -11.8500  -25.9070 C   0  0  0  0  0  0  0  0  0  0  0  0
    2.9980  -12.0390  -24.8050 C   0  0  0  0  0  3  0  0  0  0  0  0
    2.4980  -12.0090  -23.5140 C   0  0  0  0  0  3  0  0  0  0  0  0
    1.1510  -11.7300  -23.3210 C   0  0  0  0  0  3  0  0  0  0  0  0
    0.2900  -11.4550  -24.4160 C   0  0  0  0  0  0  0  0  0  0  0  0
    2.8030  -11.8890  -27.2490 C   0  0  0  0  0  0  0  0  0  0  0  0
    2.0150  -11.9350  -28.3590 N   0  0  0  0  0  0  0  0  0  0  0  0
    4.0250  -11.8490  -27.3600 O   0  0  0  0  0  0  0  0  0  0  0  0
    2.4500  -11.9190  -29.2700 H   0  0  0  0  0  0  0  0  0  0  0  0
    1.0050  -12.0070  -28.2830 H   0  0  0  0  0  0  0  0  0  0  0  0
  1 23  1  0  0  0  0
  2  1  2  0  0  0  0
  3  2  1  0  0  0  0
  4  3  2  0  0  0  0
  4  5  1  0  0  0  0
  5  6  2  0  0  0  0
  6  1  1  0  0  0  0
  7  5  1  0  0  0  0
  7 10  1  0  0  0  0
  8  9  2  0  0  0  0
  8  7  1  0  0  0  0
 11 12  1  0  0  0  0
 11  8  1  0  0  0  0
 13 18  1  0  0  0  0
 13 12  2  0  0  0  0
 14 13  1  0  0  0  0
 15 14  2  0  0  0  0
 15 16  1  0  0  0  0
 16 11  2  0  0  0  0
 17 16  1  0  0  0  0
 18 21  1  0  0  0  0
 18 20  1  0  0  0  0
 19 18  1  0  0  0  0
 23 22  1  6  0  0  0
 24 25  1  0  0  0  0
 24 23  1  0  0  0  0
 26 24  1  0  0  0  0
 27 26  2  0  0  0  0
 28 27  1  0  0  0  0
 29 28  2  0  0  0  0
 29 30  1  0  0  0  0
 30 35  1  0  0  0  0
 31 30  2  0  0  0  0
 31 32  1  0  0  0  0
 32 33  2  0  0  0  0
 33 34  1  0  0  0  0
 35 26  1  0  0  0  0
 35 34  2  0  0  0  0
 36 31  1  0  0  0  0
 37 40  1  0  0  0  0
 37 36  1  0  0  0  0
 38 36  2  0  0  0  0
 39 37  1  0  0  0  0
M  END
>  <minimizedAffinity>
-6.89213753

$$$$

 OpenBabel10152418303D

 40 43  0  0  1  0  0  0  0  0999 V2000
   -1.4250   -7.8030  -23.0530 C   0  0  0  0  0  0  0  0  0  0  0  0
   -1.3560   -6.4990  -22.5570 C   0  0  0  0  0  3  0  0  0  0  0  0
   -0.3400   -5.6310  -22.9800 C   0  0  0  0  0  3  0  0  0  0  0  0
    0.5920   -6.0260  -23.9490 C   0  0  0  0  0  3  0  0  0  0  0  0
    0.5400   -7.3140  -24.4640 C   0  0  0  0  0  0  0  0  0  0  0  0
   -0.4250   -8.1930  -23.9620 C   0  0  0  0  0  3  0  0  0  0  0  0
    1.2910   -7.8000  -25.5470 N   0  0  0  0  0  0  0  0  0  0  0  0
    1.4370   -7.3920  -26.8450 C   0  0  0  0  0  0  0  0  0  0  0  0
    1.8270   -8.1900  -27.6980 O   0  0  0  0  0  0  0  0  0  0  0  0
    1.7520   -8.6920  -25.4030 H   0  0  0  0  0  0  0  0  0  0  0  0
    1.2240   -6.0050  -27.2600 C   0  0  0  0  0  0  0  0  0  0  0  0
    0.3370   -5.2120  -26.5200 C   0  0  0  0  0  3  0  0  0  0  0  0
    0.0140   -3.9160  -26.9560 C   0  0  0  0  0  0  0  0  0  0  0  0
    0.5790   -3.4430  -28.1530 C   0  0  0  0  0  3  0  0  0  0  0  0
    1.4460   -4.2470  -28.8980 C   0  0  0  0  0  3  0  0  0  0  0  0
    1.7590   -5.5280  -28.4530 C   0  0  0  0  0  0  0  0  0  0  0  0
    2.5470   -6.2980  -29.2170 F   0  0  0  0  0  0  0  0  0  0  0  0
   -0.9630   -3.0790  -26.1640 C   0  0  0  0  0  0  0  0  0  0  0  0
   -2.2220   -3.1310  -26.6720 F   0  0  0  0  0  0  0  0  0  0  0  0
   -1.0590   -3.4810  -24.8670 F   0  0  0  0  0  0  0  0  0  0  0  0
   -0.6270   -1.7600  -26.1210 F   0  0  0  0  0  0  0  0  0  0  0  0
   -3.8550   -8.5300  -23.4230 C   0  0  0  0  0  1  0  0  0  0  0  0
   -2.5240   -8.8070  -22.7080 C   0  0  1  0  0  3  0  0  0  0  0  0
   -2.1440  -10.1920  -23.0160 N   0  0  0  0  0  0  0  0  0  0  0  0
   -2.8850  -10.8640  -22.8330 H   0  0  0  0  0  0  0  0  0  0  0  0
   -1.5030  -10.6090  -24.1660 C   0  0  0  0  0  0  0  0  0  0  0  0
   -2.2350  -10.3580  -25.2620 N   0  0  0  0  0  0  0  0  0  0  0  0
   -1.6260  -10.5170  -26.4340 C   0  0  0  0  0  3  0  0  0  0  0  0
   -0.3480  -10.8640  -26.6120 N   0  0  0  0  0  0  0  0  0  0  0  0
    0.3760  -11.1900  -25.5190 C   0  0  0  0  0  0  0  0  0  0  0  0
    1.7360  -11.5500  -25.6050 C   0  0  0  0  0  0  0  0  0  0  0  0
    2.4610  -11.9570  -24.4680 C   0  0  0  0  0  3  0  0  0  0  0  0
    1.8410  -12.0380  -23.2320 C   0  0  0  0  0  3  0  0  0  0  0  0
    0.5120  -11.6550  -23.1210 C   0  0  0  0  0  3  0  0  0  0  0  0
   -0.2120  -11.1630  -24.2390 C   0  0  0  0  0  0  0  0  0  0  0  0
    2.5200  -11.4860  -26.8780 C   0  0  0  0  0  0  0  0  0  0  0  0
    1.9800  -12.0390  -28.0000 N   0  0  0  0  0  0  0  0  0  0  0  0
    3.6110  -10.9250  -26.9300 O   0  0  0  0  0  0  0  0  0  0  0  0
    2.4810  -11.9640  -28.8730 H   0  0  0  0  0  0  0  0  0  0  0  0
    1.0970  -12.5400  -27.9650 H   0  0  0  0  0  0  0  0  0  0  0  0
  1 23  1  0  0  0  0
  1  2  1  0  0  0  0
  3  2  2  0  0  0  0
  4  3  1  0  0  0  0
  5  6  1  0  0  0  0
  5  4  2  0  0  0  0
  6  1  2  0  0  0  0
  7 10  1  0  0  0  0
  7  5  1  0  0  0  0
  8  7  1  0  0  0  0
  9  8  2  0  0  0  0
 11  8  1  0  0  0  0
 11 12  1  0  0  0  0
 13 12  2  0  0  0  0
 13 18  1  0  0  0  0
 14 13  1  0  0  0  0
 15 16  1  0  0  0  0
 15 14  2  0  0  0  0
 16 11  2  0  0  0  0
 17 16  1  0  0  0  0
 18 21  1  0  0  0  0
 18 20  1  0  0  0  0
 19 18  1  0  0  0  0
 23 22  1  6  0  0  0
 24 25  1  0  0  0  0
 24 23  1  0  0  0  0
 26 24  1  0  0  0  0
 27 26  2  0  0  0  0
 28 27  1  0  0  0  0
 29 28  2  0  0  0  0
 29 30  1  0  0  0  0
 30 35  1  0  0  0  0
 31 30  2  0  0  0  0
 31 32  1  0  0  0  0
 32 33  2  0  0  0  0
 33 34  1  0  0  0  0
 35 26  1  0  0  0  0
 35 34  2  0  0  0  0
 36 31  1  0  0  0  0
 37 40  1  0  0  0  0
 37 36  1  0  0  0  0
 38 36  2  0  0  0  0
 39 37  1  0  0  0  0
M  END
>  <minimizedAffinity>
-6.75206661

$$$$

 OpenBabel10152418303D

 40 43  0  0  1  0  0  0  0  0999 V2000
    3.4150   -9.6590  -27.7850 C   0  0  0  0  0  0  0  0  0  0  0  0
    3.7580  -10.1650  -29.0420 C   0  0  0  0  0  3  0  0  0  0  0  0
    3.7810   -9.3260  -30.1640 C   0  0  0  0  0  3  0  0  0  0  0  0
    3.5190   -7.9550  -30.0460 C   0  0  0  0  0  3  0  0  0  0  0  0
    3.1830   -7.4250  -28.8080 C   0  0  0  0  0  0  0  0  0  0  0  0
    3.0780   -8.2950  -27.7180 C   0  0  0  0  0  3  0  0  0  0  0  0
    3.0570   -6.0590  -28.5020 N   0  0  0  0  0  0  0  0  0  0  0  0
    1.9950   -5.2720  -28.1510 C   0  0  0  0  0  0  0  0  0  0  0  0
    2.0530   -4.0540  -28.3180 O   0  0  0  0  0  0  0  0  0  0  0  0
    3.8810   -5.4900  -28.6610 H   0  0  0  0  0  0  0  0  0  0  0  0
    0.8000   -5.8110  -27.4980 C   0  0  0  0  0  0  0  0  0  0  0  0
    0.5690   -7.1920  -27.5560 C   0  0  0  0  0  3  0  0  0  0  0  0
   -0.6240   -7.7310  -27.0480 C   0  0  0  0  0  0  0  0  0  0  0  0
   -1.5840   -6.8610  -26.5050 C   0  0  0  0  0  3  0  0  0  0  0  0
   -1.3570   -5.4820  -26.4700 C   0  0  0  0  0  3  0  0  0  0  0  0
   -0.1700   -4.9620  -26.9750 C   0  0  0  0  0  0  0  0  0  0  0  0
   -0.0040   -3.6320  -26.9810 F   0  0  0  0  0  0  0  0  0  0  0  0
   -0.8740   -9.2190  -27.1390 C   0  0  0  0  0  0  0  0  0  0  0  0
   -1.5720   -9.6940  -26.0740 F   0  0  0  0  0  0  0  0  0  0  0  0
   -1.5910   -9.5580  -28.2460 F   0  0  0  0  0  0  0  0  0  0  0  0
    0.2720   -9.9530  -27.1980 F   0  0  0  0  0  0  0  0  0  0  0  0
    4.8140  -10.9880  -26.0970 C   0  0  0  0  0  1  0  0  0  0  0  0
    3.4210  -10.4700  -26.4900 C   0  0  1  0  0  3  0  0  0  0  0  0
    2.8980   -9.7140  -25.3450 N   0  0  0  0  0  0  0  0  0  0  0  0
    3.0150   -8.7080  -25.4370 H   0  0  0  0  0  0  0  0  0  0  0  0
    1.6710   -9.9190  -24.7440 C   0  0  0  0  0  0  0  0  0  0  0  0
    1.3570  -11.2220  -24.6870 N   0  0  0  0  0  0  0  0  0  0  0  0
    0.3070  -11.5490  -23.9380 C   0  0  0  0  0  3  0  0  0  0  0  0
   -0.4300  -10.7040  -23.2120 N   0  0  0  0  0  0  0  0  0  0  0  0
   -0.1690   -9.3840  -23.3200 C   0  0  0  0  0  0  0  0  0  0  0  0
   -0.8810   -8.4180  -22.5790 C   0  0  0  0  0  0  0  0  0  0  0  0
   -0.6470   -7.0400  -22.7540 C   0  0  0  0  0  3  0  0  0  0  0  0
    0.2780   -6.5970  -23.6840 C   0  0  0  0  0  3  0  0  0  0  0  0
    1.0140   -7.5330  -24.3990 C   0  0  0  0  0  3  0  0  0  0  0  0
    0.8520   -8.9260  -24.1770 C   0  0  0  0  0  0  0  0  0  0  0  0
   -1.8910   -8.7720  -21.5340 C   0  0  0  0  0  0  0  0  0  0  0  0
   -1.6280   -9.8210  -20.7060 N   0  0  0  0  0  0  0  0  0  0  0  0
   -2.9230   -8.1200  -21.3960 O   0  0  0  0  0  0  0  0  0  0  0  0
   -2.2830  -10.0410  -19.9710 H   0  0  0  0  0  0  0  0  0  0  0  0
   -0.7990  -10.3930  -20.8320 H   0  0  0  0  0  0  0  0  0  0  0  0
  1  6  1  0  0  0  0
  1 23  1  0  0  0  0
  2  1  2  0  0  0  0
  3  4  2  0  0  0  0
  3  2  1  0  0  0  0
  4  5  1  0  0  0  0
  5  7  1  0  0  0  0
  5  6  2  0  0  0  0
  7  8  1  0  0  0  0
  8 11  1  0  0  0  0
  9  8  2  0  0  0  0
 10  7  1  0  0  0  0
 11 16  1  0  0  0  0
 12 11  2  0  0  0  0
 12 13  1  0  0  0  0
 13 14  2  0  0  0  0
 14 15  1  0  0  0  0
 16 15  2  0  0  0  0
 17 16  1  0  0  0  0
 18 13  1  0  0  0  0
 18 19  1  0  0  0  0
 20 18  1  0  0  0  0
 21 18  1  0  0  0  0
 23 22  1  1  0  0  0
 23 24  1  0  0  0  0
 24 26  1  0  0  0  0
 25 24  1  0  0  0  0
 26 27  2  0  0  0  0
 26 35  1  0  0  0  0
 27 28  1  0  0  0  0
 28 29  2  0  0  0  0
 30 29  1  0  0  0  0
 30 31  1  0  0  0  0
 31 36  1  0  0  0  0
 32 31  2  0  0  0  0
 33 32  1  0  0  0  0
 34 35  1  0  0  0  0
 34 33  2  0  0  0  0
 35 30  2  0  0  0  0
 36 38  2  0  0  0  0
 36 37  1  0  0  0  0
 37 39  1  0  0  0  0
 40 37  1  0  0  0  0
M  END
>  <minimizedAffinity>
-6.43793583

$$$$
