
 OpenBabel11232419003D

 37 41  0  0  1  0  0  0  0  0999 V2000
   37.9270   44.8830   19.0250 C   0  0  0  0  0  0  0  0  0  0  0  0
   38.5440   45.4870   17.9550 C   0  0  0  0  0  3  0  0  0  0  0  0
   37.5740   45.5890   16.9900 N   0  0  0  0  0  0  0  0  0  0  0  0
   36.3890   45.1420   17.5350 C   0  0  0  0  0  0  0  0  0  0  0  0
   36.6220   44.6060   18.7140 N   0  0  0  0  0  0  0  0  0  0  0  0
   38.4780   43.4960   22.4620 C   0  0  0  0  0  0  0  0  0  0  0  0
   37.8410   43.8130   21.2640 C   0  0  0  0  0  3  0  0  0  0  0  0
   38.5310   44.5520   20.2990 C   0  0  0  0  0  0  0  0  0  0  0  0
   39.8420   44.9440   20.5630 C   0  0  0  0  0  3  0  0  0  0  0  0
   40.3900   44.6160   21.7880 C   0  0  0  0  0  3  0  0  0  0  0  0
   39.7340   43.9210   22.7400 N   0  0  0  0  0  0  0  0  0  0  0  0
   37.1310   43.5550   24.6040 C   0  0  0  0  0  1  0  0  0  0  0  0
   37.7540   42.6770   23.5140 C   0  0  0  0  0  3  0  0  0  0  0  0
   36.6910   41.7950   22.8620 C   0  0  0  0  0  1  0  0  0  0  0  0
   35.0270   45.2730   16.9020 C   0  0  2  0  0  3  0  0  0  0  0  0
   33.9640   45.6030   17.9620 C   0  0  0  0  0  2  0  0  0  0  0  0
   33.5020   44.3740   18.7440 C   0  0  0  0  0  2  0  0  0  0  0  0
   33.1350   43.2870   17.8390 N   0  0  0  0  0  0  0  0  0  0  0  0
   34.1810   42.8480   16.9230 C   0  0  0  0  0  2  0  0  0  0  0  0
   34.6570   44.0300   16.0740 C   0  0  0  0  0  2  0  0  0  0  0  0
   31.8160   43.2090   17.4030 C   0  0  0  0  0  0  0  0  0  0  0  0
   31.2770   44.3320   16.8820 N   0  0  0  0  0  0  0  0  0  0  0  0
   30.0160   44.2550   16.4350 C   0  0  0  0  0  3  0  0  0  0  0  0
   29.2380   43.1700   16.4470 N   0  0  0  0  0  0  0  0  0  0  0  0
   29.7670   42.0700   16.9980 C   0  0  0  0  0  0  0  0  0  0  0  0
   28.9420   40.9560   16.9780 N   0  0  0  0  0  0  0  0  0  0  0  0
   31.0680   42.0310   17.4900 C   0  0  0  0  0  0  0  0  0  0  0  0
   31.7230   40.4580   18.3420 Br  0  0  0  0  0  0  0  0  0  0  0  0
   28.0200   41.1430   16.6050 H   0  0  0  0  0  0  0  0  0  0  0  0
   29.0090   40.3130   17.7550 H   0  0  0  0  0  0  0  0  0  0  0  0
   37.8280   46.0180   15.6290 C   0  0  0  0  0  2  0  0  0  0  0  0
   37.3700   47.4650   15.3880 C   0  0  0  0  0  2  0  0  0  0  0  0
   36.7650   47.6560   14.0300 N   0  0  0  0  0  4  0  0  0  0  0  0
   37.6140   47.1380   12.9370 C   0  0  0  0  0  2  0  0  0  0  0  0
   36.3480   46.5280   12.3200 C   0  0  0  0  0  2  0  0  0  0  0  0
   35.7690   46.5960   13.7390 C   0  0  0  0  0  2  0  0  0  0  0  0
   36.3770   48.6000   13.8660 H   0  0  0  0  0  0  0  0  0  0  0  0
  1  8  1  0  0  0  0
  2  1  2  0  0  0  0
  3  4  1  0  0  0  0
  3  2  1  0  0  0  0
  4  5  2  0  0  0  0
  5  1  1  0  0  0  0
  6 11  1  0  0  0  0
  6 13  1  0  0  0  0
  7  6  2  0  0  0  0
  8  9  2  0  0  0  0
  8  7  1  0  0  0  0
  9 10  1  0  0  0  0
 10 11  2  0  0  0  0
 13 12  1  0  0  0  0
 14 13  1  0  0  0  0
 15  4  1  1  0  0  0
 15 16  1  0  0  0  0
 16 17  1  0  0  0  0
 18 17  1  0  0  0  0
 19 18  1  0  0  0  0
 20 15  1  0  0  0  0
 20 19  1  0  0  0  0
 21 27  1  0  0  0  0
 21 18  1  0  0  0  0
 22 21  2  0  0  0  0
 23 24  2  0  0  0  0
 23 22  1  0  0  0  0
 24 25  1  0  0  0  0
 25 27  2  0  0  0  0
 26 25  1  0  0  0  0
 26 30  1  0  0  0  0
 27 28  1  0  0  0  0
 29 26  1  0  0  0  0
 31  3  1  0  0  0  0
 32 31  1  0  0  0  0
 33 32  1  0  0  0  0
 34 33  1  0  0  0  0
 35 34  1  0  0  0  0
 35 36  1  0  0  0  0
 36 33  1  0  0  0  0
 37 33  1  0  0  0  0
M  END
>  <minimizedAffinity>
-10.3181133

$$$$
