
 OpenBabel11232419003D

 37 41  0  0  1  0  0  0  0  0999 V2000
   38.3630   45.2000   18.6180 C   0  0  0  0  0  0  0  0  0  0  0  0
   37.0810   44.7170   18.7310 C   0  0  0  0  0  3  0  0  0  0  0  0
   37.0620   44.0140   19.9090 N   0  0  0  0  0  0  0  0  0  0  0  0
   38.2890   44.1780   20.5160 C   0  0  0  0  0  0  0  0  0  0  0  0
   39.1120   44.7870   19.6890 N   0  0  0  0  0  0  0  0  0  0  0  0
   38.7960   46.8780   15.2960 C   0  0  0  0  0  0  0  0  0  0  0  0
   38.2640   46.0610   16.2920 C   0  0  0  0  0  3  0  0  0  0  0  0
   38.8910   46.0090   17.5390 C   0  0  0  0  0  0  0  0  0  0  0  0
   40.0290   46.7840   17.7530 C   0  0  0  0  0  3  0  0  0  0  0  0
   40.5100   47.5450   16.7040 C   0  0  0  0  0  3  0  0  0  0  0  0
   39.9310   47.5930   15.4870 N   0  0  0  0  0  0  0  0  0  0  0  0
   37.3230   45.6980   13.6100 C   0  0  0  0  0  1  0  0  0  0  0  0
   38.1180   46.9650   13.9410 C   0  0  0  0  0  3  0  0  0  0  0  0
   37.2180   48.1970   13.8750 C   0  0  0  0  0  1  0  0  0  0  0  0
   38.6380   43.7570   21.9220 C   0  0  2  0  0  3  0  0  0  0  0  0
   37.9650   44.6810   22.9480 C   0  0  0  0  0  2  0  0  0  0  0  0
   38.7120   46.0010   23.1400 C   0  0  0  0  0  2  0  0  0  0  0  0
   40.1340   45.7660   23.3800 N   0  0  0  0  0  0  0  0  0  0  0  0
   40.8340   45.0200   22.3410 C   0  0  0  0  0  2  0  0  0  0  0  0
   40.1590   43.6620   22.1330 C   0  0  0  0  0  2  0  0  0  0  0  0
   40.5640   45.6080   24.6940 C   0  0  0  0  0  0  0  0  0  0  0  0
   40.3880   44.3910   25.2520 N   0  0  0  0  0  0  0  0  0  0  0  0
   40.8260   44.2250   26.5080 C   0  0  0  0  0  3  0  0  0  0  0  0
   41.4280   45.1460   27.2630 N   0  0  0  0  0  0  0  0  0  0  0  0
   41.5670   46.3610   26.7150 C   0  0  0  0  0  0  0  0  0  0  0  0
   42.2130   47.2890   27.5160 N   0  0  0  0  0  0  0  0  0  0  0  0
   41.1550   46.6470   25.4170 C   0  0  0  0  0  0  0  0  0  0  0  0
   41.3020   48.4200   24.7360 Br  0  0  0  0  0  0  0  0  0  0  0  0
   42.4380   46.9400   28.4390 H   0  0  0  0  0  0  0  0  0  0  0  0
   41.9200   48.2540   27.4410 H   0  0  0  0  0  0  0  0  0  0  0  0
   35.9490   43.1940   20.3460 C   0  0  0  0  0  2  0  0  0  0  0  0
   35.4190   42.2970   19.2160 C   0  0  0  0  0  2  0  0  0  0  0  0
   33.9740   42.5530   18.9120 N   0  0  0  0  0  4  0  0  0  0  0  0
   33.4850   43.8400   19.4480 C   0  0  0  0  0  2  0  0  0  0  0  0
   32.7800   44.0670   18.1030 C   0  0  0  0  0  2  0  0  0  0  0  0
   33.8080   43.0790   17.5350 C   0  0  0  0  0  2  0  0  0  0  0  0
   33.3530   41.7460   19.0900 H   0  0  0  0  0  0  0  0  0  0  0  0
  1  2  2  0  0  0  0
  1  5  1  0  0  0  0
  2  3  1  0  0  0  0
  3 31  1  0  0  0  0
  3  4  1  0  0  0  0
  5  4  2  0  0  0  0
  6 11  2  0  0  0  0
  6  7  1  0  0  0  0
  7  8  2  0  0  0  0
  8  9  1  0  0  0  0
  8  1  1  0  0  0  0
 10  9  2  0  0  0  0
 11 10  1  0  0  0  0
 12 13  1  0  0  0  0
 13  6  1  0  0  0  0
 14 13  1  0  0  0  0
 15  4  1  6  0  0  0
 15 20  1  0  0  0  0
 15 16  1  0  0  0  0
 16 17  1  0  0  0  0
 17 18  1  0  0  0  0
 18 21  1  0  0  0  0
 19 18  1  0  0  0  0
 20 19  1  0  0  0  0
 21 22  2  0  0  0  0
 21 27  1  0  0  0  0
 22 23  1  0  0  0  0
 23 24  2  0  0  0  0
 25 24  1  0  0  0  0
 25 26  1  0  0  0  0
 26 29  1  0  0  0  0
 27 25  2  0  0  0  0
 28 27  1  0  0  0  0
 30 26  1  0  0  0  0
 32 31  1  0  0  0  0
 33 37  1  0  0  0  0
 33 32  1  0  0  0  0
 33 34  1  0  0  0  0
 35 34  1  0  0  0  0
 36 35  1  0  0  0  0
 36 33  1  0  0  0  0
M  END
>  <minimizedAffinity>
-8.7595644

$$$$
