
 OpenBabel11232419003D

 37 41  0  0  1  0  0  0  0  0999 V2000
   30.6450   40.5680   18.2300 C   0  0  0  0  0  0  0  0  0  0  0  0
   29.8650   41.0030   17.1850 C   0  0  0  0  0  3  0  0  0  0  0  0
   30.4100   42.2040   16.8030 N   0  0  0  0  0  0  0  0  0  0  0  0
   31.5500   42.4060   17.5520 C   0  0  0  0  0  0  0  0  0  0  0  0
   31.6280   41.4880   18.4910 N   0  0  0  0  0  0  0  0  0  0  0  0
   29.1090   37.6950   20.0790 C   0  0  0  0  0  0  0  0  0  0  0  0
   29.2170   38.8970   19.3830 C   0  0  0  0  0  3  0  0  0  0  0  0
   30.4800   39.3420   18.9810 C   0  0  0  0  0  0  0  0  0  0  0  0
   31.5950   38.5620   19.2830 C   0  0  0  0  0  3  0  0  0  0  0  0
   31.4050   37.3980   20.0030 C   0  0  0  0  0  3  0  0  0  0  0  0
   30.1970   36.9620   20.4170 N   0  0  0  0  0  0  0  0  0  0  0  0
   27.6960   36.8440   21.9990 C   0  0  0  0  0  1  0  0  0  0  0  0
   27.7460   37.1840   20.5070 C   0  0  0  0  0  3  0  0  0  0  0  0
   26.6620   38.2000   20.1510 C   0  0  0  0  0  1  0  0  0  0  0  0
   32.5730   43.4880   17.3190 C   0  0  2  0  0  3  0  0  0  0  0  0
   33.7760   42.9400   16.5360 C   0  0  0  0  0  2  0  0  0  0  0  0
   34.7620   42.1750   17.4200 C   0  0  0  0  0  2  0  0  0  0  0  0
   35.1160   42.9540   18.6030 N   0  0  0  0  0  0  0  0  0  0  0  0
   34.0000   43.3580   19.4510 C   0  0  0  0  0  2  0  0  0  0  0  0
   32.9950   44.1720   18.6320 C   0  0  0  0  0  2  0  0  0  0  0  0
   36.2140   43.8060   18.5290 C   0  0  0  0  0  0  0  0  0  0  0  0
   36.3900   44.4760   17.3700 N   0  0  0  0  0  0  0  0  0  0  0  0
   37.4300   45.3180   17.3030 C   0  0  0  0  0  3  0  0  0  0  0  0
   38.3110   45.5670   18.2750 N   0  0  0  0  0  0  0  0  0  0  0  0
   38.1500   44.8710   19.4090 C   0  0  0  0  0  0  0  0  0  0  0  0
   39.0680   45.1650   20.4050 N   0  0  0  0  0  0  0  0  0  0  0  0
   37.1040   43.9730   19.5940 C   0  0  0  0  0  0  0  0  0  0  0  0
   36.9910   42.9530   21.1980 Br  0  0  0  0  0  0  0  0  0  0  0  0
   39.7800   45.8240   20.1170 H   0  0  0  0  0  0  0  0  0  0  0  0
   39.3510   44.4100   21.0160 H   0  0  0  0  0  0  0  0  0  0  0  0
   29.8020   43.0980   15.8370 C   0  0  0  0  0  2  0  0  0  0  0  0
   29.0340   44.2420   16.5180 C   0  0  0  0  0  2  0  0  0  0  0  0
   27.5500   44.0420   16.4740 N   0  0  0  0  0  4  0  0  0  0  0  0
   27.1470   42.8430   15.7100 C   0  0  0  0  0  2  0  0  0  0  0  0
   26.1550   42.5270   16.8380 C   0  0  0  0  0  2  0  0  0  0  0  0
   27.0650   43.3940   17.7180 C   0  0  0  0  0  2  0  0  0  0  0  0
   27.0110   44.8960   16.2540 H   0  0  0  0  0  0  0  0  0  0  0  0
  1  5  1  0  0  0  0
  1  8  1  0  0  0  0
  2  1  2  0  0  0  0
  3  2  1  0  0  0  0
  3  4  1  0  0  0  0
  4  5  2  0  0  0  0
  6 11  1  0  0  0  0
  6 13  1  0  0  0  0
  7  6  2  0  0  0  0
  8  9  2  0  0  0  0
  8  7  1  0  0  0  0
  9 10  1  0  0  0  0
 10 11  2  0  0  0  0
 13 12  1  0  0  0  0
 14 13  1  0  0  0  0
 15  4  1  1  0  0  0
 15 20  1  0  0  0  0
 16 15  1  0  0  0  0
 16 17  1  0  0  0  0
 17 18  1  0  0  0  0
 18 19  1  0  0  0  0
 20 19  1  0  0  0  0
 21 18  1  0  0  0  0
 21 27  1  0  0  0  0
 22 21  2  0  0  0  0
 23 22  1  0  0  0  0
 23 24  2  0  0  0  0
 24 25  1  0  0  0  0
 25 27  2  0  0  0  0
 25 26  1  0  0  0  0
 26 30  1  0  0  0  0
 27 28  1  0  0  0  0
 29 26  1  0  0  0  0
 31 32  1  0  0  0  0
 31  3  1  0  0  0  0
 33 32  1  0  0  0  0
 33 36  1  0  0  0  0
 34 33  1  0  0  0  0
 34 35  1  0  0  0  0
 35 36  1  0  0  0  0
 37 33  1  0  0  0  0
M  END
>  <minimizedAffinity>
-8.92030144

$$$$
