
 OpenBabel11232419003D

 37 41  0  0  1  0  0  0  0  0999 V2000
   37.7020   44.9550   18.4730 C   0  0  0  0  0  0  0  0  0  0  0  0
   38.1060   44.4700   19.6950 C   0  0  0  0  0  3  0  0  0  0  0  0
   37.0420   43.7400   20.1620 N   0  0  0  0  0  0  0  0  0  0  0  0
   36.0790   43.7200   19.1760 C   0  0  0  0  0  0  0  0  0  0  0  0
   36.4200   44.5470   18.2110 N   0  0  0  0  0  0  0  0  0  0  0  0
   38.7700   46.9520   15.4880 C   0  0  0  0  0  0  0  0  0  0  0  0
   38.0020   46.1220   16.3030 C   0  0  0  0  0  3  0  0  0  0  0  0
   38.4740   45.7880   17.5750 C   0  0  0  0  0  0  0  0  0  0  0  0
   39.6990   46.3030   17.9940 C   0  0  0  0  0  3  0  0  0  0  0  0
   40.4130   47.0940   17.1140 C   0  0  0  0  0  3  0  0  0  0  0  0
   39.9840   47.4110   15.8750 N   0  0  0  0  0  0  0  0  0  0  0  0
   37.5740   46.1780   13.3960 C   0  0  0  0  0  1  0  0  0  0  0  0
   38.2650   47.3430   14.1110 C   0  0  0  0  0  3  0  0  0  0  0  0
   37.3280   48.5450   14.2100 C   0  0  0  0  0  1  0  0  0  0  0  0
   34.8380   42.8640   19.1770 C   0  0  2  0  0  3  0  0  0  0  0  0
   34.6570   42.1670   17.8190 C   0  0  0  0  0  2  0  0  0  0  0  0
   34.0450   43.0820   16.7580 C   0  0  0  0  0  2  0  0  0  0  0  0
   32.8430   43.7380   17.2650 N   0  0  0  0  0  0  0  0  0  0  0  0
   33.0200   44.5350   18.4740 C   0  0  0  0  0  2  0  0  0  0  0  0
   33.5900   43.6600   19.5930 C   0  0  0  0  0  2  0  0  0  0  0  0
   31.6180   43.1040   17.0810 C   0  0  0  0  0  0  0  0  0  0  0  0
   31.4880   41.8630   17.5970 N   0  0  0  0  0  0  0  0  0  0  0  0
   30.3020   41.2590   17.4460 C   0  0  0  0  0  3  0  0  0  0  0  0
   29.2270   41.7670   16.8400 N   0  0  0  0  0  0  0  0  0  0  0  0
   29.3740   42.9850   16.3000 C   0  0  0  0  0  0  0  0  0  0  0  0
   28.2350   43.4920   15.6950 N   0  0  0  0  0  0  0  0  0  0  0  0
   30.5580   43.7080   16.3990 C   0  0  0  0  0  0  0  0  0  0  0  0
   30.7240   45.3940   15.5280 Br  0  0  0  0  0  0  0  0  0  0  0  0
   27.4580   42.8440   15.6860 H   0  0  0  0  0  0  0  0  0  0  0  0
   28.3620   44.0790   14.8810 H   0  0  0  0  0  0  0  0  0  0  0  0
   36.9670   43.1820   21.4990 C   0  0  0  0  0  2  0  0  0  0  0  0
   37.6920   44.0630   22.5290 C   0  0  0  0  0  2  0  0  0  0  0  0
   37.9180   43.3550   23.8300 N   0  0  0  0  0  4  0  0  0  0  0  0
   37.3020   44.0440   24.9830 C   0  0  0  0  0  2  0  0  0  0  0  0
   36.8060   42.6740   25.4650 C   0  0  0  0  0  2  0  0  0  0  0  0
   36.9540   42.2390   24.0010 C   0  0  0  0  0  2  0  0  0  0  0  0
   38.8920   43.0440   23.9820 H   0  0  0  0  0  0  0  0  0  0  0  0
  1  2  2  0  0  0  0
  2  3  1  0  0  0  0
  3 31  1  0  0  0  0
  4  3  1  0  0  0  0
  5  1  1  0  0  0  0
  5  4  2  0  0  0  0
  6 11  2  0  0  0  0
  6  7  1  0  0  0  0
  7  8  2  0  0  0  0
  8  9  1  0  0  0  0
  8  1  1  0  0  0  0
 10  9  2  0  0  0  0
 11 10  1  0  0  0  0
 12 13  1  0  0  0  0
 13 14  1  0  0  0  0
 13  6  1  0  0  0  0
 15  4  1  6  0  0  0
 15 20  1  0  0  0  0
 16 15  1  0  0  0  0
 17 18  1  0  0  0  0
 17 16  1  0  0  0  0
 18 19  1  0  0  0  0
 19 20  1  0  0  0  0
 21 18  1  0  0  0  0
 21 22  1  0  0  0  0
 23 22  2  0  0  0  0
 24 23  1  0  0  0  0
 25 27  1  0  0  0  0
 25 24  2  0  0  0  0
 26 25  1  0  0  0  0
 27 21  2  0  0  0  0
 28 27  1  0  0  0  0
 29 26  1  0  0  0  0
 30 26  1  0  0  0  0
 31 32  1  0  0  0  0
 32 33  1  0  0  0  0
 33 37  1  0  0  0  0
 33 36  1  0  0  0  0
 33 34  1  0  0  0  0
 34 35  1  0  0  0  0
 36 35  1  0  0  0  0
M  END
>  <minimizedAffinity>
-10.3969383

$$$$
