
 OpenBabel11232419003D

 37 41  0  0  1  0  0  0  0  0999 V2000
   36.8070   45.1560   17.7590 C   0  0  0  0  0  0  0  0  0  0  0  0
   37.4360   44.7710   18.9200 C   0  0  0  0  0  3  0  0  0  0  0  0
   36.5700   43.8980   19.5280 N   0  0  0  0  0  0  0  0  0  0  0  0
   35.5020   43.7040   18.6780 C   0  0  0  0  0  0  0  0  0  0  0  0
   35.5820   44.5480   17.6710 N   0  0  0  0  0  0  0  0  0  0  0  0
   38.9520   47.6530   15.9700 C   0  0  0  0  0  0  0  0  0  0  0  0
   38.4890   46.8040   16.9730 C   0  0  0  0  0  3  0  0  0  0  0  0
   37.3160   46.0740   16.7620 C   0  0  0  0  0  0  0  0  0  0  0  0
   36.6480   46.2120   15.5470 C   0  0  0  0  0  3  0  0  0  0  0  0
   37.1570   47.0980   14.6160 C   0  0  0  0  0  3  0  0  0  0  0  0
   38.2760   47.8260   14.8100 N   0  0  0  0  0  0  0  0  0  0  0  0
   41.1440   47.8010   17.2270 C   0  0  0  0  0  1  0  0  0  0  0  0
   40.2350   48.4380   16.1720 C   0  0  0  0  0  3  0  0  0  0  0  0
   40.9780   48.5930   14.8460 C   0  0  0  0  0  1  0  0  0  0  0  0
   34.4220   42.6660   18.8470 C   0  0  2  0  0  3  0  0  0  0  0  0
   34.1410   41.9510   17.5160 C   0  0  0  0  0  2  0  0  0  0  0  0
   33.2400   42.7610   16.5840 C   0  0  0  0  0  2  0  0  0  0  0  0
   32.0450   43.2230   17.2850 N   0  0  0  0  0  0  0  0  0  0  0  0
   32.2830   44.0380   18.4710 C   0  0  0  0  0  2  0  0  0  0  0  0
   33.1460   43.2610   19.4690 C   0  0  0  0  0  2  0  0  0  0  0  0
   30.9170   42.4080   17.2750 C   0  0  0  0  0  0  0  0  0  0  0  0
   31.0650   41.1540   17.7530 N   0  0  0  0  0  0  0  0  0  0  0  0
   29.9760   40.3740   17.7710 C   0  0  0  0  0  3  0  0  0  0  0  0
   28.7510   40.7170   17.3680 N   0  0  0  0  0  0  0  0  0  0  0  0
   28.6200   41.9510   16.8610 C   0  0  0  0  0  0  0  0  0  0  0  0
   27.3330   42.2830   16.4690 N   0  0  0  0  0  0  0  0  0  0  0  0
   29.6800   42.8490   16.7970 C   0  0  0  0  0  0  0  0  0  0  0  0
   29.4410   44.5540   15.9820 Br  0  0  0  0  0  0  0  0  0  0  0  0
   26.6730   41.5210   16.5590 H   0  0  0  0  0  0  0  0  0  0  0  0
   27.2320   42.8950   15.6700 H   0  0  0  0  0  0  0  0  0  0  0  0
   36.7570   43.3720   20.8660 C   0  0  0  0  0  2  0  0  0  0  0  0
   38.1110   43.7870   21.4620 C   0  0  0  0  0  2  0  0  0  0  0  0
   37.9610   44.5990   22.7130 N   0  0  0  0  0  4  0  0  0  0  0  0
   38.6340   43.9960   23.8820 C   0  0  0  0  0  2  0  0  0  0  0  0
   39.1650   45.3950   24.2260 C   0  0  0  0  0  2  0  0  0  0  0  0
   38.9410   45.7140   22.7420 C   0  0  0  0  0  2  0  0  0  0  0  0
   36.9990   44.9320   22.8920 H   0  0  0  0  0  0  0  0  0  0  0  0
  1  2  2  0  0  0  0
  2  3  1  0  0  0  0
  3 31  1  0  0  0  0
  4  3  1  0  0  0  0
  5  1  1  0  0  0  0
  5  4  2  0  0  0  0
  6 13  1  0  0  0  0
  6  7  1  0  0  0  0
  8  7  2  0  0  0  0
  8  1  1  0  0  0  0
  9  8  1  0  0  0  0
 10 11  1  0  0  0  0
 10  9  2  0  0  0  0
 11  6  2  0  0  0  0
 13 12  1  0  0  0  0
 14 13  1  0  0  0  0
 15  4  1  6  0  0  0
 15 20  1  0  0  0  0
 16 15  1  0  0  0  0
 17 18  1  0  0  0  0
 17 16  1  0  0  0  0
 18 19  1  0  0  0  0
 19 20  1  0  0  0  0
 21 18  1  0  0  0  0
 21 22  1  0  0  0  0
 22 23  2  0  0  0  0
 24 23  1  0  0  0  0
 25 24  2  0  0  0  0
 26 29  1  0  0  0  0
 26 25  1  0  0  0  0
 27 25  1  0  0  0  0
 27 21  2  0  0  0  0
 28 27  1  0  0  0  0
 30 26  1  0  0  0  0
 31 32  1  0  0  0  0
 32 33  1  0  0  0  0
 33 36  1  0  0  0  0
 33 37  1  0  0  0  0
 33 34  1  0  0  0  0
 34 35  1  0  0  0  0
 36 35  1  0  0  0  0
M  END
>  <minimizedAffinity>
-8.72595596

$$$$
