
 OpenBabel11232419003D

 37 41  0  0  1  0  0  0  0  0999 V2000
   37.0810   43.8920   20.5360 C   0  0  0  0  0  0  0  0  0  0  0  0
   38.0370   44.3890   19.6820 C   0  0  0  0  0  3  0  0  0  0  0  0
   37.3940   44.5620   18.4820 N   0  0  0  0  0  0  0  0  0  0  0  0
   36.0610   44.2660   18.6720 C   0  0  0  0  0  0  0  0  0  0  0  0
   35.8910   43.7480   19.8700 N   0  0  0  0  0  0  0  0  0  0  0  0
   38.0380   44.0290   24.1560 C   0  0  0  0  0  0  0  0  0  0  0  0
   37.9160   44.4000   22.8180 C   0  0  0  0  0  3  0  0  0  0  0  0
   37.2620   43.5420   21.9300 C   0  0  0  0  0  0  0  0  0  0  0  0
   36.7440   42.3420   22.4120 C   0  0  0  0  0  3  0  0  0  0  0  0
   36.9350   42.0350   23.7460 C   0  0  0  0  0  3  0  0  0  0  0  0
   37.5810   42.8400   24.6150 N   0  0  0  0  0  0  0  0  0  0  0  0
   40.0720   45.4650   24.6140 C   0  0  0  0  0  1  0  0  0  0  0  0
   38.7260   44.9560   25.1410 C   0  0  0  0  0  3  0  0  0  0  0  0
   37.8120   46.1260   25.4980 C   0  0  0  0  0  1  0  0  0  0  0  0
   34.9540   44.5220   17.6810 C   0  0  2  0  0  3  0  0  0  0  0  0
   33.7340   45.1450   18.3770 C   0  0  0  0  0  2  0  0  0  0  0  0
   32.8700   44.1110   19.0990 C   0  0  0  0  0  2  0  0  0  0  0  0
   32.5560   42.9870   18.2200 N   0  0  0  0  0  0  0  0  0  0  0  0
   33.7040   42.2790   17.6660 C   0  0  0  0  0  2  0  0  0  0  0  0
   34.5890   43.2560   16.8880 C   0  0  0  0  0  2  0  0  0  0  0  0
   31.4020   43.0570   17.4460 C   0  0  0  0  0  0  0  0  0  0  0  0
   31.0810   44.2650   16.9360 N   0  0  0  0  0  0  0  0  0  0  0  0
   29.9860   44.3320   16.1670 C   0  0  0  0  0  3  0  0  0  0  0  0
   29.1800   43.3170   15.8470 N   0  0  0  0  0  0  0  0  0  0  0  0
   29.4860   42.1280   16.3870 C   0  0  0  0  0  0  0  0  0  0  0  0
   28.6420   41.0920   16.0200 N   0  0  0  0  0  0  0  0  0  0  0  0
   30.6010   41.9390   17.1950 C   0  0  0  0  0  0  0  0  0  0  0  0
   30.9220   40.2430   18.0000 Br  0  0  0  0  0  0  0  0  0  0  0  0
   27.8660   41.3870   15.4420 H   0  0  0  0  0  0  0  0  0  0  0  0
   28.4640   40.3710   16.7070 H   0  0  0  0  0  0  0  0  0  0  0  0
   38.0660   44.9140   17.2470 C   0  0  0  0  0  2  0  0  0  0  0  0
   38.6890   46.3170   17.3120 C   0  0  0  0  0  2  0  0  0  0  0  0
   40.1870   46.2800   17.3270 N   0  0  0  0  0  4  0  0  0  0  0  0
   40.8030   47.6220   17.3180 C   0  0  0  0  0  2  0  0  0  0  0  0
   41.7720   47.1230   18.3990 C   0  0  0  0  0  2  0  0  0  0  0  0
   40.6980   46.0690   18.7040 C   0  0  0  0  0  2  0  0  0  0  0  0
   40.6020   45.6090   16.6590 H   0  0  0  0  0  0  0  0  0  0  0  0
  1  8  1  0  0  0  0
  2  1  2  0  0  0  0
  3  4  1  0  0  0  0
  3  2  1  0  0  0  0
  4  5  2  0  0  0  0
  5  1  1  0  0  0  0
  6 11  1  0  0  0  0
  6 13  1  0  0  0  0
  7  6  2  0  0  0  0
  8  9  2  0  0  0  0
  8  7  1  0  0  0  0
  9 10  1  0  0  0  0
 10 11  2  0  0  0  0
 12 13  1  0  0  0  0
 13 14  1  0  0  0  0
 15 16  1  0  0  0  0
 15  4  1  1  0  0  0
 16 17  1  0  0  0  0
 18 17  1  0  0  0  0
 19 18  1  0  0  0  0
 20 19  1  0  0  0  0
 20 15  1  0  0  0  0
 21 18  1  0  0  0  0
 22 21  2  0  0  0  0
 23 22  1  0  0  0  0
 24 23  2  0  0  0  0
 24 25  1  0  0  0  0
 25 27  2  0  0  0  0
 26 25  1  0  0  0  0
 26 30  1  0  0  0  0
 27 21  1  0  0  0  0
 27 28  1  0  0  0  0
 29 26  1  0  0  0  0
 31 32  1  0  0  0  0
 31  3  1  0  0  0  0
 32 33  1  0  0  0  0
 33 36  1  0  0  0  0
 34 33  1  0  0  0  0
 34 35  1  0  0  0  0
 35 36  1  0  0  0  0
 37 33  1  0  0  0  0
M  END
>  <minimizedAffinity>
-9.4371748

$$$$
