
 OpenBabel10152418103D

 29 32  0  0  0  0  0  0  0  0999 V2000
    2.9250   -7.7660  -28.5460 C   0  0  0  0  0  0  0  0  0  0  0  0
    2.5570   -8.5460  -27.5060 N   0  0  0  0  0  0  0  0  0  0  0  0
    3.4010   -9.5190  -27.1400 C   0  0  0  0  0  0  0  0  0  0  0  0
    3.1570  -10.3080  -26.0200 N   0  0  0  0  0  0  0  0  0  0  0  0
    4.5800   -9.7410  -27.7500 N   0  0  0  0  0  0  0  0  0  0  0  0
    4.9100   -8.9260  -28.7770 C   0  0  0  0  0  3  0  0  0  0  0  0
    4.1230   -7.8910  -29.2150 C   0  0  0  0  0  0  0  0  0  0  0  0
    4.6470   -6.8500  -30.4710 Cl  0  0  0  0  0  0  0  0  0  0  0  0
    3.9630  -10.8800  -25.8180 H   0  0  0  0  0  0  0  0  0  0  0  0
    2.0610  -10.4000  -25.1600 C   0  0  0  0  0  0  0  0  0  0  0  0
    1.5440  -11.6680  -24.8550 C   0  0  0  0  0  3  0  0  0  0  0  0
    0.5060  -11.8270  -23.9280 C   0  0  0  0  0  3  0  0  0  0  0  0
   -0.0500  -10.7140  -23.2870 C   0  0  0  0  0  0  0  0  0  0  0  0
    0.4440   -9.4450  -23.6080 C   0  0  0  0  0  3  0  0  0  0  0  0
    1.4990   -9.2950  -24.5160 C   0  0  0  0  0  3  0  0  0  0  0  0
   -1.1110  -10.8440  -22.2980 C   0  0  0  0  0  0  0  0  0  0  0  0
   -1.7070   -9.8860  -21.6150 N   0  0  0  0  0  0  0  0  0  0  0  0
   -2.6160  -10.5020  -20.7880 N   0  0  0  0  0  0  0  0  0  0  0  0
   -2.5730  -11.8180  -20.9340 N   0  0  0  0  0  0  0  0  0  0  0  0
   -1.6340  -12.0320  -21.8630 N   0  0  0  0  0  0  0  0  0  0  0  0
   -1.3890  -12.9780  -22.1180 H   0  0  0  0  0  0  0  0  0  0  0  0
    2.0860   -6.7050  -28.7970 O   0  0  0  0  0  0  0  0  0  0  0  0
    1.4930   -4.0450  -27.7180 F   0  0  0  0  0  0  0  0  0  0  0  0
    0.8160   -5.1420  -27.3450 C   0  0  0  0  0  0  0  0  0  0  0  0
   -0.1890   -4.9870  -26.3900 C   0  0  0  0  0  3  0  0  0  0  0  0
   -0.9200   -6.0940  -25.9590 C   0  0  0  0  0  3  0  0  0  0  0  0
   -0.6440   -7.3530  -26.4890 C   0  0  0  0  0  3  0  0  0  0  0  0
    0.3640   -7.5040  -27.4430 C   0  0  0  0  0  3  0  0  0  0  0  0
    1.1100   -6.4000  -27.8750 C   0  0  0  0  0  0  0  0  0  0  0  0
  1  2  2  0  0  0  0
  2  3  1  0  0  0  0
  3  4  1  0  0  0  0
  4  9  1  0  0  0  0
  4 10  1  0  0  0  0
  5  3  2  0  0  0  0
  6  5  1  0  0  0  0
  7  6  2  0  0  0  0
  7  1  1  0  0  0  0
  8  7  1  0  0  0  0
 10 11  2  0  0  0  0
 10 15  1  0  0  0  0
 11 12  1  0  0  0  0
 12 13  2  0  0  0  0
 13 16  1  0  0  0  0
 14 13  1  0  0  0  0
 15 14  2  0  0  0  0
 16 20  1  0  0  0  0
 16 17  2  0  0  0  0
 17 18  1  0  0  0  0
 19 18  2  0  0  0  0
 20 19  1  0  0  0  0
 21 20  1  0  0  0  0
 22  1  1  0  0  0  0
 22 29  1  0  0  0  0
 23 24  1  0  0  0  0
 24 25  1  0  0  0  0
 25 26  2  0  0  0  0
 27 26  1  0  0  0  0
 28 27  2  0  0  0  0
 29 28  1  0  0  0  0
 29 24  2  0  0  0  0
M  END
>  <minimizedAffinity>
-8.0271368

$$$$
