
 OpenBabel10152418103D

 29 32  0  0  0  0  0  0  0  0999 V2000
   -0.8980   -9.0260  -23.2080 C   0  0  0  0  0  0  0  0  0  0  0  0
   -0.3310   -8.2740  -24.1770 N   0  0  0  0  0  0  0  0  0  0  0  0
   -0.5970   -6.9610  -24.1700 C   0  0  0  0  0  0  0  0  0  0  0  0
    0.0180   -6.0920  -25.0650 N   0  0  0  0  0  0  0  0  0  0  0  0
   -1.3840   -6.3740  -23.2500 N   0  0  0  0  0  0  0  0  0  0  0  0
   -1.9170   -7.1650  -22.2930 C   0  0  0  0  0  3  0  0  0  0  0  0
   -1.6910   -8.5160  -22.2040 C   0  0  0  0  0  0  0  0  0  0  0  0
   -2.3370   -9.4390  -20.9130 Cl  0  0  0  0  0  0  0  0  0  0  0  0
   -0.1890   -5.1370  -24.8160 H   0  0  0  0  0  0  0  0  0  0  0  0
    0.8570   -6.3130  -26.1580 C   0  0  0  0  0  0  0  0  0  0  0  0
    1.6830   -7.4460  -26.1590 C   0  0  0  0  0  3  0  0  0  0  0  0
    2.4770   -7.7680  -27.2680 C   0  0  0  0  0  3  0  0  0  0  0  0
    2.4700   -6.9530  -28.4050 C   0  0  0  0  0  0  0  0  0  0  0  0
    1.6690   -5.8070  -28.3990 C   0  0  0  0  0  3  0  0  0  0  0  0
    0.8580   -5.5050  -27.2980 C   0  0  0  0  0  3  0  0  0  0  0  0
    3.2620   -7.2720  -29.5860 C   0  0  0  0  0  0  0  0  0  0  0  0
    2.9780   -8.1310  -30.5460 N   0  0  0  0  0  0  0  0  0  0  0  0
    4.0380   -8.1030  -31.4220 N   0  0  0  0  0  0  0  0  0  0  0  0
    4.9740   -7.2630  -31.0060 N   0  0  0  0  0  0  0  0  0  0  0  0
    4.4980   -6.7550  -29.8630 N   0  0  0  0  0  0  0  0  0  0  0  0
    5.0620   -6.1080  -29.3290 H   0  0  0  0  0  0  0  0  0  0  0  0
   -0.4910  -10.3410  -23.1850 O   0  0  0  0  0  0  0  0  0  0  0  0
   -1.8380  -11.2080  -25.6390 F   0  0  0  0  0  0  0  0  0  0  0  0
   -0.5090  -11.2890  -25.4790 C   0  0  0  0  0  0  0  0  0  0  0  0
    0.2360  -11.8320  -26.5270 C   0  0  0  0  0  3  0  0  0  0  0  0
    1.6210  -11.9490  -26.4120 C   0  0  0  0  0  3  0  0  0  0  0  0
    2.2570  -11.5190  -25.2490 C   0  0  0  0  0  3  0  0  0  0  0  0
    1.5080  -10.9790  -24.2020 C   0  0  0  0  0  3  0  0  0  0  0  0
    0.1160  -10.8660  -24.3040 C   0  0  0  0  0  0  0  0  0  0  0  0
  1 22  1  0  0  0  0
  1  7  1  0  0  0  0
  2  3  1  0  0  0  0
  2  1  2  0  0  0  0
  3  5  2  0  0  0  0
  4  9  1  0  0  0  0
  4  3  1  0  0  0  0
  5  6  1  0  0  0  0
  6  7  2  0  0  0  0
  7  8  1  0  0  0  0
 10  4  1  0  0  0  0
 11 10  1  0  0  0  0
 12 11  2  0  0  0  0
 13 14  2  0  0  0  0
 13 12  1  0  0  0  0
 14 15  1  0  0  0  0
 15 10  2  0  0  0  0
 16 13  1  0  0  0  0
 17 16  2  0  0  0  0
 18 19  2  0  0  0  0
 18 17  1  0  0  0  0
 19 20  1  0  0  0  0
 20 16  1  0  0  0  0
 20 21  1  0  0  0  0
 23 24  1  0  0  0  0
 24 29  1  0  0  0  0
 25 26  1  0  0  0  0
 25 24  2  0  0  0  0
 26 27  2  0  0  0  0
 27 28  1  0  0  0  0
 29 28  2  0  0  0  0
 29 22  1  0  0  0  0
M  END
>  <minimizedAffinity>
-9.48137474

$$$$
