
 OpenBabel10152418103D

 29 32  0  0  0  0  0  0  0  0999 V2000
    2.8910   -7.5370  -28.9500 C   0  0  0  0  0  0  0  0  0  0  0  0
    2.5200   -8.1530  -27.8070 N   0  0  0  0  0  0  0  0  0  0  0  0
    3.4130   -8.9670  -27.2290 C   0  0  0  0  0  0  0  0  0  0  0  0
    3.1600   -9.5660  -26.0000 N   0  0  0  0  0  0  0  0  0  0  0  0
    4.6430   -9.1840  -27.7290 N   0  0  0  0  0  0  0  0  0  0  0  0
    4.9740   -8.5350  -28.8680 C   0  0  0  0  0  3  0  0  0  0  0  0
    4.1370   -7.6680  -29.5250 C   0  0  0  0  0  0  0  0  0  0  0  0
    4.6570   -6.8200  -30.9200 Cl  0  0  0  0  0  0  0  0  0  0  0  0
    3.9940  -10.0180  -25.6580 H   0  0  0  0  0  0  0  0  0  0  0  0
    2.0210   -9.6050  -25.1940 C   0  0  0  0  0  0  0  0  0  0  0  0
    1.7000  -10.8000  -24.5320 C   0  0  0  0  0  3  0  0  0  0  0  0
    0.6230  -10.8710  -23.6390 C   0  0  0  0  0  3  0  0  0  0  0  0
   -0.1700   -9.7450  -23.3930 C   0  0  0  0  0  0  0  0  0  0  0  0
    0.1290   -8.5590  -24.0710 C   0  0  0  0  0  3  0  0  0  0  0  0
    1.2230   -8.4860  -24.9420 C   0  0  0  0  0  3  0  0  0  0  0  0
   -1.2800   -9.7750  -22.4510 C   0  0  0  0  0  0  0  0  0  0  0  0
   -2.1750   -8.8330  -22.2200 N   0  0  0  0  0  0  0  0  0  0  0  0
   -3.0000   -9.3120  -21.2290 N   0  0  0  0  0  0  0  0  0  0  0  0
   -2.6150  -10.5160  -20.8330 N   0  0  0  0  0  0  0  0  0  0  0  0
   -1.5440  -10.8000  -21.5840 N   0  0  0  0  0  0  0  0  0  0  0  0
   -1.0420  -11.6640  -21.4340 H   0  0  0  0  0  0  0  0  0  0  0  0
    1.9880   -6.6170  -29.4310 O   0  0  0  0  0  0  0  0  0  0  0  0
   -0.1660   -7.6800  -27.7520 F   0  0  0  0  0  0  0  0  0  0  0  0
    0.1960   -6.3890  -27.7270 C   0  0  0  0  0  0  0  0  0  0  0  0
   -0.5100   -5.5360  -26.8790 C   0  0  0  0  0  3  0  0  0  0  0  0
   -0.1820   -4.1810  -26.8190 C   0  0  0  0  0  3  0  0  0  0  0  0
    0.8550   -3.6860  -27.6070 C   0  0  0  0  0  3  0  0  0  0  0  0
    1.5560   -4.5420  -28.4570 C   0  0  0  0  0  3  0  0  0  0  0  0
    1.2290   -5.9020  -28.5310 C   0  0  0  0  0  0  0  0  0  0  0  0
  1  2  2  0  0  0  0
  2  3  1  0  0  0  0
  3  4  1  0  0  0  0
  4  9  1  0  0  0  0
  4 10  1  0  0  0  0
  5  3  2  0  0  0  0
  6  5  1  0  0  0  0
  7  1  1  0  0  0  0
  7  6  2  0  0  0  0
  8  7  1  0  0  0  0
 10 15  2  0  0  0  0
 10 11  1  0  0  0  0
 11 12  2  0  0  0  0
 12 13  1  0  0  0  0
 13 16  1  0  0  0  0
 14 13  2  0  0  0  0
 15 14  1  0  0  0  0
 16 17  2  0  0  0  0
 16 20  1  0  0  0  0
 17 18  1  0  0  0  0
 18 19  2  0  0  0  0
 20 21  1  0  0  0  0
 20 19  1  0  0  0  0
 22  1  1  0  0  0  0
 22 29  1  0  0  0  0
 23 24  1  0  0  0  0
 24 25  1  0  0  0  0
 25 26  2  0  0  0  0
 27 26  1  0  0  0  0
 28 27  2  0  0  0  0
 29 28  1  0  0  0  0
 29 24  2  0  0  0  0
M  END
>  <minimizedAffinity>
-7.93370914

$$$$
