
 OpenBabel10152418103D

 29 32  0  0  0  0  0  0  0  0999 V2000
   -0.8980   -9.0260  -23.2080 C   0  0  0  0  0  0  0  0  0  0  0  0
   -0.3310   -8.2740  -24.1770 N   0  0  0  0  0  0  0  0  0  0  0  0
   -0.5970   -6.9610  -24.1700 C   0  0  0  0  0  0  0  0  0  0  0  0
    0.0180   -6.0920  -25.0650 N   0  0  0  0  0  0  0  0  0  0  0  0
   -1.3840   -6.3740  -23.2500 N   0  0  0  0  0  0  0  0  0  0  0  0
   -1.9170   -7.1650  -22.2930 C   0  0  0  0  0  3  0  0  0  0  0  0
   -1.6910   -8.5160  -22.2040 C   0  0  0  0  0  0  0  0  0  0  0  0
   -2.3370   -9.4390  -20.9130 Cl  0  0  0  0  0  0  0  0  0  0  0  0
   -0.1890   -5.1370  -24.8160 H   0  0  0  0  0  0  0  0  0  0  0  0
    0.8570   -6.3130  -26.1580 C   0  0  0  0  0  0  0  0  0  0  0  0
    1.6830   -7.4460  -26.1590 C   0  0  0  0  0  3  0  0  0  0  0  0
    2.4770   -7.7680  -27.2680 C   0  0  0  0  0  3  0  0  0  0  0  0
    2.4700   -6.9530  -28.4050 C   0  0  0  0  0  0  0  0  0  0  0  0
    1.6690   -5.8070  -28.3990 C   0  0  0  0  0  3  0  0  0  0  0  0
    0.8580   -5.5050  -27.2980 C   0  0  0  0  0  3  0  0  0  0  0  0
    3.2620   -7.2720  -29.5860 C   0  0  0  0  0  0  0  0  0  0  0  0
    2.9780   -8.1310  -30.5460 N   0  0  0  0  0  0  0  0  0  0  0  0
    4.0380   -8.1030  -31.4220 N   0  0  0  0  0  0  0  0  0  0  0  0
    4.9740   -7.2630  -31.0060 N   0  0  0  0  0  0  0  0  0  0  0  0
    4.4980   -6.7550  -29.8630 N   0  0  0  0  0  0  0  0  0  0  0  0
    5.0620   -6.1080  -29.3290 H   0  0  0  0  0  0  0  0  0  0  0  0
   -0.4910  -10.3410  -23.1850 O   0  0  0  0  0  0  0  0  0  0  0  0
   -1.8380  -11.2080  -25.6390 F   0  0  0  0  0  0  0  0  0  0  0  0
   -0.5090  -11.2890  -25.4790 C   0  0  0  0  0  0  0  0  0  0  0  0
    0.2360  -11.8320  -26.5270 C   0  0  0  0  0  3  0  0  0  0  0  0
    1.6210  -11.9490  -26.4120 C   0  0  0  0  0  3  0  0  0  0  0  0
    2.2570  -11.5190  -25.2490 C   0  0  0  0  0  3  0  0  0  0  0  0
    1.5080  -10.9790  -24.2020 C   0  0  0  0  0  3  0  0  0  0  0  0
    0.1160  -10.8660  -24.3040 C   0  0  0  0  0  0  0  0  0  0  0  0
  1 22  1  0  0  0  0
  1  7  1  0  0  0  0
  2  3  1  0  0  0  0
  2  1  2  0  0  0  0
  3  5  2  0  0  0  0
  4  9  1  0  0  0  0
  4  3  1  0  0  0  0
  5  6  1  0  0  0  0
  6  7  2  0  0  0  0
  7  8  1  0  0  0  0
 10  4  1  0  0  0  0
 11 10  1  0  0  0  0
 12 11  2  0  0  0  0
 13 14  2  0  0  0  0
 13 12  1  0  0  0  0
 14 15  1  0  0  0  0
 15 10  2  0  0  0  0
 16 13  1  0  0  0  0
 17 16  2  0  0  0  0
 18 19  2  0  0  0  0
 18 17  1  0  0  0  0
 19 20  1  0  0  0  0
 20 16  1  0  0  0  0
 20 21  1  0  0  0  0
 23 24  1  0  0  0  0
 24 29  1  0  0  0  0
 25 26  1  0  0  0  0
 25 24  2  0  0  0  0
 26 27  2  0  0  0  0
 27 28  1  0  0  0  0
 29 28  2  0  0  0  0
 29 22  1  0  0  0  0
M  END
>  <minimizedAffinity>
-9.48137474

$$$$

 OpenBabel10152418103D

 29 32  0  0  0  0  0  0  0  0999 V2000
    2.9250   -7.7660  -28.5460 C   0  0  0  0  0  0  0  0  0  0  0  0
    2.5570   -8.5460  -27.5060 N   0  0  0  0  0  0  0  0  0  0  0  0
    3.4010   -9.5190  -27.1400 C   0  0  0  0  0  0  0  0  0  0  0  0
    3.1570  -10.3080  -26.0200 N   0  0  0  0  0  0  0  0  0  0  0  0
    4.5800   -9.7410  -27.7500 N   0  0  0  0  0  0  0  0  0  0  0  0
    4.9100   -8.9260  -28.7770 C   0  0  0  0  0  3  0  0  0  0  0  0
    4.1230   -7.8910  -29.2150 C   0  0  0  0  0  0  0  0  0  0  0  0
    4.6470   -6.8500  -30.4710 Cl  0  0  0  0  0  0  0  0  0  0  0  0
    3.9630  -10.8800  -25.8180 H   0  0  0  0  0  0  0  0  0  0  0  0
    2.0610  -10.4000  -25.1600 C   0  0  0  0  0  0  0  0  0  0  0  0
    1.5440  -11.6680  -24.8550 C   0  0  0  0  0  3  0  0  0  0  0  0
    0.5060  -11.8270  -23.9280 C   0  0  0  0  0  3  0  0  0  0  0  0
   -0.0500  -10.7140  -23.2870 C   0  0  0  0  0  0  0  0  0  0  0  0
    0.4440   -9.4450  -23.6080 C   0  0  0  0  0  3  0  0  0  0  0  0
    1.4990   -9.2950  -24.5160 C   0  0  0  0  0  3  0  0  0  0  0  0
   -1.1110  -10.8440  -22.2980 C   0  0  0  0  0  0  0  0  0  0  0  0
   -1.7070   -9.8860  -21.6150 N   0  0  0  0  0  0  0  0  0  0  0  0
   -2.6160  -10.5020  -20.7880 N   0  0  0  0  0  0  0  0  0  0  0  0
   -2.5730  -11.8180  -20.9340 N   0  0  0  0  0  0  0  0  0  0  0  0
   -1.6340  -12.0320  -21.8630 N   0  0  0  0  0  0  0  0  0  0  0  0
   -1.3890  -12.9780  -22.1180 H   0  0  0  0  0  0  0  0  0  0  0  0
    2.0860   -6.7050  -28.7970 O   0  0  0  0  0  0  0  0  0  0  0  0
    1.4930   -4.0450  -27.7180 F   0  0  0  0  0  0  0  0  0  0  0  0
    0.8160   -5.1420  -27.3450 C   0  0  0  0  0  0  0  0  0  0  0  0
   -0.1890   -4.9870  -26.3900 C   0  0  0  0  0  3  0  0  0  0  0  0
   -0.9200   -6.0940  -25.9590 C   0  0  0  0  0  3  0  0  0  0  0  0
   -0.6440   -7.3530  -26.4890 C   0  0  0  0  0  3  0  0  0  0  0  0
    0.3640   -7.5040  -27.4430 C   0  0  0  0  0  3  0  0  0  0  0  0
    1.1100   -6.4000  -27.8750 C   0  0  0  0  0  0  0  0  0  0  0  0
  1  2  2  0  0  0  0
  2  3  1  0  0  0  0
  3  4  1  0  0  0  0
  4  9  1  0  0  0  0
  4 10  1  0  0  0  0
  5  3  2  0  0  0  0
  6  5  1  0  0  0  0
  7  6  2  0  0  0  0
  7  1  1  0  0  0  0
  8  7  1  0  0  0  0
 10 11  2  0  0  0  0
 10 15  1  0  0  0  0
 11 12  1  0  0  0  0
 12 13  2  0  0  0  0
 13 16  1  0  0  0  0
 14 13  1  0  0  0  0
 15 14  2  0  0  0  0
 16 20  1  0  0  0  0
 16 17  2  0  0  0  0
 17 18  1  0  0  0  0
 19 18  2  0  0  0  0
 20 19  1  0  0  0  0
 21 20  1  0  0  0  0
 22  1  1  0  0  0  0
 22 29  1  0  0  0  0
 23 24  1  0  0  0  0
 24 25  1  0  0  0  0
 25 26  2  0  0  0  0
 27 26  1  0  0  0  0
 28 27  2  0  0  0  0
 29 28  1  0  0  0  0
 29 24  2  0  0  0  0
M  END
>  <minimizedAffinity>
-8.0271368

$$$$

 OpenBabel10152418103D

 29 32  0  0  0  0  0  0  0  0999 V2000
    2.8910   -7.5370  -28.9500 C   0  0  0  0  0  0  0  0  0  0  0  0
    2.5200   -8.1530  -27.8070 N   0  0  0  0  0  0  0  0  0  0  0  0
    3.4130   -8.9670  -27.2290 C   0  0  0  0  0  0  0  0  0  0  0  0
    3.1600   -9.5660  -26.0000 N   0  0  0  0  0  0  0  0  0  0  0  0
    4.6430   -9.1840  -27.7290 N   0  0  0  0  0  0  0  0  0  0  0  0
    4.9740   -8.5350  -28.8680 C   0  0  0  0  0  3  0  0  0  0  0  0
    4.1370   -7.6680  -29.5250 C   0  0  0  0  0  0  0  0  0  0  0  0
    4.6570   -6.8200  -30.9200 Cl  0  0  0  0  0  0  0  0  0  0  0  0
    3.9940  -10.0180  -25.6580 H   0  0  0  0  0  0  0  0  0  0  0  0
    2.0210   -9.6050  -25.1940 C   0  0  0  0  0  0  0  0  0  0  0  0
    1.7000  -10.8000  -24.5320 C   0  0  0  0  0  3  0  0  0  0  0  0
    0.6230  -10.8710  -23.6390 C   0  0  0  0  0  3  0  0  0  0  0  0
   -0.1700   -9.7450  -23.3930 C   0  0  0  0  0  0  0  0  0  0  0  0
    0.1290   -8.5590  -24.0710 C   0  0  0  0  0  3  0  0  0  0  0  0
    1.2230   -8.4860  -24.9420 C   0  0  0  0  0  3  0  0  0  0  0  0
   -1.2800   -9.7750  -22.4510 C   0  0  0  0  0  0  0  0  0  0  0  0
   -2.1750   -8.8330  -22.2200 N   0  0  0  0  0  0  0  0  0  0  0  0
   -3.0000   -9.3120  -21.2290 N   0  0  0  0  0  0  0  0  0  0  0  0
   -2.6150  -10.5160  -20.8330 N   0  0  0  0  0  0  0  0  0  0  0  0
   -1.5440  -10.8000  -21.5840 N   0  0  0  0  0  0  0  0  0  0  0  0
   -1.0420  -11.6640  -21.4340 H   0  0  0  0  0  0  0  0  0  0  0  0
    1.9880   -6.6170  -29.4310 O   0  0  0  0  0  0  0  0  0  0  0  0
   -0.1660   -7.6800  -27.7520 F   0  0  0  0  0  0  0  0  0  0  0  0
    0.1960   -6.3890  -27.7270 C   0  0  0  0  0  0  0  0  0  0  0  0
   -0.5100   -5.5360  -26.8790 C   0  0  0  0  0  3  0  0  0  0  0  0
   -0.1820   -4.1810  -26.8190 C   0  0  0  0  0  3  0  0  0  0  0  0
    0.8550   -3.6860  -27.6070 C   0  0  0  0  0  3  0  0  0  0  0  0
    1.5560   -4.5420  -28.4570 C   0  0  0  0  0  3  0  0  0  0  0  0
    1.2290   -5.9020  -28.5310 C   0  0  0  0  0  0  0  0  0  0  0  0
  1  2  2  0  0  0  0
  2  3  1  0  0  0  0
  3  4  1  0  0  0  0
  4  9  1  0  0  0  0
  4 10  1  0  0  0  0
  5  3  2  0  0  0  0
  6  5  1  0  0  0  0
  7  1  1  0  0  0  0
  7  6  2  0  0  0  0
  8  7  1  0  0  0  0
 10 15  2  0  0  0  0
 10 11  1  0  0  0  0
 11 12  2  0  0  0  0
 12 13  1  0  0  0  0
 13 16  1  0  0  0  0
 14 13  2  0  0  0  0
 15 14  1  0  0  0  0
 16 17  2  0  0  0  0
 16 20  1  0  0  0  0
 17 18  1  0  0  0  0
 18 19  2  0  0  0  0
 20 21  1  0  0  0  0
 20 19  1  0  0  0  0
 22  1  1  0  0  0  0
 22 29  1  0  0  0  0
 23 24  1  0  0  0  0
 24 25  1  0  0  0  0
 25 26  2  0  0  0  0
 27 26  1  0  0  0  0
 28 27  2  0  0  0  0
 29 28  1  0  0  0  0
 29 24  2  0  0  0  0
M  END
>  <minimizedAffinity>
-7.93370914

$$$$

 OpenBabel10152418103D

 29 32  0  0  0  0  0  0  0  0999 V2000
    2.8890   -7.5170  -27.4840 C   0  0  0  0  0  0  0  0  0  0  0  0
    1.7780   -7.6490  -26.7260 N   0  0  0  0  0  0  0  0  0  0  0  0
    0.7370   -6.8590  -27.0210 C   0  0  0  0  0  0  0  0  0  0  0  0
   -0.4820   -6.9900  -26.3640 N   0  0  0  0  0  0  0  0  0  0  0  0
    0.7520   -5.9640  -28.0260 N   0  0  0  0  0  0  0  0  0  0  0  0
    1.8810   -5.8780  -28.7640 C   0  0  0  0  0  3  0  0  0  0  0  0
    2.9930   -6.6540  -28.5530 C   0  0  0  0  0  0  0  0  0  0  0  0
    4.3580   -6.5440  -29.5830 Cl  0  0  0  0  0  0  0  0  0  0  0  0
   -1.1810   -6.4200  -26.8150 H   0  0  0  0  0  0  0  0  0  0  0  0
   -0.8790   -7.7680  -25.2740 C   0  0  0  0  0  0  0  0  0  0  0  0
   -1.1410   -9.1310  -25.4750 C   0  0  0  0  0  3  0  0  0  0  0  0
   -1.4530   -9.9780  -24.4030 C   0  0  0  0  0  3  0  0  0  0  0  0
   -1.5200   -9.4760  -23.0990 C   0  0  0  0  0  0  0  0  0  0  0  0
   -1.2870   -8.1130  -22.8970 C   0  0  0  0  0  3  0  0  0  0  0  0
   -0.9490   -7.2760  -23.9690 C   0  0  0  0  0  3  0  0  0  0  0  0
   -1.8150  -10.3330  -21.9590 C   0  0  0  0  0  0  0  0  0  0  0  0
   -2.6900  -10.1270  -20.9930 N   0  0  0  0  0  0  0  0  0  0  0  0
   -2.5830  -11.1960  -20.1340 N   0  0  0  0  0  0  0  0  0  0  0  0
   -1.6460  -12.0390  -20.5410 N   0  0  0  0  0  0  0  0  0  0  0  0
   -1.1630  -11.5000  -21.6660 N   0  0  0  0  0  0  0  0  0  0  0  0
   -0.3970  -11.9500  -22.1480 H   0  0  0  0  0  0  0  0  0  0  0  0
    3.8790   -8.4370  -27.2230 O   0  0  0  0  0  0  0  0  0  0  0  0
    2.8240  -10.9150  -26.0680 F   0  0  0  0  0  0  0  0  0  0  0  0
    3.3290  -10.8570  -27.3090 C   0  0  0  0  0  0  0  0  0  0  0  0
    3.3620  -12.0380  -28.0490 C   0  0  0  0  0  3  0  0  0  0  0  0
    3.8840  -12.0390  -29.3420 C   0  0  0  0  0  3  0  0  0  0  0  0
    4.3680  -10.8530  -29.8920 C   0  0  0  0  0  3  0  0  0  0  0  0
    4.3360   -9.6730  -29.1460 C   0  0  0  0  0  3  0  0  0  0  0  0
    3.8220   -9.6650  -27.8440 C   0  0  0  0  0  0  0  0  0  0  0  0
  1 22  1  0  0  0  0
  1  2  2  0  0  0  0
  3  2  1  0  0  0  0
  3  4  1  0  0  0  0
  4 10  1  0  0  0  0
  5  3  2  0  0  0  0
  6  7  2  0  0  0  0
  6  5  1  0  0  0  0
  7  1  1  0  0  0  0
  8  7  1  0  0  0  0
  9  4  1  0  0  0  0
 10 15  1  0  0  0  0
 11 10  2  0  0  0  0
 11 12  1  0  0  0  0
 12 13  2  0  0  0  0
 13 14  1  0  0  0  0
 13 16  1  0  0  0  0
 15 14  2  0  0  0  0
 16 20  1  0  0  0  0
 16 17  2  0  0  0  0
 17 18  1  0  0  0  0
 19 18  2  0  0  0  0
 20 19  1  0  0  0  0
 21 20  1  0  0  0  0
 24 23  1  0  0  0  0
 25 24  2  0  0  0  0
 26 25  1  0  0  0  0
 27 26  2  0  0  0  0
 27 28  1  0  0  0  0
 28 29  2  0  0  0  0
 29 24  1  0  0  0  0
 29 22  1  0  0  0  0
M  END
>  <minimizedAffinity>
-7.70721865

$$$$

 OpenBabel10152418103D

 29 32  0  0  0  0  0  0  0  0999 V2000
    2.5610   -7.4750  -27.5950 C   0  0  0  0  0  0  0  0  0  0  0  0
    1.5050   -7.5330  -26.7540 N   0  0  0  0  0  0  0  0  0  0  0  0
    0.5600   -6.5930  -26.8890 C   0  0  0  0  0  0  0  0  0  0  0  0
   -0.6110   -6.6280  -26.1380 N   0  0  0  0  0  0  0  0  0  0  0  0
    0.6170   -5.6180  -27.8140 N   0  0  0  0  0  0  0  0  0  0  0  0
    1.6870   -5.6090  -28.6410 C   0  0  0  0  0  3  0  0  0  0  0  0
    2.6970   -6.5370  -28.5950 C   0  0  0  0  0  0  0  0  0  0  0  0
    3.9800   -6.5080  -29.7300 Cl  0  0  0  0  0  0  0  0  0  0  0  0
   -1.2590   -5.9350  -26.4770 H   0  0  0  0  0  0  0  0  0  0  0  0
   -1.0230   -7.4460  -25.0840 C   0  0  0  0  0  0  0  0  0  0  0  0
   -1.3630   -8.7790  -25.3560 C   0  0  0  0  0  3  0  0  0  0  0  0
   -1.6950   -9.6710  -24.3260 C   0  0  0  0  0  3  0  0  0  0  0  0
   -1.7030   -9.2430  -22.9940 C   0  0  0  0  0  0  0  0  0  0  0  0
   -1.3920   -7.9080  -22.7210 C   0  0  0  0  0  3  0  0  0  0  0  0
   -1.0360   -7.0290  -23.7510 C   0  0  0  0  0  3  0  0  0  0  0  0
   -2.0160  -10.1480  -21.8970 C   0  0  0  0  0  0  0  0  0  0  0  0
   -2.5320   -9.8490  -20.7190 N   0  0  0  0  0  0  0  0  0  0  0  0
   -2.6140  -11.0290  -20.0170 N   0  0  0  0  0  0  0  0  0  0  0  0
   -2.1380  -12.0390  -20.7310 N   0  0  0  0  0  0  0  0  0  0  0  0
   -1.7590  -11.4920  -21.8920 N   0  0  0  0  0  0  0  0  0  0  0  0
   -1.3200  -12.0680  -22.5970 H   0  0  0  0  0  0  0  0  0  0  0  0
    3.4340   -8.5340  -27.4990 O   0  0  0  0  0  0  0  0  0  0  0  0
    3.6720  -11.2940  -28.4570 F   0  0  0  0  0  0  0  0  0  0  0  0
    3.1300  -10.9880  -27.2690 C   0  0  0  0  0  0  0  0  0  0  0  0
    2.6500  -12.0390  -26.4880 C   0  0  0  0  0  3  0  0  0  0  0  0
    2.0680  -11.7780  -25.2470 C   0  0  0  0  0  3  0  0  0  0  0  0
    1.9740  -10.4650  -24.7900 C   0  0  0  0  0  3  0  0  0  0  0  0
    2.4540   -9.4160  -25.5760 C   0  0  0  0  0  3  0  0  0  0  0  0
    3.0310   -9.6670  -26.8270 C   0  0  0  0  0  0  0  0  0  0  0  0
  1 22  1  0  0  0  0
  1  2  2  0  0  0  0
  3  2  1  0  0  0  0
  3  4  1  0  0  0  0
  4 10  1  0  0  0  0
  5  3  2  0  0  0  0
  6  7  2  0  0  0  0
  6  5  1  0  0  0  0
  7  1  1  0  0  0  0
  8  7  1  0  0  0  0
  9  4  1  0  0  0  0
 10 15  1  0  0  0  0
 11 10  2  0  0  0  0
 11 12  1  0  0  0  0
 12 13  2  0  0  0  0
 13 14  1  0  0  0  0
 13 16  1  0  0  0  0
 15 14  2  0  0  0  0
 16 20  1  0  0  0  0
 16 17  2  0  0  0  0
 17 18  1  0  0  0  0
 19 18  2  0  0  0  0
 20 19  1  0  0  0  0
 21 20  1  0  0  0  0
 22 29  1  0  0  0  0
 23 24  1  0  0  0  0
 24 29  2  0  0  0  0
 24 25  1  0  0  0  0
 25 26  2  0  0  0  0
 26 27  1  0  0  0  0
 28 27  2  0  0  0  0
 29 28  1  0  0  0  0
M  END
>  <minimizedAffinity>
-7.50167418

$$$$

 OpenBabel10152418103D

 29 32  0  0  0  0  0  0  0  0999 V2000
    2.9690   -7.4570  -27.7970 C   0  0  0  0  0  0  0  0  0  0  0  0
    1.9360   -7.1570  -26.9780 N   0  0  0  0  0  0  0  0  0  0  0  0
    1.0790   -6.2150  -27.3920 C   0  0  0  0  0  0  0  0  0  0  0  0
   -0.0680   -5.9090  -26.6660 N   0  0  0  0  0  0  0  0  0  0  0  0
    1.1980   -5.5750  -28.5690 N   0  0  0  0  0  0  0  0  0  0  0  0
    2.2390   -5.9180  -29.3600 C   0  0  0  0  0  3  0  0  0  0  0  0
    3.1600   -6.8820  -29.0350 C   0  0  0  0  0  0  0  0  0  0  0  0
    4.4070   -7.3200  -30.1260 Cl  0  0  0  0  0  0  0  0  0  0  0  0
   -0.6590   -5.2900  -27.1980 H   0  0  0  0  0  0  0  0  0  0  0  0
   -0.5230   -6.3270  -25.4140 C   0  0  0  0  0  0  0  0  0  0  0  0
   -1.2610   -7.5160  -25.3250 C   0  0  0  0  0  3  0  0  0  0  0  0
   -1.6630   -8.0330  -24.0850 C   0  0  0  0  0  3  0  0  0  0  0  0
   -1.3430   -7.3620  -22.9000 C   0  0  0  0  0  0  0  0  0  0  0  0
   -0.6310   -6.1610  -22.9850 C   0  0  0  0  0  3  0  0  0  0  0  0
   -0.2090   -5.6640  -24.2250 C   0  0  0  0  0  3  0  0  0  0  0  0
   -1.7210   -7.8830  -21.5940 C   0  0  0  0  0  0  0  0  0  0  0  0
   -1.6640   -9.1310  -21.1700 N   0  0  0  0  0  0  0  0  0  0  0  0
   -2.1550   -9.1300  -19.8850 N   0  0  0  0  0  0  0  0  0  0  0  0
   -2.5330   -7.9130  -19.5230 N   0  0  0  0  0  0  0  0  0  0  0  0
   -2.2730   -7.1410  -20.5840 N   0  0  0  0  0  0  0  0  0  0  0  0
   -2.5180   -6.1610  -20.5630 H   0  0  0  0  0  0  0  0  0  0  0  0
    3.7430   -8.5170  -27.3850 O   0  0  0  0  0  0  0  0  0  0  0  0
    2.3240   -8.6040  -24.8230 F   0  0  0  0  0  0  0  0  0  0  0  0
    2.4480   -9.6790  -25.6150 C   0  0  0  0  0  0  0  0  0  0  0  0
    1.8890  -10.8770  -25.1700 C   0  0  0  0  0  3  0  0  0  0  0  0
    1.9950  -12.0300  -25.9490 C   0  0  0  0  0  3  0  0  0  0  0  0
    2.6560  -11.9770  -27.1740 C   0  0  0  0  0  3  0  0  0  0  0  0
    3.2160  -10.7760  -27.6150 C   0  0  0  0  0  3  0  0  0  0  0  0
    3.1230   -9.6160  -26.8360 C   0  0  0  0  0  0  0  0  0  0  0  0
  1 22  1  0  0  0  0
  1  2  2  0  0  0  0
  3  2  1  0  0  0  0
  3  4  1  0  0  0  0
  4 10  1  0  0  0  0
  5  3  2  0  0  0  0
  6  7  2  0  0  0  0
  6  5  1  0  0  0  0
  7  1  1  0  0  0  0
  8  7  1  0  0  0  0
  9  4  1  0  0  0  0
 10 11  2  0  0  0  0
 10 15  1  0  0  0  0
 11 12  1  0  0  0  0
 12 13  2  0  0  0  0
 13 16  1  0  0  0  0
 14 13  1  0  0  0  0
 15 14  2  0  0  0  0
 16 17  2  0  0  0  0
 16 20  1  0  0  0  0
 17 18  1  0  0  0  0
 18 19  2  0  0  0  0
 20 21  1  0  0  0  0
 20 19  1  0  0  0  0
 22 29  1  0  0  0  0
 24 25  1  0  0  0  0
 24 23  1  0  0  0  0
 26 25  2  0  0  0  0
 27 26  1  0  0  0  0
 28 27  2  0  0  0  0
 28 29  1  0  0  0  0
 29 24  2  0  0  0  0
M  END
>  <minimizedAffinity>
-7.49698257

$$$$

 OpenBabel10152418103D

 29 32  0  0  0  0  0  0  0  0999 V2000
    3.5260   -9.7930  -27.3140 C   0  0  0  0  0  0  0  0  0  0  0  0
    2.9750   -8.5860  -27.5720 N   0  0  0  0  0  0  0  0  0  0  0  0
    3.2850   -8.0050  -28.7380 C   0  0  0  0  0  0  0  0  0  0  0  0
    2.6910   -6.8120  -29.1360 N   0  0  0  0  0  0  0  0  0  0  0  0
    4.1010   -8.5690  -29.6480 N   0  0  0  0  0  0  0  0  0  0  0  0
    4.6160   -9.7830  -29.3520 C   0  0  0  0  0  3  0  0  0  0  0  0
    4.3460  -10.4660  -28.1930 C   0  0  0  0  0  0  0  0  0  0  0  0
    4.9730  -12.0380  -27.9240 Cl  0  0  0  0  0  0  0  0  0  0  0  0
    2.9330   -6.6080  -30.0930 H   0  0  0  0  0  0  0  0  0  0  0  0
    1.8340   -5.9280  -28.4770 C   0  0  0  0  0  0  0  0  0  0  0  0
    1.0220   -6.4180  -27.4430 C   0  0  0  0  0  3  0  0  0  0  0  0
    0.2110   -5.5610  -26.6860 C   0  0  0  0  0  3  0  0  0  0  0  0
    0.1860   -4.1880  -26.9550 C   0  0  0  0  0  0  0  0  0  0  0  0
    0.9730   -3.6990  -28.0020 C   0  0  0  0  0  3  0  0  0  0  0  0
    1.8010   -4.5570  -28.7370 C   0  0  0  0  0  3  0  0  0  0  0  0
   -0.6230   -3.2640  -26.1720 C   0  0  0  0  0  0  0  0  0  0  0  0
   -1.3040   -3.5150  -25.0690 N   0  0  0  0  0  0  0  0  0  0  0  0
   -1.9290   -2.3410  -24.7200 N   0  0  0  0  0  0  0  0  0  0  0  0
   -1.6650   -1.3840  -25.5980 N   0  0  0  0  0  0  0  0  0  0  0  0
   -0.8630   -1.9580  -26.5030 N   0  0  0  0  0  0  0  0  0  0  0  0
   -0.5550   -1.4290  -27.3060 H   0  0  0  0  0  0  0  0  0  0  0  0
    3.0750  -10.4000  -26.1650 O   0  0  0  0  0  0  0  0  0  0  0  0
    2.3160   -8.0840  -24.5380 F   0  0  0  0  0  0  0  0  0  0  0  0
    1.4290   -9.0090  -24.9320 C   0  0  0  0  0  0  0  0  0  0  0  0
    0.1050   -8.8520  -24.5210 C   0  0  0  0  0  3  0  0  0  0  0  0
   -0.8590   -9.7890  -24.8930 C   0  0  0  0  0  3  0  0  0  0  0  0
   -0.4940  -10.8790  -25.6810 C   0  0  0  0  0  3  0  0  0  0  0  0
    0.8320  -11.0340  -26.0890 C   0  0  0  0  0  3  0  0  0  0  0  0
    1.8090  -10.1030  -25.7120 C   0  0  0  0  0  0  0  0  0  0  0  0
  1 22  1  0  0  0  0
  2  1  2  0  0  0  0
  3  2  1  0  0  0  0
  4  3  1  0  0  0  0
  4 10  1  0  0  0  0
  5  6  1  0  0  0  0
  5  3  2  0  0  0  0
  6  7  2  0  0  0  0
  7  8  1  0  0  0  0
  7  1  1  0  0  0  0
  9  4  1  0  0  0  0
 10 11  1  0  0  0  0
 11 12  2  0  0  0  0
 13 12  1  0  0  0  0
 13 16  1  0  0  0  0
 14 13  2  0  0  0  0
 15 10  2  0  0  0  0
 15 14  1  0  0  0  0
 16 17  2  0  0  0  0
 17 18  1  0  0  0  0
 19 18  2  0  0  0  0
 20 16  1  0  0  0  0
 20 19  1  0  0  0  0
 21 20  1  0  0  0  0
 22 29  1  0  0  0  0
 24 23  1  0  0  0  0
 24 25  1  0  0  0  0
 26 25  2  0  0  0  0
 27 26  1  0  0  0  0
 28 29  1  0  0  0  0
 28 27  2  0  0  0  0
 29 24  2  0  0  0  0
M  END
>  <minimizedAffinity>
-7.46043396

$$$$

 OpenBabel10152418103D

 29 32  0  0  0  0  0  0  0  0999 V2000
   -1.3590  -10.5640  -22.1960 C   0  0  0  0  0  0  0  0  0  0  0  0
   -0.8980   -9.5140  -22.9090 N   0  0  0  0  0  0  0  0  0  0  0  0
   -1.1870   -8.2880  -22.4530 C   0  0  0  0  0  0  0  0  0  0  0  0
   -0.6730   -7.1480  -23.0620 N   0  0  0  0  0  0  0  0  0  0  0  0
   -1.8970   -8.0670  -21.3320 N   0  0  0  0  0  0  0  0  0  0  0  0
   -2.3260   -9.1490  -20.6450 C   0  0  0  0  0  3  0  0  0  0  0  0
   -2.0670  -10.4440  -21.0200 C   0  0  0  0  0  0  0  0  0  0  0  0
   -2.5750  -11.7640  -20.0530 Cl  0  0  0  0  0  0  0  0  0  0  0  0
   -0.8740   -6.3350  -22.5000 H   0  0  0  0  0  0  0  0  0  0  0  0
    0.0680   -6.9630  -24.2320 C   0  0  0  0  0  0  0  0  0  0  0  0
    1.2790   -7.6550  -24.3820 C   0  0  0  0  0  3  0  0  0  0  0  0
    2.0170   -7.5810  -25.5710 C   0  0  0  0  0  3  0  0  0  0  0  0
    1.5630   -6.8010  -26.6400 C   0  0  0  0  0  0  0  0  0  0  0  0
    0.3700   -6.0890  -26.4860 C   0  0  0  0  0  3  0  0  0  0  0  0
   -0.3770   -6.1870  -25.3050 C   0  0  0  0  0  3  0  0  0  0  0  0
    2.2900   -6.7220  -27.9000 C   0  0  0  0  0  0  0  0  0  0  0  0
    1.8210   -6.3980  -29.0890 N   0  0  0  0  0  0  0  0  0  0  0  0
    2.8760   -6.4940  -29.9660 N   0  0  0  0  0  0  0  0  0  0  0  0
    3.9750   -6.8930  -29.3420 N   0  0  0  0  0  0  0  0  0  0  0  0
    3.6100   -7.0440  -28.0630 N   0  0  0  0  0  0  0  0  0  0  0  0
    4.2790   -7.3870  -27.3890 H   0  0  0  0  0  0  0  0  0  0  0  0
   -0.9270  -11.7950  -22.6350 O   0  0  0  0  0  0  0  0  0  0  0  0
    1.9560  -12.0370  -23.1010 F   0  0  0  0  0  0  0  0  0  0  0  0
    1.0650  -11.9900  -24.1030 C   0  0  0  0  0  0  0  0  0  0  0  0
    1.5580  -12.0370  -25.4070 C   0  0  0  0  0  3  0  0  0  0  0  0
    0.6780  -11.9820  -26.4890 C   0  0  0  0  0  3  0  0  0  0  0  0
   -0.6930  -11.8850  -26.2600 C   0  0  0  0  0  3  0  0  0  0  0  0
   -1.1810  -11.8350  -24.9520 C   0  0  0  0  0  3  0  0  0  0  0  0
   -0.3050  -11.8800  -23.8610 C   0  0  0  0  0  0  0  0  0  0  0  0
  1  7  1  0  0  0  0
  2  3  1  0  0  0  0
  2  1  2  0  0  0  0
  3  5  2  0  0  0  0
  4  9  1  0  0  0  0
  4  3  1  0  0  0  0
  5  6  1  0  0  0  0
  7  6  2  0  0  0  0
  7  8  1  0  0  0  0
 10  4  1  0  0  0  0
 11 10  1  0  0  0  0
 12 11  2  0  0  0  0
 13 14  2  0  0  0  0
 13 12  1  0  0  0  0
 14 15  1  0  0  0  0
 15 10  2  0  0  0  0
 16 13  1  0  0  0  0
 17 16  2  0  0  0  0
 18 19  2  0  0  0  0
 18 17  1  0  0  0  0
 19 20  1  0  0  0  0
 20 16  1  0  0  0  0
 20 21  1  0  0  0  0
 22  1  1  0  0  0  0
 24 29  1  0  0  0  0
 24 23  1  0  0  0  0
 25 24  2  0  0  0  0
 26 27  2  0  0  0  0
 26 25  1  0  0  0  0
 27 28  1  0  0  0  0
 28 29  2  0  0  0  0
 29 22  1  0  0  0  0
M  END
>  <minimizedAffinity>
-6.96430111

$$$$

 OpenBabel10152418103D

 29 32  0  0  0  0  0  0  0  0999 V2000
   -1.6960  -10.3310  -22.1260 C   0  0  0  0  0  0  0  0  0  0  0  0
   -1.3460   -9.1370  -22.6530 N   0  0  0  0  0  0  0  0  0  0  0  0
   -1.4150   -8.0680  -21.8480 C   0  0  0  0  0  0  0  0  0  0  0  0
   -0.9810   -6.8150  -22.2680 N   0  0  0  0  0  0  0  0  0  0  0  0
   -1.8030   -8.1370  -20.5620 N   0  0  0  0  0  0  0  0  0  0  0  0
   -2.1300   -9.3560  -20.0770 C   0  0  0  0  0  3  0  0  0  0  0  0
   -2.0760  -10.5120  -20.8150 C   0  0  0  0  0  0  0  0  0  0  0  0
   -2.4280  -12.0320  -20.1070 Cl  0  0  0  0  0  0  0  0  0  0  0  0
   -0.9710   -6.1730  -21.4900 H   0  0  0  0  0  0  0  0  0  0  0  0
   -0.5440   -6.3420  -23.5070 C   0  0  0  0  0  0  0  0  0  0  0  0
    0.1290   -7.2220  -24.3680 C   0  0  0  0  0  3  0  0  0  0  0  0
    0.5080   -6.8290  -25.6590 C   0  0  0  0  0  3  0  0  0  0  0  0
    0.2300   -5.5370  -26.1180 C   0  0  0  0  0  0  0  0  0  0  0  0
   -0.4170   -4.6480  -25.2540 C   0  0  0  0  0  3  0  0  0  0  0  0
   -0.8160   -5.0540  -23.9750 C   0  0  0  0  0  3  0  0  0  0  0  0
    0.5850   -5.1040  -27.4630 C   0  0  0  0  0  0  0  0  0  0  0  0
    0.1210   -5.5580  -28.6110 N   0  0  0  0  0  0  0  0  0  0  0  0
    0.7750   -4.8620  -29.6000 N   0  0  0  0  0  0  0  0  0  0  0  0
    1.6460   -4.0090  -29.0820 N   0  0  0  0  0  0  0  0  0  0  0  0
    1.5360   -4.1650  -27.7580 N   0  0  0  0  0  0  0  0  0  0  0  0
    2.1390   -3.6410  -27.1390 H   0  0  0  0  0  0  0  0  0  0  0  0
   -1.4850  -11.4110  -22.9540 O   0  0  0  0  0  0  0  0  0  0  0  0
   -2.2990  -11.0180  -25.7410 F   0  0  0  0  0  0  0  0  0  0  0  0
   -1.0120  -11.0800  -25.3690 C   0  0  0  0  0  0  0  0  0  0  0  0
   -0.0440  -10.9740  -26.3670 C   0  0  0  0  0  3  0  0  0  0  0  0
    1.3100  -11.0410  -26.0380 C   0  0  0  0  0  3  0  0  0  0  0  0
    1.6900  -11.2100  -24.7080 C   0  0  0  0  0  3  0  0  0  0  0  0
    0.7180  -11.3190  -23.7120 C   0  0  0  0  0  3  0  0  0  0  0  0
   -0.6440  -11.2630  -24.0340 C   0  0  0  0  0  0  0  0  0  0  0  0
  1  7  1  0  0  0  0
  2  1  2  0  0  0  0
  2  3  1  0  0  0  0
  3  5  2  0  0  0  0
  4  3  1  0  0  0  0
  4  9  1  0  0  0  0
  5  6  1  0  0  0  0
  7  8  1  0  0  0  0
  7  6  2  0  0  0  0
 10  4  1  0  0  0  0
 11 10  2  0  0  0  0
 12 11  1  0  0  0  0
 13 12  2  0  0  0  0
 13 14  1  0  0  0  0
 14 15  2  0  0  0  0
 15 10  1  0  0  0  0
 16 13  1  0  0  0  0
 17 16  2  0  0  0  0
 18 19  2  0  0  0  0
 18 17  1  0  0  0  0
 19 20  1  0  0  0  0
 20 16  1  0  0  0  0
 20 21  1  0  0  0  0
 22  1  1  0  0  0  0
 23 24  1  0  0  0  0
 24 29  1  0  0  0  0
 25 26  1  0  0  0  0
 25 24  2  0  0  0  0
 26 27  2  0  0  0  0
 27 28  1  0  0  0  0
 29 28  2  0  0  0  0
 29 22  1  0  0  0  0
M  END
>  <minimizedAffinity>
-6.6143055

$$$$
