
 OpenBabel10152418103D

 29 32  0  0  0  0  0  0  0  0999 V2000
   -1.3590  -10.5640  -22.1960 C   0  0  0  0  0  0  0  0  0  0  0  0
   -0.8980   -9.5140  -22.9090 N   0  0  0  0  0  0  0  0  0  0  0  0
   -1.1870   -8.2880  -22.4530 C   0  0  0  0  0  0  0  0  0  0  0  0
   -0.6730   -7.1480  -23.0620 N   0  0  0  0  0  0  0  0  0  0  0  0
   -1.8970   -8.0670  -21.3320 N   0  0  0  0  0  0  0  0  0  0  0  0
   -2.3260   -9.1490  -20.6450 C   0  0  0  0  0  3  0  0  0  0  0  0
   -2.0670  -10.4440  -21.0200 C   0  0  0  0  0  0  0  0  0  0  0  0
   -2.5750  -11.7640  -20.0530 Cl  0  0  0  0  0  0  0  0  0  0  0  0
   -0.8740   -6.3350  -22.5000 H   0  0  0  0  0  0  0  0  0  0  0  0
    0.0680   -6.9630  -24.2320 C   0  0  0  0  0  0  0  0  0  0  0  0
    1.2790   -7.6550  -24.3820 C   0  0  0  0  0  3  0  0  0  0  0  0
    2.0170   -7.5810  -25.5710 C   0  0  0  0  0  3  0  0  0  0  0  0
    1.5630   -6.8010  -26.6400 C   0  0  0  0  0  0  0  0  0  0  0  0
    0.3700   -6.0890  -26.4860 C   0  0  0  0  0  3  0  0  0  0  0  0
   -0.3770   -6.1870  -25.3050 C   0  0  0  0  0  3  0  0  0  0  0  0
    2.2900   -6.7220  -27.9000 C   0  0  0  0  0  0  0  0  0  0  0  0
    1.8210   -6.3980  -29.0890 N   0  0  0  0  0  0  0  0  0  0  0  0
    2.8760   -6.4940  -29.9660 N   0  0  0  0  0  0  0  0  0  0  0  0
    3.9750   -6.8930  -29.3420 N   0  0  0  0  0  0  0  0  0  0  0  0
    3.6100   -7.0440  -28.0630 N   0  0  0  0  0  0  0  0  0  0  0  0
    4.2790   -7.3870  -27.3890 H   0  0  0  0  0  0  0  0  0  0  0  0
   -0.9270  -11.7950  -22.6350 O   0  0  0  0  0  0  0  0  0  0  0  0
    1.9560  -12.0370  -23.1010 F   0  0  0  0  0  0  0  0  0  0  0  0
    1.0650  -11.9900  -24.1030 C   0  0  0  0  0  0  0  0  0  0  0  0
    1.5580  -12.0370  -25.4070 C   0  0  0  0  0  3  0  0  0  0  0  0
    0.6780  -11.9820  -26.4890 C   0  0  0  0  0  3  0  0  0  0  0  0
   -0.6930  -11.8850  -26.2600 C   0  0  0  0  0  3  0  0  0  0  0  0
   -1.1810  -11.8350  -24.9520 C   0  0  0  0  0  3  0  0  0  0  0  0
   -0.3050  -11.8800  -23.8610 C   0  0  0  0  0  0  0  0  0  0  0  0
  1  7  1  0  0  0  0
  2  3  1  0  0  0  0
  2  1  2  0  0  0  0
  3  5  2  0  0  0  0
  4  9  1  0  0  0  0
  4  3  1  0  0  0  0
  5  6  1  0  0  0  0
  7  6  2  0  0  0  0
  7  8  1  0  0  0  0
 10  4  1  0  0  0  0
 11 10  1  0  0  0  0
 12 11  2  0  0  0  0
 13 14  2  0  0  0  0
 13 12  1  0  0  0  0
 14 15  1  0  0  0  0
 15 10  2  0  0  0  0
 16 13  1  0  0  0  0
 17 16  2  0  0  0  0
 18 19  2  0  0  0  0
 18 17  1  0  0  0  0
 19 20  1  0  0  0  0
 20 16  1  0  0  0  0
 20 21  1  0  0  0  0
 22  1  1  0  0  0  0
 24 29  1  0  0  0  0
 24 23  1  0  0  0  0
 25 24  2  0  0  0  0
 26 27  2  0  0  0  0
 26 25  1  0  0  0  0
 27 28  1  0  0  0  0
 28 29  2  0  0  0  0
 29 22  1  0  0  0  0
M  END
>  <minimizedAffinity>
-6.96430111

$$$$
