
 OpenBabel11232419413D

 35 39  0  0  1  0  0  0  0  0999 V2000
   57.5460  -42.1850   16.8320 O   0  0  0  0  0  0  0  0  0  0  0  0
   60.4400  -42.5140   14.5210 C   0  0  0  0  0  0  0  0  0  0  0  0
   59.7540  -43.2310   13.5450 C   0  0  0  0  0  3  0  0  0  0  0  0
   58.4350  -43.5290   13.6050 N   0  0  0  0  0  0  0  0  0  0  0  0
   57.7580  -43.1080   14.6940 C   0  0  0  0  0  3  0  0  0  0  0  0
   58.3350  -42.4020   15.7410 C   0  0  0  0  0  0  0  0  0  0  0  0
   59.6810  -42.0690   15.6170 C   0  0  0  0  0  3  0  0  0  0  0  0
   65.3150  -42.4250   17.7120 C   0  0  0  0  0  1  0  0  0  0  0  0
   65.2220  -42.1160   16.2630 C   0  0  0  0  0  0  0  0  0  0  0  0
   66.3170  -41.7730   15.5760 N   0  0  0  0  0  0  0  0  0  0  0  0
   65.8710  -41.5710   14.3260 N   0  0  0  0  0  0  0  0  0  0  0  0
   64.5260  -41.7730   14.1790 C   0  0  0  0  0  0  0  0  0  0  0  0
   63.6900  -41.6810   13.0810 C   0  0  0  0  0  3  0  0  0  0  0  0
   62.3680  -41.9440   13.2430 N   0  0  0  0  0  0  0  0  0  0  0  0
   61.8910  -42.2840   14.4800 C   0  0  0  0  0  0  0  0  0  0  0  0
   62.7010  -42.3940   15.6100 C   0  0  0  0  0  3  0  0  0  0  0  0
   64.0660  -42.1270   15.4390 C   0  0  0  0  0  0  0  0  0  0  0  0
   66.5450  -41.2960   13.6210 H   0  0  0  0  0  0  0  0  0  0  0  0
   57.3730  -43.2250   17.8000 C   0  0  0  0  0  2  0  0  0  0  0  0
   57.8440  -42.7700   19.2020 C   0  0  1  0  0  3  0  0  0  0  0  0
   57.5440  -43.8260   20.2340 N   0  0  0  0  0  4  0  0  0  0  0  0
   58.0440  -44.7120   20.0770 H   0  0  0  0  0  0  0  0  0  0  0  0
   57.7610  -43.5060   21.1860 H   0  0  0  0  0  0  0  0  0  0  0  0
   56.5370  -44.0500   20.2210 H   0  0  0  0  0  0  0  0  0  0  0  0
   59.3450  -42.4470   19.2490 C   0  0  0  0  0  2  0  0  0  0  0  0
   59.6090  -41.0020   19.5070 C   0  0  0  0  0  0  0  0  0  0  0  0
   58.7670  -40.1290   20.1700 C   0  0  0  0  0  3  0  0  0  0  0  0
   59.3580  -38.8940   20.1940 N   0  0  0  0  0  0  0  0  0  0  0  0
   60.5700  -38.9380   19.5460 C   0  0  0  0  0  0  0  0  0  0  0  0
   61.5010  -37.9170   19.3200 C   0  0  0  0  0  3  0  0  0  0  0  0
   62.6730  -38.2480   18.6370 C   0  0  0  0  0  3  0  0  0  0  0  0
   62.9060  -39.5510   18.2070 C   0  0  0  0  0  3  0  0  0  0  0  0
   61.9670  -40.5620   18.4440 C   0  0  0  0  0  3  0  0  0  0  0  0
   60.7680  -40.2510   19.1220 C   0  0  0  0  0  0  0  0  0  0  0  0
   58.9710  -38.0630   20.6250 H   0  0  0  0  0  0  0  0  0  0  0  0
  1 19  1  0  0  0  0
  2  7  1  0  0  0  0
  3  4  1  0  0  0  0
  3  2  2  0  0  0  0
  4  5  2  0  0  0  0
  5  6  1  0  0  0  0
  6  1  1  0  0  0  0
  7  6  2  0  0  0  0
  9  8  1  0  0  0  0
 10  9  2  0  0  0  0
 11 10  1  0  0  0  0
 12 11  1  0  0  0  0
 12 17  1  0  0  0  0
 13 14  1  0  0  0  0
 13 12  2  0  0  0  0
 14 15  2  0  0  0  0
 15  2  1  0  0  0  0
 15 16  1  0  0  0  0
 17 16  2  0  0  0  0
 17  9  1  0  0  0  0
 18 11  1  0  0  0  0
 20 19  1  6  0  0  0
 20 25  1  0  0  0  0
 20 21  1  0  0  0  0
 21 23  1  0  0  0  0
 22 21  1  0  0  0  0
 24 21  1  0  0  0  0
 25 26  1  0  0  0  0
 26 27  2  0  0  0  0
 27 28  1  0  0  0  0
 28 35  1  0  0  0  0
 29 28  1  0  0  0  0
 30 29  1  0  0  0  0
 31 30  2  0  0  0  0
 32 33  2  0  0  0  0
 32 31  1  0  0  0  0
 33 34  1  0  0  0  0
 34 26  1  0  0  0  0
 34 29  2  0  0  0  0
M  END
>  <minimizedAffinity>
-5.31554031

$$$$
