
 OpenBabel11232419413D

 35 39  0  0  1  0  0  0  0  0999 V2000
   57.6680  -40.5090   18.6680 O   0  0  0  0  0  0  0  0  0  0  0  0
   61.3750  -40.2270   18.6440 C   0  0  0  0  0  0  0  0  0  0  0  0
   61.4640  -39.4890   19.8200 C   0  0  0  0  0  3  0  0  0  0  0  0
   60.4030  -39.1630   20.5960 N   0  0  0  0  0  0  0  0  0  0  0  0
   59.1870  -39.5770   20.1810 C   0  0  0  0  0  3  0  0  0  0  0  0
   58.9700  -40.3020   19.0170 C   0  0  0  0  0  0  0  0  0  0  0  0
   60.0910  -40.6620   18.2750 C   0  0  0  0  0  3  0  0  0  0  0  0
   65.6510  -43.9980   17.4370 C   0  0  0  0  0  1  0  0  0  0  0  0
   65.4190  -42.7030   16.7500 C   0  0  0  0  0  0  0  0  0  0  0  0
   66.2330  -42.3070   15.7650 N   0  0  0  0  0  0  0  0  0  0  0  0
   65.7340  -41.1210   15.3840 N   0  0  0  0  0  0  0  0  0  0  0  0
   64.6250  -40.7340   16.0860 C   0  0  0  0  0  0  0  0  0  0  0  0
   63.8220  -39.6120   16.0040 C   0  0  0  0  0  3  0  0  0  0  0  0
   62.7670  -39.5000   16.8520 N   0  0  0  0  0  0  0  0  0  0  0  0
   62.5270  -40.4870   17.7690 C   0  0  0  0  0  0  0  0  0  0  0  0
   63.3100  -41.6370   17.8800 C   0  0  0  0  0  3  0  0  0  0  0  0
   64.3940  -41.7520   17.0000 C   0  0  0  0  0  0  0  0  0  0  0  0
   66.2040  -40.6280   14.6330 H   0  0  0  0  0  0  0  0  0  0  0  0
   56.9570  -41.6270   19.2100 C   0  0  0  0  0  2  0  0  0  0  0  0
   57.7770  -42.9320   19.0770 C   0  0  1  0  0  3  0  0  0  0  0  0
   57.5680  -43.8180   20.2780 N   0  0  0  0  0  4  0  0  0  0  0  0
   56.5970  -44.1420   20.3890 H   0  0  0  0  0  0  0  0  0  0  0  0
   58.1760  -44.6460   20.2560 H   0  0  0  0  0  0  0  0  0  0  0  0
   57.8060  -43.3010   21.1390 H   0  0  0  0  0  0  0  0  0  0  0  0
   57.4260  -43.7280   17.8110 C   0  0  0  0  0  2  0  0  0  0  0  0
   58.2650  -43.3360   16.6410 C   0  0  0  0  0  0  0  0  0  0  0  0
   57.8640  -42.5340   15.5890 C   0  0  0  0  0  3  0  0  0  0  0  0
   58.9110  -42.4160   14.7130 N   0  0  0  0  0  0  0  0  0  0  0  0
   59.9890  -43.1390   15.1670 C   0  0  0  0  0  0  0  0  0  0  0  0
   61.2540  -43.3140   14.5930 C   0  0  0  0  0  3  0  0  0  0  0  0
   62.1770  -44.1000   15.2870 C   0  0  0  0  0  3  0  0  0  0  0  0
   61.8480  -44.6790   16.5090 C   0  0  0  0  0  3  0  0  0  0  0  0
   60.5800  -44.4910   17.0710 C   0  0  0  0  0  3  0  0  0  0  0  0
   59.6250  -43.7110   16.3850 C   0  0  0  0  0  0  0  0  0  0  0  0
   58.9060  -41.8770   13.8560 H   0  0  0  0  0  0  0  0  0  0  0  0
  1  6  1  0  0  0  0
  1 19  1  0  0  0  0
  2  3  1  0  0  0  0
  3  4  2  0  0  0  0
  5  4  1  0  0  0  0
  6  5  2  0  0  0  0
  7  2  2  0  0  0  0
  7  6  1  0  0  0  0
  9 17  1  0  0  0  0
  9  8  1  0  0  0  0
 10  9  2  0  0  0  0
 11 10  1  0  0  0  0
 11 12  1  0  0  0  0
 12 17  1  0  0  0  0
 13 12  2  0  0  0  0
 13 14  1  0  0  0  0
 14 15  2  0  0  0  0
 15 16  1  0  0  0  0
 15  2  1  0  0  0  0
 17 16  2  0  0  0  0
 18 11  1  0  0  0  0
 20 25  1  6  0  0  0
 20 19  1  0  0  0  0
 20 21  1  0  0  0  0
 21 22  1  0  0  0  0
 21 24  1  0  0  0  0
 23 21  1  0  0  0  0
 26 25  1  0  0  0  0
 27 26  2  0  0  0  0
 28 29  1  0  0  0  0
 28 27  1  0  0  0  0
 29 34  1  0  0  0  0
 30 29  2  0  0  0  0
 30 31  1  0  0  0  0
 31 32  2  0  0  0  0
 32 33  1  0  0  0  0
 34 26  1  0  0  0  0
 34 33  2  0  0  0  0
 35 28  1  0  0  0  0
M  END
>  <minimizedAffinity>
-5.49134684

$$$$
