
 OpenBabel11232419413D

 35 39  0  0  1  0  0  0  0  0999 V2000
   58.3140  -41.3440   19.8510 O   0  0  0  0  0  0  0  0  0  0  0  0
   61.5510  -39.9900   18.6190 C   0  0  0  0  0  0  0  0  0  0  0  0
   61.3510  -38.7000   19.1010 C   0  0  0  0  0  3  0  0  0  0  0  0
   60.2750  -38.3160   19.8260 N   0  0  0  0  0  0  0  0  0  0  0  0
   59.3370  -39.2540   20.0800 C   0  0  0  0  0  3  0  0  0  0  0  0
   59.4150  -40.5680   19.6370 C   0  0  0  0  0  0  0  0  0  0  0  0
   60.5620  -40.9360   18.9390 C   0  0  0  0  0  3  0  0  0  0  0  0
   65.7250  -43.9540   17.7100 C   0  0  0  0  0  1  0  0  0  0  0  0
   65.5040  -42.7280   16.9030 C   0  0  0  0  0  0  0  0  0  0  0  0
   66.3050  -42.4480   15.8690 N   0  0  0  0  0  0  0  0  0  0  0  0
   65.8230  -41.2940   15.3820 N   0  0  0  0  0  0  0  0  0  0  0  0
   64.7370  -40.8160   16.0640 C   0  0  0  0  0  0  0  0  0  0  0  0
   63.9540  -39.6900   15.8870 C   0  0  0  0  0  3  0  0  0  0  0  0
   62.9200  -39.4730   16.7390 N   0  0  0  0  0  0  0  0  0  0  0  0
   62.6790  -40.3600   17.7530 C   0  0  0  0  0  0  0  0  0  0  0  0
   63.4410  -41.5100   17.9610 C   0  0  0  0  0  3  0  0  0  0  0  0
   64.5030  -41.7350   17.0770 C   0  0  0  0  0  0  0  0  0  0  0  0
   66.2870  -40.8870   14.5790 H   0  0  0  0  0  0  0  0  0  0  0  0
   57.0990  -41.0600   19.1490 C   0  0  0  0  0  2  0  0  0  0  0  0
   56.7210  -42.2140   18.1920 C   0  0  1  0  0  3  0  0  0  0  0  0
   55.2470  -42.1900   17.8830 N   0  0  0  0  0  4  0  0  0  0  0  0
   54.9420  -41.3410   17.3850 H   0  0  0  0  0  0  0  0  0  0  0  0
   54.9570  -43.0030   17.3250 H   0  0  0  0  0  0  0  0  0  0  0  0
   54.7060  -42.2270   18.7600 H   0  0  0  0  0  0  0  0  0  0  0  0
   57.5030  -42.1690   16.8700 C   0  0  0  0  0  2  0  0  0  0  0  0
   58.6590  -43.1110   16.8590 C   0  0  0  0  0  0  0  0  0  0  0  0
   58.7800  -44.2560   17.6240 C   0  0  0  0  0  3  0  0  0  0  0  0
   59.9840  -44.8420   17.3370 N   0  0  0  0  0  0  0  0  0  0  0  0
   60.6620  -44.0940   16.4050 C   0  0  0  0  0  0  0  0  0  0  0  0
   61.9230  -44.3040   15.8340 C   0  0  0  0  0  3  0  0  0  0  0  0
   62.3690  -43.3800   14.8870 C   0  0  0  0  0  3  0  0  0  0  0  0
   61.5800  -42.2940   14.5220 C   0  0  0  0  0  3  0  0  0  0  0  0
   60.3200  -42.0980   15.0990 C   0  0  0  0  0  3  0  0  0  0  0  0
   59.8500  -43.0110   16.0670 C   0  0  0  0  0  0  0  0  0  0  0  0
   60.3330  -45.7020   17.7420 H   0  0  0  0  0  0  0  0  0  0  0  0
  2  7  2  0  0  0  0
  2  3  1  0  0  0  0
  3  4  2  0  0  0  0
  4  5  1  0  0  0  0
  6  1  1  0  0  0  0
  6  5  2  0  0  0  0
  7  6  1  0  0  0  0
  9 17  1  0  0  0  0
  9  8  1  0  0  0  0
 10  9  2  0  0  0  0
 11 10  1  0  0  0  0
 11 12  1  0  0  0  0
 12 17  1  0  0  0  0
 13 12  2  0  0  0  0
 13 14  1  0  0  0  0
 14 15  2  0  0  0  0
 15 16  1  0  0  0  0
 15  2  1  0  0  0  0
 17 16  2  0  0  0  0
 18 11  1  0  0  0  0
 19  1  1  0  0  0  0
 20 25  1  6  0  0  0
 20 19  1  0  0  0  0
 21 20  1  0  0  0  0
 21 24  1  0  0  0  0
 22 21  1  0  0  0  0
 23 21  1  0  0  0  0
 26 25  1  0  0  0  0
 26 27  2  0  0  0  0
 28 27  1  0  0  0  0
 28 35  1  0  0  0  0
 29 28  1  0  0  0  0
 30 29  2  0  0  0  0
 31 30  1  0  0  0  0
 32 31  2  0  0  0  0
 32 33  1  0  0  0  0
 33 34  2  0  0  0  0
 34 29  1  0  0  0  0
 34 26  1  0  0  0  0
M  END
>  <minimizedAffinity>
-5.68039751

$$$$
