
 OpenBabel11232419413D

 35 39  0  0  1  0  0  0  0  0999 V2000
   56.4270  -42.2300   15.5930 O   0  0  0  0  0  0  0  0  0  0  0  0
   60.0190  -43.0570   16.0840 C   0  0  0  0  0  0  0  0  0  0  0  0
   59.7920  -44.2560   16.7540 C   0  0  0  0  0  3  0  0  0  0  0  0
   58.5660  -44.7860   16.9720 N   0  0  0  0  0  0  0  0  0  0  0  0
   57.5030  -44.0880   16.5160 C   0  0  0  0  0  3  0  0  0  0  0  0
   57.6010  -42.8730   15.8510 C   0  0  0  0  0  0  0  0  0  0  0  0
   58.8810  -42.3880   15.6010 C   0  0  0  0  0  3  0  0  0  0  0  0
   65.7200  -43.9170   16.9280 C   0  0  0  0  0  1  0  0  0  0  0  0
   65.1010  -42.6830   16.3830 C   0  0  0  0  0  0  0  0  0  0  0  0
   65.8660  -41.6370   16.0450 N   0  0  0  0  0  0  0  0  0  0  0  0
   64.9920  -40.7220   15.6000 N   0  0  0  0  0  0  0  0  0  0  0  0
   63.6890  -41.1360   15.6360 C   0  0  0  0  0  0  0  0  0  0  0  0
   62.5090  -40.5150   15.2690 C   0  0  0  0  0  3  0  0  0  0  0  0
   61.3400  -41.1890   15.4230 N   0  0  0  0  0  0  0  0  0  0  0  0
   61.3510  -42.4550   15.9430 C   0  0  0  0  0  0  0  0  0  0  0  0
   62.5200  -43.1180   16.3200 C   0  0  0  0  0  3  0  0  0  0  0  0
   63.7240  -42.4230   16.1530 C   0  0  0  0  0  0  0  0  0  0  0  0
   65.3580  -39.8310   15.2840 H   0  0  0  0  0  0  0  0  0  0  0  0
   55.3890  -42.2250   16.5780 C   0  0  0  0  0  2  0  0  0  0  0  0
   55.3030  -40.8580   17.2960 C   0  0  1  0  0  3  0  0  0  0  0  0
   53.9670  -40.2070   17.0460 N   0  0  0  0  0  4  0  0  0  0  0  0
   53.1700  -40.7400   17.4230 H   0  0  0  0  0  0  0  0  0  0  0  0
   53.9230  -39.2570   17.4340 H   0  0  0  0  0  0  0  0  0  0  0  0
   53.8070  -40.1180   16.0310 H   0  0  0  0  0  0  0  0  0  0  0  0
   55.5210  -40.9690   18.8130 C   0  0  0  0  0  2  0  0  0  0  0  0
   56.8430  -41.5670   19.1570 C   0  0  0  0  0  0  0  0  0  0  0  0
   57.0490  -42.8210   19.7000 C   0  0  0  0  0  3  0  0  0  0  0  0
   58.3960  -42.9980   19.8790 N   0  0  0  0  0  0  0  0  0  0  0  0
   59.0770  -41.8750   19.4740 C   0  0  0  0  0  0  0  0  0  0  0  0
   60.4510  -41.6080   19.4870 C   0  0  0  0  0  3  0  0  0  0  0  0
   60.8770  -40.3720   18.9960 C   0  0  0  0  0  3  0  0  0  0  0  0
   59.9630  -39.4450   18.5030 C   0  0  0  0  0  3  0  0  0  0  0  0
   58.5920  -39.7280   18.4930 C   0  0  0  0  0  3  0  0  0  0  0  0
   58.1340  -40.9650   18.9950 C   0  0  0  0  0  0  0  0  0  0  0  0
   58.8370  -43.8300   20.2500 H   0  0  0  0  0  0  0  0  0  0  0  0
  1  6  1  0  0  0  0
  1 19  1  0  0  0  0
  2  3  1  0  0  0  0
  3  4  2  0  0  0  0
  5  4  1  0  0  0  0
  6  5  2  0  0  0  0
  7  6  1  0  0  0  0
  7  2  2  0  0  0  0
  9  8  1  0  0  0  0
 10  9  2  0  0  0  0
 11 12  1  0  0  0  0
 11 10  1  0  0  0  0
 12 17  1  0  0  0  0
 13 14  1  0  0  0  0
 13 12  2  0  0  0  0
 14 15  2  0  0  0  0
 15  2  1  0  0  0  0
 15 16  1  0  0  0  0
 17 16  2  0  0  0  0
 17  9  1  0  0  0  0
 18 11  1  0  0  0  0
 20 19  1  6  0  0  0
 20 25  1  0  0  0  0
 21 20  1  0  0  0  0
 21 22  1  0  0  0  0
 21 23  1  0  0  0  0
 24 21  1  0  0  0  0
 25 26  1  0  0  0  0
 26 27  2  0  0  0  0
 27 28  1  0  0  0  0
 28 35  1  0  0  0  0
 29 30  1  0  0  0  0
 29 28  1  0  0  0  0
 31 30  2  0  0  0  0
 32 31  1  0  0  0  0
 33 32  2  0  0  0  0
 33 34  1  0  0  0  0
 34 26  1  0  0  0  0
 34 29  2  0  0  0  0
M  END
>  <minimizedAffinity>
-5.4140811

$$$$
