
 OpenBabel11232419413D

 35 39  0  0  1  0  0  0  0  0999 V2000
   62.1280  -41.3620   14.3540 O   0  0  0  0  0  0  0  0  0  0  0  0
   58.8140  -42.3990   15.6820 C   0  0  0  0  0  0  0  0  0  0  0  0
   58.1990  -42.5140   14.4390 C   0  0  0  0  0  3  0  0  0  0  0  0
   58.8310  -42.3300   13.2570 N   0  0  0  0  0  0  0  0  0  0  0  0
   60.1410  -42.0020   13.3030 C   0  0  0  0  0  3  0  0  0  0  0  0
   60.8580  -41.8410   14.4810 C   0  0  0  0  0  0  0  0  0  0  0  0
   60.1850  -42.0890   15.6740 C   0  0  0  0  0  3  0  0  0  0  0  0
   54.5110  -40.1280   18.8890 C   0  0  0  0  0  1  0  0  0  0  0  0
   55.3830  -41.2610   19.2870 C   0  0  0  0  0  0  0  0  0  0  0  0
   55.2220  -41.8490   20.4780 N   0  0  0  0  0  0  0  0  0  0  0  0
   56.1580  -42.8100   20.4990 N   0  0  0  0  0  0  0  0  0  0  0  0
   56.9190  -42.8670   19.3630 C   0  0  0  0  0  0  0  0  0  0  0  0
   57.9600  -43.6960   18.9870 C   0  0  0  0  0  3  0  0  0  0  0  0
   58.5360  -43.5100   17.7710 N   0  0  0  0  0  0  0  0  0  0  0  0
   58.0850  -42.5100   16.9530 C   0  0  0  0  0  0  0  0  0  0  0  0
   57.0350  -41.6570   17.2940 C   0  0  0  0  0  3  0  0  0  0  0  0
   56.4390  -41.8550   18.5460 C   0  0  0  0  0  0  0  0  0  0  0  0
   56.2200  -43.3940   21.3250 H   0  0  0  0  0  0  0  0  0  0  0  0
   62.6750  -40.5190   15.3740 C   0  0  0  0  0  2  0  0  0  0  0  0
   63.8500  -41.2110   16.1030 C   0  0  1  0  0  3  0  0  0  0  0  0
   65.1600  -40.8780   15.4370 N   0  0  0  0  0  4  0  0  0  0  0  0
   65.3990  -39.8770   15.4710 H   0  0  0  0  0  0  0  0  0  0  0  0
   65.9440  -41.4030   15.8460 H   0  0  0  0  0  0  0  0  0  0  0  0
   65.1210  -41.1390   14.4400 H   0  0  0  0  0  0  0  0  0  0  0  0
   63.9400  -40.8250   17.5870 C   0  0  0  0  0  2  0  0  0  0  0  0
   62.7040  -41.1790   18.3440 C   0  0  0  0  0  0  0  0  0  0  0  0
   62.2950  -42.4580   18.6760 C   0  0  0  0  0  3  0  0  0  0  0  0
   61.1120  -42.3680   19.3590 N   0  0  0  0  0  0  0  0  0  0  0  0
   60.7300  -41.0530   19.4710 C   0  0  0  0  0  0  0  0  0  0  0  0
   59.5940  -40.4990   20.0730 C   0  0  0  0  0  3  0  0  0  0  0  0
   59.4620  -39.1080   20.0540 C   0  0  0  0  0  3  0  0  0  0  0  0
   60.4340  -38.3060   19.4630 C   0  0  0  0  0  3  0  0  0  0  0  0
   61.5660  -38.8750   18.8680 C   0  0  0  0  0  3  0  0  0  0  0  0
   61.7180  -40.2780   18.8640 C   0  0  0  0  0  0  0  0  0  0  0  0
   60.5870  -43.1480   19.7350 H   0  0  0  0  0  0  0  0  0  0  0  0
  1  6  1  0  0  0  0
  1 19  1  0  0  0  0
  2 15  1  0  0  0  0
  3  2  2  0  0  0  0
  4  5  2  0  0  0  0
  4  3  1  0  0  0  0
  5  6  1  0  0  0  0
  6  7  2  0  0  0  0
  7  2  1  0  0  0  0
  8  9  1  0  0  0  0
  9 10  2  0  0  0  0
 10 11  1  0  0  0  0
 11 18  1  0  0  0  0
 12 11  1  0  0  0  0
 13 12  1  0  0  0  0
 14 13  2  0  0  0  0
 15 16  2  0  0  0  0
 15 14  1  0  0  0  0
 16 17  1  0  0  0  0
 17  9  1  0  0  0  0
 17 12  2  0  0  0  0
 20 19  1  6  0  0  0
 20 25  1  0  0  0  0
 21 22  1  0  0  0  0
 21 23  1  0  0  0  0
 21 20  1  0  0  0  0
 24 21  1  0  0  0  0
 25 26  1  0  0  0  0
 26 27  2  0  0  0  0
 26 34  1  0  0  0  0
 27 28  1  0  0  0  0
 28 29  1  0  0  0  0
 28 35  1  0  0  0  0
 29 30  1  0  0  0  0
 31 30  2  0  0  0  0
 32 31  1  0  0  0  0
 33 32  2  0  0  0  0
 34 33  1  0  0  0  0
 34 29  2  0  0  0  0
M  END
>  <minimizedAffinity>
-5.8847127

$$$$
