
 OpenBabel11232419413D

 35 39  0  0  1  0  0  0  0  0999 V2000
   63.9570  -40.6520   19.0180 O   0  0  0  0  0  0  0  0  0  0  0  0
   60.2900  -40.0710   18.8140 C   0  0  0  0  0  0  0  0  0  0  0  0
   60.3670  -38.6850   18.9020 C   0  0  0  0  0  3  0  0  0  0  0  0
   61.5260  -37.9880   18.9600 N   0  0  0  0  0  0  0  0  0  0  0  0
   62.6730  -38.7000   18.9420 C   0  0  0  0  0  3  0  0  0  0  0  0
   62.7250  -40.0860   18.8750 C   0  0  0  0  0  0  0  0  0  0  0  0
   61.5140  -40.7620   18.7640 C   0  0  0  0  0  3  0  0  0  0  0  0
   54.6190  -39.8130   17.4980 C   0  0  0  0  0  1  0  0  0  0  0  0
   55.3070  -40.9580   18.1460 C   0  0  0  0  0  0  0  0  0  0  0  0
   54.6180  -42.0520   18.4890 N   0  0  0  0  0  0  0  0  0  0  0  0
   55.5380  -42.8620   19.0350 N   0  0  0  0  0  0  0  0  0  0  0  0
   56.7990  -42.3330   19.0560 C   0  0  0  0  0  0  0  0  0  0  0  0
   58.0050  -42.8320   19.5130 C   0  0  0  0  0  3  0  0  0  0  0  0
   59.1160  -42.0600   19.4000 N   0  0  0  0  0  0  0  0  0  0  0  0
   59.0210  -40.8110   18.8490 C   0  0  0  0  0  0  0  0  0  0  0  0
   57.8250  -40.2740   18.3700 C   0  0  0  0  0  3  0  0  0  0  0  0
   56.6820  -41.0750   18.4830 C   0  0  0  0  0  0  0  0  0  0  0  0
   55.2310  -43.7670   19.3730 H   0  0  0  0  0  0  0  0  0  0  0  0
   64.1700  -42.0030   18.5970 C   0  0  0  0  0  2  0  0  0  0  0  0
   65.0260  -42.0610   17.3100 C   0  0  1  0  0  3  0  0  0  0  0  0
   66.3900  -42.6310   17.6010 N   0  0  0  0  0  4  0  0  0  0  0  0
   66.3690  -43.6060   17.9330 H   0  0  0  0  0  0  0  0  0  0  0  0
   67.0070  -42.5910   16.7800 H   0  0  0  0  0  0  0  0  0  0  0  0
   66.8480  -42.0780   18.3410 H   0  0  0  0  0  0  0  0  0  0  0  0
   64.3710  -42.8950   16.1980 C   0  0  0  0  0  2  0  0  0  0  0  0
   63.1050  -42.2840   15.6980 C   0  0  0  0  0  0  0  0  0  0  0  0
   63.0020  -41.1160   14.9660 C   0  0  0  0  0  3  0  0  0  0  0  0
   61.6770  -40.8850   14.7070 N   0  0  0  0  0  0  0  0  0  0  0  0
   60.9070  -41.8750   15.2670 C   0  0  0  0  0  0  0  0  0  0  0  0
   59.5160  -42.0360   15.2650 C   0  0  0  0  0  3  0  0  0  0  0  0
   58.9920  -43.1600   15.9080 C   0  0  0  0  0  3  0  0  0  0  0  0
   59.8290  -44.0880   16.5200 C   0  0  0  0  0  3  0  0  0  0  0  0
   61.2180  -43.9150   16.5110 C   0  0  0  0  0  3  0  0  0  0  0  0
   61.7720  -42.7820   15.8780 C   0  0  0  0  0  0  0  0  0  0  0  0
   61.3070  -40.1040   14.1780 H   0  0  0  0  0  0  0  0  0  0  0  0
  2 15  1  0  0  0  0
  2  3  1  0  0  0  0
  3  4  2  0  0  0  0
  5  4  1  0  0  0  0
  6  5  2  0  0  0  0
  6  1  1  0  0  0  0
  7  2  2  0  0  0  0
  7  6  1  0  0  0  0
  8  9  1  0  0  0  0
  9 17  1  0  0  0  0
  9 10  2  0  0  0  0
 10 11  1  0  0  0  0
 11 12  1  0  0  0  0
 11 18  1  0  0  0  0
 12 13  1  0  0  0  0
 14 13  2  0  0  0  0
 15 14  1  0  0  0  0
 16 17  1  0  0  0  0
 16 15  2  0  0  0  0
 17 12  2  0  0  0  0
 19  1  1  0  0  0  0
 20 25  1  6  0  0  0
 20 21  1  0  0  0  0
 20 19  1  0  0  0  0
 21 22  1  0  0  0  0
 21 24  1  0  0  0  0
 23 21  1  0  0  0  0
 26 34  1  0  0  0  0
 26 25  1  0  0  0  0
 27 26  2  0  0  0  0
 28 27  1  0  0  0  0
 28 29  1  0  0  0  0
 29 34  1  0  0  0  0
 30 29  2  0  0  0  0
 30 31  1  0  0  0  0
 31 32  2  0  0  0  0
 33 32  1  0  0  0  0
 34 33  2  0  0  0  0
 35 28  1  0  0  0  0
M  END
>  <minimizedAffinity>
-5.94467592

$$$$
