
 OpenBabel11232419413D

 35 39  0  0  1  0  0  0  0  0999 V2000
   59.1530  -41.9760   12.8300 O   0  0  0  0  0  0  0  0  0  0  0  0
   62.2590  -41.7930   14.8660 C   0  0  0  0  0  0  0  0  0  0  0  0
   63.0560  -42.4870   13.9610 C   0  0  0  0  0  3  0  0  0  0  0  0
   62.6320  -42.9260   12.7530 N   0  0  0  0  0  0  0  0  0  0  0  0
   61.3460  -42.6770   12.4240 C   0  0  0  0  0  3  0  0  0  0  0  0
   60.4500  -42.0110   13.2500 C   0  0  0  0  0  0  0  0  0  0  0  0
   60.9390  -41.5300   14.4610 C   0  0  0  0  0  3  0  0  0  0  0  0
   61.5850  -37.9270   19.1740 C   0  0  0  0  0  1  0  0  0  0  0  0
   62.5390  -39.0650   19.1720 C   0  0  0  0  0  0  0  0  0  0  0  0
   63.3470  -39.2680   20.2190 N   0  0  0  0  0  0  0  0  0  0  0  0
   64.0540  -40.3580   19.8800 N   0  0  0  0  0  0  0  0  0  0  0  0
   63.7320  -40.8680   18.6530 C   0  0  0  0  0  0  0  0  0  0  0  0
   64.2070  -41.9600   17.9500 C   0  0  0  0  0  3  0  0  0  0  0  0
   63.6850  -42.2260   16.7250 N   0  0  0  0  0  0  0  0  0  0  0  0
   62.7140  -41.4100   16.2100 C   0  0  0  0  0  0  0  0  0  0  0  0
   62.2040  -40.3040   16.8890 C   0  0  0  0  0  3  0  0  0  0  0  0
   62.7400  -40.0350   18.1550 C   0  0  0  0  0  0  0  0  0  0  0  0
   64.7430  -40.7000   20.5400 H   0  0  0  0  0  0  0  0  0  0  0  0
   58.2400  -42.9890   13.2660 C   0  0  0  0  0  2  0  0  0  0  0  0
   57.3640  -42.4880   14.4380 C   0  0  1  0  0  3  0  0  0  0  0  0
   55.9610  -42.1980   13.9700 N   0  0  0  0  0  4  0  0  0  0  0  0
   55.4620  -43.0280   13.6200 H   0  0  0  0  0  0  0  0  0  0  0  0
   55.3880  -41.7740   14.7100 H   0  0  0  0  0  0  0  0  0  0  0  0
   55.9860  -41.5200   13.1920 H   0  0  0  0  0  0  0  0  0  0  0  0
   57.2980  -43.4900   15.6010 C   0  0  0  0  0  2  0  0  0  0  0  0
   58.3430  -43.2330   16.6340 C   0  0  0  0  0  0  0  0  0  0  0  0
   59.5060  -43.9600   16.8090 C   0  0  0  0  0  3  0  0  0  0  0  0
   60.1960  -43.4220   17.8620 N   0  0  0  0  0  0  0  0  0  0  0  0
   59.5000  -42.3620   18.3900 C   0  0  0  0  0  0  0  0  0  0  0  0
   59.8180  -41.5330   19.4730 C   0  0  0  0  0  3  0  0  0  0  0  0
   58.9250  -40.5070   19.7890 C   0  0  0  0  0  3  0  0  0  0  0  0
   57.7650  -40.3150   19.0450 C   0  0  0  0  0  3  0  0  0  0  0  0
   57.4620  -41.1510   17.9630 C   0  0  0  0  0  3  0  0  0  0  0  0
   58.3420  -42.2020   17.6300 C   0  0  0  0  0  0  0  0  0  0  0  0
   61.0910  -43.7470   18.2080 H   0  0  0  0  0  0  0  0  0  0  0  0
  1  6  1  0  0  0  0
  1 19  1  0  0  0  0
  2 15  1  0  0  0  0
  3  2  2  0  0  0  0
  4  3  1  0  0  0  0
  5  4  2  0  0  0  0
  5  6  1  0  0  0  0
  6  7  2  0  0  0  0
  7  2  1  0  0  0  0
  9  8  1  0  0  0  0
  9 10  2  0  0  0  0
 11 10  1  0  0  0  0
 11 18  1  0  0  0  0
 12 11  1  0  0  0  0
 13 12  2  0  0  0  0
 14 13  1  0  0  0  0
 15 14  2  0  0  0  0
 15 16  1  0  0  0  0
 16 17  2  0  0  0  0
 17 12  1  0  0  0  0
 17  9  1  0  0  0  0
 20 19  1  6  0  0  0
 20 25  1  0  0  0  0
 21 20  1  0  0  0  0
 21 23  1  0  0  0  0
 22 21  1  0  0  0  0
 24 21  1  0  0  0  0
 25 26  1  0  0  0  0
 26 27  2  0  0  0  0
 26 34  1  0  0  0  0
 27 28  1  0  0  0  0
 28 35  1  0  0  0  0
 28 29  1  0  0  0  0
 29 30  1  0  0  0  0
 30 31  2  0  0  0  0
 32 31  1  0  0  0  0
 33 32  2  0  0  0  0
 34 33  1  0  0  0  0
 34 29  2  0  0  0  0
M  END
>  <minimizedAffinity>
-5.52004242

$$$$
