
 OpenBabel11232420383D

 36 40  0  0  1  0  0  0  0  0999 V2000
  -17.9290   28.0200   11.8710 C   0  0  0  0  0  0  0  0  0  0  0  0
  -16.7880   28.5260   11.2920 C   0  0  0  0  0  3  0  0  0  0  0  0
  -16.4920   29.6660   11.9990 N   0  0  0  0  0  0  0  0  0  0  0  0
  -17.3990   29.7670   13.0320 C   0  0  0  0  0  0  0  0  0  0  0  0
  -18.3180   28.8340   12.9050 N   0  0  0  0  0  0  0  0  0  0  0  0
  -18.1250   23.5240    9.6270 C   0  0  0  0  0  1  0  0  0  0  0  0
  -18.7780   24.6420   10.3830 C   0  0  0  0  0  0  0  0  0  0  0  0
  -18.0560   25.7940   10.7360 C   0  0  0  0  0  3  0  0  0  0  0  0
  -18.6560   26.8200   11.4870 C   0  0  0  0  0  0  0  0  0  0  0  0
  -19.9890   26.6670   11.8960 C   0  0  0  0  0  3  0  0  0  0  0  0
  -20.7110   25.5200   11.5580 C   0  0  0  0  0  3  0  0  0  0  0  0
  -20.1010   24.5200   10.8110 C   0  0  0  0  0  0  0  0  0  0  0  0
  -20.8020   23.4200   10.5080 F   0  0  0  0  0  0  0  0  0  0  0  0
  -17.3590   30.7960   14.1350 C   0  0  2  0  0  3  0  0  0  0  0  0
  -18.0140   30.2570   15.4160 C   0  0  0  0  0  2  0  0  0  0  0  0
  -19.5410   30.3200   15.3680 C   0  0  0  0  0  2  0  0  0  0  0  0
  -19.9980   31.6510   14.9820 N   0  0  0  0  0  0  0  0  0  0  0  0
  -19.5030   32.1410   13.6980 C   0  0  0  0  0  2  0  0  0  0  0  0
  -17.9710   32.1400   13.6990 C   0  0  0  0  0  2  0  0  0  0  0  0
  -20.2290   32.5880   15.9850 C   0  0  0  0  0  0  0  0  0  0  0  0
  -19.2200   33.4390   16.2720 N   0  0  0  0  0  0  0  0  0  0  0  0
  -19.4500   34.3630   17.2150 C   0  0  0  0  0  3  0  0  0  0  0  0
  -20.5830   34.5290   17.9010 N   0  0  0  0  0  0  0  0  0  0  0  0
  -21.5660   33.6560   17.6380 C   0  0  0  0  0  0  0  0  0  0  0  0
  -22.7340   33.8670   18.3530 N   0  0  0  0  0  0  0  0  0  0  0  0
  -21.4430   32.6600   16.6750 C   0  0  0  0  0  0  0  0  0  0  0  0
  -22.8460   31.3960   16.4240 Br  0  0  0  0  0  0  0  0  0  0  0  0
  -22.6680   34.6180   19.0270 H   0  0  0  0  0  0  0  0  0  0  0  0
  -23.2780   33.0540   18.6100 H   0  0  0  0  0  0  0  0  0  0  0  0
  -15.3900   30.5490   11.6850 C   0  0  0  0  0  2  0  0  0  0  0  0
  -15.5910   31.4220   10.4310 C   0  0  0  0  0  2  0  0  0  0  0  0
  -16.5980   32.5220   10.4120 N   0  0  0  0  0  4  0  0  0  0  0  0
  -16.5090   33.4660    9.2840 C   0  0  0  0  0  2  0  0  0  0  0  0
  -18.0450   33.4820    9.2580 C   0  0  0  0  0  2  0  0  0  0  0  0
  -17.9650   32.1510   10.0220 C   0  0  0  0  0  2  0  0  0  0  0  0
  -16.5860   33.0300   11.3100 H   0  0  0  0  0  0  0  0  0  0  0  0
  1  5  1  0  0  0  0
  2  1  2  0  0  0  0
  2  3  1  0  0  0  0
  3  4  1  0  0  0  0
  5  4  2  0  0  0  0
  6  7  1  0  0  0  0
  7  8  2  0  0  0  0
  7 12  1  0  0  0  0
  8  9  1  0  0  0  0
  9  1  1  0  0  0  0
  9 10  2  0  0  0  0
 11 10  1  0  0  0  0
 12 11  2  0  0  0  0
 13 12  1  0  0  0  0
 14  4  1  6  0  0  0
 14 15  1  0  0  0  0
 16 15  1  0  0  0  0
 17 16  1  0  0  0  0
 17 20  1  0  0  0  0
 18 19  1  0  0  0  0
 18 17  1  0  0  0  0
 19 14  1  0  0  0  0
 20 21  2  0  0  0  0
 20 26  1  0  0  0  0
 21 22  1  0  0  0  0
 22 23  2  0  0  0  0
 24 23  1  0  0  0  0
 24 25  1  0  0  0  0
 25 29  1  0  0  0  0
 25 28  1  0  0  0  0
 26 24  2  0  0  0  0
 27 26  1  0  0  0  0
 30  3  1  0  0  0  0
 31 30  1  0  0  0  0
 32 31  1  0  0  0  0
 32 36  1  0  0  0  0
 33 32  1  0  0  0  0
 34 33  1  0  0  0  0
 34 35  1  0  0  0  0
 35 32  1  0  0  0  0
M  END
>  <minimizedAffinity>
-8.89003944

$$$$
