
 OpenBabel11232420383D

 36 40  0  0  1  0  0  0  0  0999 V2000
  -19.7420   19.1980   10.8950 C   0  0  0  0  0  0  0  0  0  0  0  0
  -19.4070   18.6850    9.6630 C   0  0  0  0  0  3  0  0  0  0  0  0
  -18.6160   19.6380    9.0700 N   0  0  0  0  0  0  0  0  0  0  0  0
  -18.4210   20.6510    9.9860 C   0  0  0  0  0  0  0  0  0  0  0  0
  -19.1690   20.4360   11.0470 N   0  0  0  0  0  0  0  0  0  0  0  0
  -22.6990   19.5040   14.9510 C   0  0  0  0  0  1  0  0  0  0  0  0
  -21.9970   18.7010   13.8970 C   0  0  0  0  0  0  0  0  0  0  0  0
  -21.1930   19.3250   12.9300 C   0  0  0  0  0  3  0  0  0  0  0  0
  -20.5740   18.5760   11.9130 C   0  0  0  0  0  0  0  0  0  0  0  0
  -20.7890   17.1910   11.8690 C   0  0  0  0  0  3  0  0  0  0  0  0
  -21.5960   16.5630   12.8210 C   0  0  0  0  0  3  0  0  0  0  0  0
  -22.1940   17.3210   13.8210 C   0  0  0  0  0  0  0  0  0  0  0  0
  -22.9760   16.7070   14.7180 F   0  0  0  0  0  0  0  0  0  0  0  0
  -17.5050   21.8340    9.8010 C   0  0  2  0  0  3  0  0  0  0  0  0
  -16.9710   22.3360   11.1510 C   0  0  0  0  0  2  0  0  0  0  0  0
  -17.9870   23.1990   11.9020 C   0  0  0  0  0  2  0  0  0  0  0  0
  -18.5140   24.2540   11.0420 N   0  0  0  0  0  0  0  0  0  0  0  0
  -19.1540   23.8030    9.8090 C   0  0  0  0  0  2  0  0  0  0  0  0
  -18.1680   22.9630    8.9910 C   0  0  0  0  0  2  0  0  0  0  0  0
  -17.8510   25.4780   11.0160 C   0  0  0  0  0  0  0  0  0  0  0  0
  -16.5350   25.4550   10.7160 N   0  0  0  0  0  0  0  0  0  0  0  0
  -15.9010   26.6340   10.6590 C   0  0  0  0  0  3  0  0  0  0  0  0
  -16.4440   27.8360   10.8670 N   0  0  0  0  0  0  0  0  0  0  0  0
  -17.7420   27.8480   11.2030 C   0  0  0  0  0  0  0  0  0  0  0  0
  -18.2790   29.1100   11.3950 N   0  0  0  0  0  0  0  0  0  0  0  0
  -18.5020   26.6850   11.2860 C   0  0  0  0  0  0  0  0  0  0  0  0
  -20.3160   26.7710   11.8620 Br  0  0  0  0  0  0  0  0  0  0  0  0
  -17.6010   29.8560   11.3160 H   0  0  0  0  0  0  0  0  0  0  0  0
  -19.0050   29.2080   12.0920 H   0  0  0  0  0  0  0  0  0  0  0  0
  -18.0840   19.5300    7.7300 C   0  0  0  0  0  2  0  0  0  0  0  0
  -16.5840   19.1860    7.6500 C   0  0  0  0  0  2  0  0  0  0  0  0
  -15.6040   20.1500    7.0710 N   0  0  0  0  0  4  0  0  0  0  0  0
  -14.8440   19.6800    5.8990 C   0  0  0  0  0  2  0  0  0  0  0  0
  -14.9830   21.0970    5.3210 C   0  0  0  0  0  2  0  0  0  0  0  0
  -16.1630   21.2620    6.2900 C   0  0  0  0  0  2  0  0  0  0  0  0
  -14.9630   20.4890    7.8050 H   0  0  0  0  0  0  0  0  0  0  0  0
  1  5  1  0  0  0  0
  1  9  1  0  0  0  0
  2  1  2  0  0  0  0
  3  2  1  0  0  0  0
  3  4  1  0  0  0  0
  4  5  2  0  0  0  0
  7  6  1  0  0  0  0
  8  7  2  0  0  0  0
  9  8  1  0  0  0  0
 10  9  2  0  0  0  0
 10 11  1  0  0  0  0
 11 12  2  0  0  0  0
 12  7  1  0  0  0  0
 12 13  1  0  0  0  0
 14  4  1  1  0  0  0
 14 15  1  0  0  0  0
 15 16  1  0  0  0  0
 17 16  1  0  0  0  0
 18 17  1  0  0  0  0
 19 14  1  0  0  0  0
 19 18  1  0  0  0  0
 20 17  1  0  0  0  0
 20 26  1  0  0  0  0
 21 20  2  0  0  0  0
 22 21  1  0  0  0  0
 22 23  2  0  0  0  0
 23 24  1  0  0  0  0
 24 26  2  0  0  0  0
 24 25  1  0  0  0  0
 25 29  1  0  0  0  0
 26 27  1  0  0  0  0
 28 25  1  0  0  0  0
 30  3  1  0  0  0  0
 31 30  1  0  0  0  0
 32 31  1  0  0  0  0
 32 36  1  0  0  0  0
 33 32  1  0  0  0  0
 34 33  1  0  0  0  0
 34 35  1  0  0  0  0
 35 32  1  0  0  0  0
M  END
>  <minimizedAffinity>
-10.7823858

$$$$

 OpenBabel11232420383D

 36 40  0  0  1  0  0  0  0  0999 V2000
  -18.6580   20.5380    9.9020 C   0  0  0  0  0  0  0  0  0  0  0  0
  -19.6630   19.8260   10.5140 C   0  0  0  0  0  3  0  0  0  0  0  0
  -20.1250   20.6350   11.5230 N   0  0  0  0  0  0  0  0  0  0  0  0
  -19.4570   21.8380   11.4360 C   0  0  0  0  0  0  0  0  0  0  0  0
  -18.5110   21.7520   10.5240 N   0  0  0  0  0  0  0  0  0  0  0  0
  -15.6050   21.5940    6.0470 C   0  0  0  0  0  1  0  0  0  0  0  0
  -16.3720   20.6130    6.8830 C   0  0  0  0  0  0  0  0  0  0  0  0
  -17.1600   21.0440    7.9620 C   0  0  0  0  0  3  0  0  0  0  0  0
  -17.8410   20.1190    8.7730 C   0  0  0  0  0  0  0  0  0  0  0  0
  -17.7040   18.7500    8.4980 C   0  0  0  0  0  3  0  0  0  0  0  0
  -16.9140   18.3130    7.4330 C   0  0  0  0  0  3  0  0  0  0  0  0
  -16.2540   19.2430    6.6400 C   0  0  0  0  0  0  0  0  0  0  0  0
  -15.4890   18.8070    5.6310 F   0  0  0  0  0  0  0  0  0  0  0  0
  -19.7490   23.0640   12.2640 C   0  0  2  0  0  3  0  0  0  0  0  0
  -20.7390   23.9940   11.5450 C   0  0  0  0  0  2  0  0  0  0  0  0
  -20.0680   24.8440   10.4640 C   0  0  0  0  0  2  0  0  0  0  0  0
  -18.8890   25.5240   10.9900 N   0  0  0  0  0  0  0  0  0  0  0  0
  -17.8610   24.6570   11.5600 C   0  0  0  0  0  2  0  0  0  0  0  0
  -18.4650   23.8050   12.6800 C   0  0  0  0  0  2  0  0  0  0  0  0
  -19.0490   26.7890   11.5490 C   0  0  0  0  0  0  0  0  0  0  0  0
  -20.2790   27.1020   12.0110 N   0  0  0  0  0  0  0  0  0  0  0  0
  -20.4290   28.3070   12.5780 C   0  0  0  0  0  3  0  0  0  0  0  0
  -19.4800   29.2320   12.7360 N   0  0  0  0  0  0  0  0  0  0  0  0
  -18.2720   28.9290   12.2390 C   0  0  0  0  0  0  0  0  0  0  0  0
  -17.3050   29.9010   12.4340 N   0  0  0  0  0  0  0  0  0  0  0  0
  -17.9970   27.7060   11.6360 C   0  0  0  0  0  0  0  0  0  0  0  0
  -16.2840   27.3830   10.8680 Br  0  0  0  0  0  0  0  0  0  0  0  0
  -17.6570   30.7420   12.8730 H   0  0  0  0  0  0  0  0  0  0  0  0
  -16.5980   30.0080   11.7190 H   0  0  0  0  0  0  0  0  0  0  0  0
  -21.1560   20.2500   12.4620 C   0  0  0  0  0  2  0  0  0  0  0  0
  -20.8510   18.9780   13.2780 C   0  0  0  0  0  2  0  0  0  0  0  0
  -21.8030   18.4810   14.3120 N   0  0  0  0  0  4  0  0  0  0  0  0
  -21.2190   18.1350   15.6210 C   0  0  0  0  0  2  0  0  0  0  0  0
  -22.4730   18.7410   16.2700 C   0  0  0  0  0  2  0  0  0  0  0  0
  -22.6690   19.4880   14.9420 C   0  0  0  0  0  2  0  0  0  0  0  0
  -22.3520   17.6900   13.9400 H   0  0  0  0  0  0  0  0  0  0  0  0
  1  2  2  0  0  0  0
  1  5  1  0  0  0  0
  2  3  1  0  0  0  0
  3 30  1  0  0  0  0
  4  3  1  0  0  0  0
  5  4  2  0  0  0  0
  6  7  1  0  0  0  0
  7  8  1  0  0  0  0
  8  9  2  0  0  0  0
  9  1  1  0  0  0  0
 10  9  1  0  0  0  0
 11 10  2  0  0  0  0
 12  7  2  0  0  0  0
 12 11  1  0  0  0  0
 13 12  1  0  0  0  0
 14  4  1  6  0  0  0
 14 19  1  0  0  0  0
 15 14  1  0  0  0  0
 16 17  1  0  0  0  0
 16 15  1  0  0  0  0
 17 20  1  0  0  0  0
 17 18  1  0  0  0  0
 18 19  1  0  0  0  0
 20 26  2  0  0  0  0
 20 21  1  0  0  0  0
 21 22  2  0  0  0  0
 22 23  1  0  0  0  0
 24 25  1  0  0  0  0
 24 23  2  0  0  0  0
 25 28  1  0  0  0  0
 26 24  1  0  0  0  0
 27 26  1  0  0  0  0
 29 25  1  0  0  0  0
 30 31  1  0  0  0  0
 31 32  1  0  0  0  0
 32 35  1  0  0  0  0
 32 33  1  0  0  0  0
 33 34  1  0  0  0  0
 35 34  1  0  0  0  0
 36 32  1  0  0  0  0
M  END
>  <minimizedAffinity>
-9.89046288

$$$$

 OpenBabel11232420383D

 36 40  0  0  1  0  0  0  0  0999 V2000
  -19.7280   19.9240   10.8160 C   0  0  0  0  0  0  0  0  0  0  0  0
  -18.9780   19.8060    9.6680 C   0  0  0  0  0  3  0  0  0  0  0  0
  -19.0270   21.0420    9.0700 N   0  0  0  0  0  0  0  0  0  0  0  0
  -19.7210   21.8880    9.9080 C   0  0  0  0  0  0  0  0  0  0  0  0
  -20.2230   21.2000   10.9120 N   0  0  0  0  0  0  0  0  0  0  0  0
  -21.5960   18.4500   15.2470 C   0  0  0  0  0  1  0  0  0  0  0  0
  -20.8780   18.1580   13.9630 C   0  0  0  0  0  0  0  0  0  0  0  0
  -20.6250   19.1750   13.0280 C   0  0  0  0  0  3  0  0  0  0  0  0
  -19.9950   18.8900   11.8050 C   0  0  0  0  0  0  0  0  0  0  0  0
  -19.6370   17.5640   11.5220 C   0  0  0  0  0  3  0  0  0  0  0  0
  -19.8930   16.5440   12.4410 C   0  0  0  0  0  3  0  0  0  0  0  0
  -20.5130   16.8480   13.6480 C   0  0  0  0  0  0  0  0  0  0  0  0
  -20.7650   15.8570   14.5130 F   0  0  0  0  0  0  0  0  0  0  0  0
  -19.8960   23.3720    9.7060 C   0  0  2  0  0  3  0  0  0  0  0  0
  -18.5670   24.0370    9.3180 C   0  0  0  0  0  2  0  0  0  0  0  0
  -17.6540   24.2760   10.5220 C   0  0  0  0  0  2  0  0  0  0  0  0
  -18.3710   24.9600   11.5930 N   0  0  0  0  0  0  0  0  0  0  0  0
  -19.5690   24.2850   12.0840 C   0  0  0  0  0  2  0  0  0  0  0  0
  -20.5440   24.0530   10.9260 C   0  0  0  0  0  2  0  0  0  0  0  0
  -18.3600   26.3530   11.6120 C   0  0  0  0  0  0  0  0  0  0  0  0
  -19.4760   26.9660   12.0600 N   0  0  0  0  0  0  0  0  0  0  0  0
  -19.4590   28.3050   12.1090 C   0  0  0  0  0  3  0  0  0  0  0  0
  -18.4420   29.0970   11.7600 N   0  0  0  0  0  0  0  0  0  0  0  0
  -17.3520   28.4820   11.2800 C   0  0  0  0  0  0  0  0  0  0  0  0
  -16.3090   29.3290   10.9440 N   0  0  0  0  0  0  0  0  0  0  0  0
  -17.2550   27.0970   11.1900 C   0  0  0  0  0  0  0  0  0  0  0  0
  -15.7130   26.2970   10.4070 Br  0  0  0  0  0  0  0  0  0  0  0  0
  -16.5330   30.3100   11.0490 H   0  0  0  0  0  0  0  0  0  0  0  0
  -15.7230   29.0640   10.1640 H   0  0  0  0  0  0  0  0  0  0  0  0
  -18.4130   21.3490    7.7970 C   0  0  0  0  0  2  0  0  0  0  0  0
  -17.4550   20.2680    7.2580 C   0  0  0  0  0  2  0  0  0  0  0  0
  -16.0610   20.6080    6.8510 N   0  0  0  0  0  4  0  0  0  0  0  0
  -15.3450   19.5860    6.0670 C   0  0  0  0  0  2  0  0  0  0  0  0
  -14.7440   20.7340    5.2400 C   0  0  0  0  0  2  0  0  0  0  0  0
  -15.9180   21.5790    5.7570 C   0  0  0  0  0  2  0  0  0  0  0  0
  -15.5070   20.8850    7.6770 H   0  0  0  0  0  0  0  0  0  0  0  0
  1  5  1  0  0  0  0
  1  9  1  0  0  0  0
  2  1  2  0  0  0  0
  3  2  1  0  0  0  0
  3  4  1  0  0  0  0
  4  5  2  0  0  0  0
  7  6  1  0  0  0  0
  8  7  2  0  0  0  0
  9  8  1  0  0  0  0
 10  9  2  0  0  0  0
 10 11  1  0  0  0  0
 11 12  2  0  0  0  0
 12  7  1  0  0  0  0
 12 13  1  0  0  0  0
 14  4  1  1  0  0  0
 14 19  1  0  0  0  0
 15 14  1  0  0  0  0
 15 16  1  0  0  0  0
 16 17  1  0  0  0  0
 17 20  1  0  0  0  0
 17 18  1  0  0  0  0
 19 18  1  0  0  0  0
 20 21  1  0  0  0  0
 21 22  2  0  0  0  0
 23 22  1  0  0  0  0
 24 23  2  0  0  0  0
 25 28  1  0  0  0  0
 25 24  1  0  0  0  0
 26 24  1  0  0  0  0
 26 20  2  0  0  0  0
 27 26  1  0  0  0  0
 29 25  1  0  0  0  0
 30  3  1  0  0  0  0
 31 30  1  0  0  0  0
 32 31  1  0  0  0  0
 32 36  1  0  0  0  0
 33 32  1  0  0  0  0
 34 35  1  0  0  0  0
 34 33  1  0  0  0  0
 35 32  1  0  0  0  0
M  END
>  <minimizedAffinity>
-9.67208767

$$$$

 OpenBabel11232420383D

 36 40  0  0  1  0  0  0  0  0999 V2000
  -19.9830   20.6510   11.2140 C   0  0  0  0  0  0  0  0  0  0  0  0
  -18.9610   20.5000   10.3050 C   0  0  0  0  0  3  0  0  0  0  0  0
  -18.8870   21.6960    9.6340 N   0  0  0  0  0  0  0  0  0  0  0  0
  -19.7950   22.5580   10.2100 C   0  0  0  0  0  0  0  0  0  0  0  0
  -20.5190   21.9090   11.0960 N   0  0  0  0  0  0  0  0  0  0  0  0
  -19.7240   16.1160   13.3720 C   0  0  0  0  0  1  0  0  0  0  0  0
  -20.3720   17.4590   13.2150 C   0  0  0  0  0  0  0  0  0  0  0  0
  -19.8900   18.3900   12.2800 C   0  0  0  0  0  3  0  0  0  0  0  0
  -20.4690   19.6660   12.1680 C   0  0  0  0  0  0  0  0  0  0  0  0
  -21.5300   20.0040   13.0210 C   0  0  0  0  0  3  0  0  0  0  0  0
  -22.0090   19.0880   13.9600 C   0  0  0  0  0  3  0  0  0  0  0  0
  -21.4270   17.8300   14.0520 C   0  0  0  0  0  0  0  0  0  0  0  0
  -21.8890   16.9680   14.9670 F   0  0  0  0  0  0  0  0  0  0  0  0
  -19.9500   24.0200    9.8720 C   0  0  2  0  0  3  0  0  0  0  0  0
  -18.5840   24.6780    9.6250 C   0  0  0  0  0  2  0  0  0  0  0  0
  -17.8540   25.0230   10.9240 C   0  0  0  0  0  2  0  0  0  0  0  0
  -18.7200   25.7720   11.8280 N   0  0  0  0  0  0  0  0  0  0  0  0
  -19.9710   25.1140   12.1950 C   0  0  0  0  0  2  0  0  0  0  0  0
  -20.7700   24.7780   10.9320 C   0  0  0  0  0  2  0  0  0  0  0  0
  -18.7230   27.1620   11.7410 C   0  0  0  0  0  0  0  0  0  0  0  0
  -19.8820   27.7910   12.0330 N   0  0  0  0  0  0  0  0  0  0  0  0
  -19.8800   29.1290   11.9820 C   0  0  0  0  0  3  0  0  0  0  0  0
  -18.8410   29.9090   11.6720 N   0  0  0  0  0  0  0  0  0  0  0  0
  -17.7050   29.2760   11.3450 C   0  0  0  0  0  0  0  0  0  0  0  0
  -16.6420   30.1120   11.0460 N   0  0  0  0  0  0  0  0  0  0  0  0
  -17.5880   27.8890   11.3700 C   0  0  0  0  0  0  0  0  0  0  0  0
  -15.9730   27.0580   10.8000 Br  0  0  0  0  0  0  0  0  0  0  0  0
  -16.8830   31.0940   11.0540 H   0  0  0  0  0  0  0  0  0  0  0  0
  -15.9820   29.7970   10.3470 H   0  0  0  0  0  0  0  0  0  0  0  0
  -17.9740   21.9550    8.5420 C   0  0  0  0  0  2  0  0  0  0  0  0
  -18.1550   21.0430    7.3120 C   0  0  0  0  0  2  0  0  0  0  0  0
  -17.2660   19.8670    7.0890 N   0  0  0  0  0  4  0  0  0  0  0  0
  -16.6470   19.7630    5.7550 C   0  0  0  0  0  2  0  0  0  0  0  0
  -15.3730   19.2630    6.4550 C   0  0  0  0  0  2  0  0  0  0  0  0
  -15.9400   19.9190    7.7230 C   0  0  0  0  0  2  0  0  0  0  0  0
  -17.7640   18.9950    7.3260 H   0  0  0  0  0  0  0  0  0  0  0  0
  1  9  1  0  0  0  0
  2  1  2  0  0  0  0
  3  4  1  0  0  0  0
  3  2  1  0  0  0  0
  4  5  2  0  0  0  0
  5  1  1  0  0  0  0
  7  6  1  0  0  0  0
  7 12  1  0  0  0  0
  8  7  2  0  0  0  0
  9  8  1  0  0  0  0
  9 10  2  0  0  0  0
 10 11  1  0  0  0  0
 11 12  2  0  0  0  0
 12 13  1  0  0  0  0
 14  4  1  1  0  0  0
 14 19  1  0  0  0  0
 15 14  1  0  0  0  0
 15 16  1  0  0  0  0
 16 17  1  0  0  0  0
 17 18  1  0  0  0  0
 19 18  1  0  0  0  0
 20 17  1  0  0  0  0
 20 21  1  0  0  0  0
 22 21  2  0  0  0  0
 23 22  1  0  0  0  0
 24 26  1  0  0  0  0
 24 23  2  0  0  0  0
 25 28  1  0  0  0  0
 25 24  1  0  0  0  0
 26 20  2  0  0  0  0
 27 26  1  0  0  0  0
 29 25  1  0  0  0  0
 30  3  1  0  0  0  0
 31 30  1  0  0  0  0
 32 31  1  0  0  0  0
 32 36  1  0  0  0  0
 32 35  1  0  0  0  0
 33 34  1  0  0  0  0
 33 32  1  0  0  0  0
 34 35  1  0  0  0  0
M  END
>  <minimizedAffinity>
-9.37257957

$$$$

 OpenBabel11232420383D

 36 40  0  0  1  0  0  0  0  0999 V2000
  -18.7110   19.6340    9.6870 C   0  0  0  0  0  0  0  0  0  0  0  0
  -18.9980   20.7000   10.5100 C   0  0  0  0  0  3  0  0  0  0  0  0
  -20.0280   20.2770   11.3130 N   0  0  0  0  0  0  0  0  0  0  0  0
  -20.2730   18.9520   11.0210 C   0  0  0  0  0  0  0  0  0  0  0  0
  -19.5490   18.5890    9.9830 N   0  0  0  0  0  0  0  0  0  0  0  0
  -15.6690   21.8720    6.3660 C   0  0  0  0  0  1  0  0  0  0  0  0
  -16.2260   20.6380    7.0120 C   0  0  0  0  0  0  0  0  0  0  0  0
  -17.2110   20.7260    8.0090 C   0  0  0  0  0  3  0  0  0  0  0  0
  -17.6970   19.5710    8.6460 C   0  0  0  0  0  0  0  0  0  0  0  0
  -17.1670   18.3240    8.2820 C   0  0  0  0  0  3  0  0  0  0  0  0
  -16.1800   18.2290    7.2990 C   0  0  0  0  0  3  0  0  0  0  0  0
  -15.7170   19.3820    6.6770 C   0  0  0  0  0  0  0  0  0  0  0  0
  -14.7600   19.2750    5.7450 F   0  0  0  0  0  0  0  0  0  0  0  0
  -21.2320   18.0540   11.7620 C   0  0  2  0  0  3  0  0  0  0  0  0
  -21.3090   18.4350   13.2480 C   0  0  0  0  0  2  0  0  0  0  0  0
  -20.1280   17.8950   14.0560 C   0  0  0  0  0  2  0  0  0  0  0  0
  -19.9400   16.4680   13.8170 N   0  0  0  0  0  0  0  0  0  0  0  0
  -19.7250   16.0830   12.4250 C   0  0  0  0  0  2  0  0  0  0  0  0
  -20.9000   16.5630   11.5680 C   0  0  0  0  0  2  0  0  0  0  0  0
  -20.6080   15.5660   14.6410 C   0  0  0  0  0  0  0  0  0  0  0  0
  -21.9300   15.7690   14.8260 N   0  0  0  0  0  0  0  0  0  0  0  0
  -22.5820   14.8860   15.5930 C   0  0  0  0  0  3  0  0  0  0  0  0
  -22.0550   13.8160   16.1940 N   0  0  0  0  0  0  0  0  0  0  0  0
  -20.7340   13.6430   16.0370 C   0  0  0  0  0  0  0  0  0  0  0  0
  -20.2210   12.5160   16.6570 N   0  0  0  0  0  0  0  0  0  0  0  0
  -19.9560   14.4930   15.2580 C   0  0  0  0  0  0  0  0  0  0  0  0
  -18.0710   14.2400   15.1600 Br  0  0  0  0  0  0  0  0  0  0  0  0
  -20.9040   12.0040   17.2000 H   0  0  0  0  0  0  0  0  0  0  0  0
  -19.2790   12.5710   17.0220 H   0  0  0  0  0  0  0  0  0  0  0  0
  -20.6820   21.1120   12.2970 C   0  0  0  0  0  2  0  0  0  0  0  0
  -20.9870   22.5490   11.8320 C   0  0  0  0  0  2  0  0  0  0  0  0
  -20.3510   23.7240   12.4950 N   0  0  0  0  0  4  0  0  0  0  0  0
  -18.9080   23.9040   12.2540 C   0  0  0  0  0  2  0  0  0  0  0  0
  -19.1730   25.4170   12.1880 C   0  0  0  0  0  2  0  0  0  0  0  0
  -20.6350   25.0400   11.9060 C   0  0  0  0  0  2  0  0  0  0  0  0
  -20.5500   23.7120   13.5070 H   0  0  0  0  0  0  0  0  0  0  0  0
  1  5  1  0  0  0  0
  1  2  2  0  0  0  0
  2  3  1  0  0  0  0
  3 30  1  0  0  0  0
  4  3  1  0  0  0  0
  5  4  2  0  0  0  0
  6  7  1  0  0  0  0
  7  8  1  0  0  0  0
  8  9  2  0  0  0  0
  9  1  1  0  0  0  0
 10  9  1  0  0  0  0
 11 10  2  0  0  0  0
 12  7  2  0  0  0  0
 12 11  1  0  0  0  0
 13 12  1  0  0  0  0
 14  4  1  6  0  0  0
 14 15  1  0  0  0  0
 15 16  1  0  0  0  0
 17 16  1  0  0  0  0
 17 20  1  0  0  0  0
 18 17  1  0  0  0  0
 19 14  1  0  0  0  0
 19 18  1  0  0  0  0
 20 21  2  0  0  0  0
 20 26  1  0  0  0  0
 21 22  1  0  0  0  0
 22 23  2  0  0  0  0
 24 23  1  0  0  0  0
 24 25  1  0  0  0  0
 25 29  1  0  0  0  0
 25 28  1  0  0  0  0
 26 24  2  0  0  0  0
 27 26  1  0  0  0  0
 31 30  1  0  0  0  0
 31 32  1  0  0  0  0
 32 36  1  0  0  0  0
 33 32  1  0  0  0  0
 34 33  1  0  0  0  0
 35 34  1  0  0  0  0
 35 32  1  0  0  0  0
M  END
>  <minimizedAffinity>
-8.93926716

$$$$

 OpenBabel11232420383D

 36 40  0  0  1  0  0  0  0  0999 V2000
  -17.9290   28.0200   11.8710 C   0  0  0  0  0  0  0  0  0  0  0  0
  -16.7880   28.5260   11.2920 C   0  0  0  0  0  3  0  0  0  0  0  0
  -16.4920   29.6660   11.9990 N   0  0  0  0  0  0  0  0  0  0  0  0
  -17.3990   29.7670   13.0320 C   0  0  0  0  0  0  0  0  0  0  0  0
  -18.3180   28.8340   12.9050 N   0  0  0  0  0  0  0  0  0  0  0  0
  -18.1250   23.5240    9.6270 C   0  0  0  0  0  1  0  0  0  0  0  0
  -18.7780   24.6420   10.3830 C   0  0  0  0  0  0  0  0  0  0  0  0
  -18.0560   25.7940   10.7360 C   0  0  0  0  0  3  0  0  0  0  0  0
  -18.6560   26.8200   11.4870 C   0  0  0  0  0  0  0  0  0  0  0  0
  -19.9890   26.6670   11.8960 C   0  0  0  0  0  3  0  0  0  0  0  0
  -20.7110   25.5200   11.5580 C   0  0  0  0  0  3  0  0  0  0  0  0
  -20.1010   24.5200   10.8110 C   0  0  0  0  0  0  0  0  0  0  0  0
  -20.8020   23.4200   10.5080 F   0  0  0  0  0  0  0  0  0  0  0  0
  -17.3590   30.7960   14.1350 C   0  0  2  0  0  3  0  0  0  0  0  0
  -18.0140   30.2570   15.4160 C   0  0  0  0  0  2  0  0  0  0  0  0
  -19.5410   30.3200   15.3680 C   0  0  0  0  0  2  0  0  0  0  0  0
  -19.9980   31.6510   14.9820 N   0  0  0  0  0  0  0  0  0  0  0  0
  -19.5030   32.1410   13.6980 C   0  0  0  0  0  2  0  0  0  0  0  0
  -17.9710   32.1400   13.6990 C   0  0  0  0  0  2  0  0  0  0  0  0
  -20.2290   32.5880   15.9850 C   0  0  0  0  0  0  0  0  0  0  0  0
  -19.2200   33.4390   16.2720 N   0  0  0  0  0  0  0  0  0  0  0  0
  -19.4500   34.3630   17.2150 C   0  0  0  0  0  3  0  0  0  0  0  0
  -20.5830   34.5290   17.9010 N   0  0  0  0  0  0  0  0  0  0  0  0
  -21.5660   33.6560   17.6380 C   0  0  0  0  0  0  0  0  0  0  0  0
  -22.7340   33.8670   18.3530 N   0  0  0  0  0  0  0  0  0  0  0  0
  -21.4430   32.6600   16.6750 C   0  0  0  0  0  0  0  0  0  0  0  0
  -22.8460   31.3960   16.4240 Br  0  0  0  0  0  0  0  0  0  0  0  0
  -22.6680   34.6180   19.0270 H   0  0  0  0  0  0  0  0  0  0  0  0
  -23.2780   33.0540   18.6100 H   0  0  0  0  0  0  0  0  0  0  0  0
  -15.3900   30.5490   11.6850 C   0  0  0  0  0  2  0  0  0  0  0  0
  -15.5910   31.4220   10.4310 C   0  0  0  0  0  2  0  0  0  0  0  0
  -16.5980   32.5220   10.4120 N   0  0  0  0  0  4  0  0  0  0  0  0
  -16.5090   33.4660    9.2840 C   0  0  0  0  0  2  0  0  0  0  0  0
  -18.0450   33.4820    9.2580 C   0  0  0  0  0  2  0  0  0  0  0  0
  -17.9650   32.1510   10.0220 C   0  0  0  0  0  2  0  0  0  0  0  0
  -16.5860   33.0300   11.3100 H   0  0  0  0  0  0  0  0  0  0  0  0
  1  5  1  0  0  0  0
  2  1  2  0  0  0  0
  2  3  1  0  0  0  0
  3  4  1  0  0  0  0
  5  4  2  0  0  0  0
  6  7  1  0  0  0  0
  7  8  2  0  0  0  0
  7 12  1  0  0  0  0
  8  9  1  0  0  0  0
  9  1  1  0  0  0  0
  9 10  2  0  0  0  0
 11 10  1  0  0  0  0
 12 11  2  0  0  0  0
 13 12  1  0  0  0  0
 14  4  1  6  0  0  0
 14 15  1  0  0  0  0
 16 15  1  0  0  0  0
 17 16  1  0  0  0  0
 17 20  1  0  0  0  0
 18 19  1  0  0  0  0
 18 17  1  0  0  0  0
 19 14  1  0  0  0  0
 20 21  2  0  0  0  0
 20 26  1  0  0  0  0
 21 22  1  0  0  0  0
 22 23  2  0  0  0  0
 24 23  1  0  0  0  0
 24 25  1  0  0  0  0
 25 29  1  0  0  0  0
 25 28  1  0  0  0  0
 26 24  2  0  0  0  0
 27 26  1  0  0  0  0
 30  3  1  0  0  0  0
 31 30  1  0  0  0  0
 32 31  1  0  0  0  0
 32 36  1  0  0  0  0
 33 32  1  0  0  0  0
 34 33  1  0  0  0  0
 34 35  1  0  0  0  0
 35 32  1  0  0  0  0
M  END
>  <minimizedAffinity>
-8.89003944

$$$$

 OpenBabel11232420383D

 36 40  0  0  1  0  0  0  0  0999 V2000
  -19.1290   19.8970   10.0540 C   0  0  0  0  0  0  0  0  0  0  0  0
  -19.6500   21.1220   10.4000 C   0  0  0  0  0  3  0  0  0  0  0  0
  -20.3310   20.9140   11.5750 N   0  0  0  0  0  0  0  0  0  0  0  0
  -20.1290   19.6030   11.9510 C   0  0  0  0  0  0  0  0  0  0  0  0
  -19.4860   18.9640   10.9960 N   0  0  0  0  0  0  0  0  0  0  0  0
  -17.1960   21.1250    5.5770 C   0  0  0  0  0  1  0  0  0  0  0  0
  -17.3930   20.1480    6.6970 C   0  0  0  0  0  0  0  0  0  0  0  0
  -18.1810   20.4770    7.8130 C   0  0  0  0  0  3  0  0  0  0  0  0
  -18.3260   19.5780    8.8840 C   0  0  0  0  0  0  0  0  0  0  0  0
  -17.6540   18.3480    8.8300 C   0  0  0  0  0  3  0  0  0  0  0  0
  -16.8610   18.0170    7.7280 C   0  0  0  0  0  3  0  0  0  0  0  0
  -16.7350   18.9170    6.6780 C   0  0  0  0  0  0  0  0  0  0  0  0
  -15.9590   18.5910    5.6350 F   0  0  0  0  0  0  0  0  0  0  0  0
  -20.5840   18.9840   13.2490 C   0  0  2  0  0  3  0  0  0  0  0  0
  -20.1600   17.5100   13.3360 C   0  0  0  0  0  2  0  0  0  0  0  0
  -21.0790   16.5850   12.5350 C   0  0  0  0  0  2  0  0  0  0  0  0
  -22.4790   16.8220   12.8690 N   0  0  0  0  0  0  0  0  0  0  0  0
  -22.9550   18.1880   12.6670 C   0  0  0  0  0  2  0  0  0  0  0  0
  -22.0960   19.1610   13.4790 C   0  0  0  0  0  2  0  0  0  0  0  0
  -23.0440   16.0880   13.9090 C   0  0  0  0  0  0  0  0  0  0  0  0
  -23.0180   16.6490   15.1370 N   0  0  0  0  0  0  0  0  0  0  0  0
  -23.5890   15.9600   16.1350 C   0  0  0  0  0  3  0  0  0  0  0  0
  -24.1870   14.7710   16.0360 N   0  0  0  0  0  0  0  0  0  0  0  0
  -24.1740   14.2030   14.8210 C   0  0  0  0  0  0  0  0  0  0  0  0
  -24.8170   12.9790   14.7470 N   0  0  0  0  0  0  0  0  0  0  0  0
  -23.6160   14.8290   13.7100 C   0  0  0  0  0  0  0  0  0  0  0  0
  -23.5490   13.9200   12.0370 Br  0  0  0  0  0  0  0  0  0  0  0  0
  -25.1590   12.6450   15.6390 H   0  0  0  0  0  0  0  0  0  0  0  0
  -24.4460   12.2940   14.1020 H   0  0  0  0  0  0  0  0  0  0  0  0
  -21.0840   21.9370   12.2660 C   0  0  0  0  0  2  0  0  0  0  0  0
  -20.9480   23.3550   11.6780 C   0  0  0  0  0  2  0  0  0  0  0  0
  -20.0680   24.3740   12.3190 N   0  0  0  0  0  4  0  0  0  0  0  0
  -18.6180   24.1970   12.1210 C   0  0  0  0  0  2  0  0  0  0  0  0
  -18.5140   25.7250   11.9910 C   0  0  0  0  0  2  0  0  0  0  0  0
  -20.0170   25.6940   11.6740 C   0  0  0  0  0  2  0  0  0  0  0  0
  -20.2890   24.4530   13.3240 H   0  0  0  0  0  0  0  0  0  0  0  0
  1  2  2  0  0  0  0
  1  5  1  0  0  0  0
  2  3  1  0  0  0  0
  3  4  1  0  0  0  0
  3 30  1  0  0  0  0
  5  4  2  0  0  0  0
  6  7  1  0  0  0  0
  7  8  1  0  0  0  0
  8  9  2  0  0  0  0
  9  1  1  0  0  0  0
 10  9  1  0  0  0  0
 11 10  2  0  0  0  0
 12  7  2  0  0  0  0
 12 11  1  0  0  0  0
 13 12  1  0  0  0  0
 14  4  1  6  0  0  0
 14 15  1  0  0  0  0
 14 19  1  0  0  0  0
 16 17  1  0  0  0  0
 16 15  1  0  0  0  0
 17 20  1  0  0  0  0
 18 17  1  0  0  0  0
 18 19  1  0  0  0  0
 20 21  1  0  0  0  0
 21 22  2  0  0  0  0
 23 22  1  0  0  0  0
 24 23  2  0  0  0  0
 25 24  1  0  0  0  0
 25 28  1  0  0  0  0
 26 20  2  0  0  0  0
 26 24  1  0  0  0  0
 27 26  1  0  0  0  0
 29 25  1  0  0  0  0
 31 30  1  0  0  0  0
 31 32  1  0  0  0  0
 32 36  1  0  0  0  0
 33 32  1  0  0  0  0
 34 33  1  0  0  0  0
 35 34  1  0  0  0  0
 35 32  1  0  0  0  0
M  END
>  <minimizedAffinity>
-8.84505558

$$$$

 OpenBabel11232420383D

 36 40  0  0  1  0  0  0  0  0999 V2000
  -20.3050   17.7820   12.4350 C   0  0  0  0  0  0  0  0  0  0  0  0
  -20.5030   18.7640   13.3770 C   0  0  0  0  0  3  0  0  0  0  0  0
  -21.1380   18.1450   14.4260 N   0  0  0  0  0  0  0  0  0  0  0  0
  -21.2240   16.8010   14.1310 C   0  0  0  0  0  0  0  0  0  0  0  0
  -20.8090   16.5930   12.8990 N   0  0  0  0  0  0  0  0  0  0  0  0
  -18.8600   20.5990    8.5280 C   0  0  0  0  0  1  0  0  0  0  0  0
  -18.9810   19.2720    9.2140 C   0  0  0  0  0  0  0  0  0  0  0  0
  -19.6030   19.1600   10.4680 C   0  0  0  0  0  3  0  0  0  0  0  0
  -19.6730   17.9230   11.1320 C   0  0  0  0  0  0  0  0  0  0  0  0
  -19.0930   16.7980   10.5270 C   0  0  0  0  0  3  0  0  0  0  0  0
  -18.4640   16.9020    9.2840 C   0  0  0  0  0  3  0  0  0  0  0  0
  -18.4100   18.1330    8.6430 C   0  0  0  0  0  0  0  0  0  0  0  0
  -17.7910   18.2190    7.4580 F   0  0  0  0  0  0  0  0  0  0  0  0
  -21.7270   15.7300   15.0650 C   0  0  2  0  0  3  0  0  0  0  0  0
  -21.2810   16.0020   16.5100 C   0  0  0  0  0  2  0  0  0  0  0  0
  -19.8300   15.5880   16.7650 C   0  0  0  0  0  2  0  0  0  0  0  0
  -19.5900   14.2210   16.3160 N   0  0  0  0  0  0  0  0  0  0  0  0
  -19.8740   13.9590   14.9080 C   0  0  0  0  0  2  0  0  0  0  0  0
  -21.3300   14.3170   14.5980 C   0  0  0  0  0  2  0  0  0  0  0  0
  -19.7940   13.1820   17.2210 C   0  0  0  0  0  0  0  0  0  0  0  0
  -20.9560   13.1890   17.9070 N   0  0  0  0  0  0  0  0  0  0  0  0
  -21.1700   12.1740   18.7550 C   0  0  0  0  0  3  0  0  0  0  0  0
  -20.3470   11.1500   18.9890 N   0  0  0  0  0  0  0  0  0  0  0  0
  -19.1780   11.1710   18.3330 C   0  0  0  0  0  0  0  0  0  0  0  0
  -18.3530   10.0860   18.5830 N   0  0  0  0  0  0  0  0  0  0  0  0
  -18.8500   12.1710   17.4220 C   0  0  0  0  0  0  0  0  0  0  0  0
  -17.1320   12.1870   16.6000 Br  0  0  0  0  0  0  0  0  0  0  0  0
  -18.7190    9.4500   19.2790 H   0  0  0  0  0  0  0  0  0  0  0  0
  -17.3550   10.2460   18.5730 H   0  0  0  0  0  0  0  0  0  0  0  0
  -21.5880   18.8300   15.6180 C   0  0  0  0  0  2  0  0  0  0  0  0
  -23.0860   19.1950   15.6330 C   0  0  0  0  0  2  0  0  0  0  0  0
  -23.8480   19.2630   16.9130 N   0  0  0  0  0  4  0  0  0  0  0  0
  -24.1360   17.9740   17.5680 C   0  0  0  0  0  2  0  0  0  0  0  0
  -23.8690   18.6700   18.9120 C   0  0  0  0  0  2  0  0  0  0  0  0
  -23.1020   19.7210   18.0950 C   0  0  0  0  0  2  0  0  0  0  0  0
  -24.7160   19.8050   16.7820 H   0  0  0  0  0  0  0  0  0  0  0  0
  1  5  1  0  0  0  0
  1  2  2  0  0  0  0
  2  3  1  0  0  0  0
  3 30  1  0  0  0  0
  4  3  1  0  0  0  0
  5  4  2  0  0  0  0
  6  7  1  0  0  0  0
  7  8  1  0  0  0  0
  8  9  2  0  0  0  0
  9  1  1  0  0  0  0
 10  9  1  0  0  0  0
 11 10  2  0  0  0  0
 12  7  2  0  0  0  0
 12 11  1  0  0  0  0
 13 12  1  0  0  0  0
 14  4  1  6  0  0  0
 14 15  1  0  0  0  0
 15 16  1  0  0  0  0
 17 16  1  0  0  0  0
 17 20  1  0  0  0  0
 18 17  1  0  0  0  0
 19 18  1  0  0  0  0
 19 14  1  0  0  0  0
 20 26  2  0  0  0  0
 20 21  1  0  0  0  0
 21 22  2  0  0  0  0
 22 23  1  0  0  0  0
 24 25  1  0  0  0  0
 24 23  2  0  0  0  0
 25 28  1  0  0  0  0
 26 24  1  0  0  0  0
 27 26  1  0  0  0  0
 29 25  1  0  0  0  0
 30 31  1  0  0  0  0
 31 32  1  0  0  0  0
 32 33  1  0  0  0  0
 32 35  1  0  0  0  0
 33 34  1  0  0  0  0
 35 34  1  0  0  0  0
 36 32  1  0  0  0  0
M  END
>  <minimizedAffinity>
-8.77258682

$$$$

 OpenBabel11232420383D

 36 40  0  0  1  0  0  0  0  0999 V2000
  -19.6130   30.5880   13.3900 C   0  0  0  0  0  0  0  0  0  0  0  0
  -19.6260   31.3780   12.2640 C   0  0  0  0  0  3  0  0  0  0  0  0
  -19.7340   30.5090   11.2060 N   0  0  0  0  0  0  0  0  0  0  0  0
  -19.8740   29.2380   11.7200 C   0  0  0  0  0  0  0  0  0  0  0  0
  -19.7090   29.2690   13.0260 N   0  0  0  0  0  0  0  0  0  0  0  0
  -21.0530   33.5530   17.1880 C   0  0  0  0  0  1  0  0  0  0  0  0
  -20.1800   32.4710   16.6270 C   0  0  0  0  0  0  0  0  0  0  0  0
  -20.2950   32.0730   15.2850 C   0  0  0  0  0  3  0  0  0  0  0  0
  -19.5080   31.0260   14.7740 C   0  0  0  0  0  0  0  0  0  0  0  0
  -18.6150   30.3700   15.6330 C   0  0  0  0  0  3  0  0  0  0  0  0
  -18.5010   30.7530   16.9710 C   0  0  0  0  0  3  0  0  0  0  0  0
  -19.2840   31.7940   17.4560 C   0  0  0  0  0  0  0  0  0  0  0  0
  -19.1730   32.1400   18.7460 F   0  0  0  0  0  0  0  0  0  0  0  0
  -20.1570   27.9940   10.9150 C   0  0  2  0  0  3  0  0  0  0  0  0
  -20.2760   26.7620   11.8260 C   0  0  0  0  0  2  0  0  0  0  0  0
  -18.9140   26.2140   12.2540 C   0  0  0  0  0  2  0  0  0  0  0  0
  -18.0420   26.0180   11.1000 N   0  0  0  0  0  0  0  0  0  0  0  0
  -17.7960   27.2050   10.2860 C   0  0  0  0  0  2  0  0  0  0  0  0
  -19.1260   27.7800    9.7920 C   0  0  0  0  0  2  0  0  0  0  0  0
  -18.0680   24.7850   10.4530 C   0  0  0  0  0  0  0  0  0  0  0  0
  -19.1380   23.9950   10.6860 N   0  0  0  0  0  0  0  0  0  0  0  0
  -19.1810   22.8210   10.0410 C   0  0  0  0  0  3  0  0  0  0  0  0
  -18.2700   22.3540    9.1840 N   0  0  0  0  0  0  0  0  0  0  0  0
  -17.1920   23.1270    8.9890 C   0  0  0  0  0  0  0  0  0  0  0  0
  -16.2740   22.6230    8.0820 N   0  0  0  0  0  0  0  0  0  0  0  0
  -17.0430   24.3680    9.6000 C   0  0  0  0  0  0  0  0  0  0  0  0
  -15.4400   25.3680    9.3500 Br  0  0  0  0  0  0  0  0  0  0  0  0
  -16.5120   21.7040    7.7330 H   0  0  0  0  0  0  0  0  0  0  0  0
  -15.2970   22.8230    8.2460 H   0  0  0  0  0  0  0  0  0  0  0  0
  -19.7270   30.9180    9.8180 C   0  0  0  0  0  2  0  0  0  0  0  0
  -18.9760   32.2330    9.5310 C   0  0  0  0  0  2  0  0  0  0  0  0
  -17.5020   32.2450    9.3060 N   0  0  0  0  0  4  0  0  0  0  0  0
  -16.8700   33.5730    9.2070 C   0  0  0  0  0  2  0  0  0  0  0  0
  -15.6840   32.9970    9.9960 C   0  0  0  0  0  2  0  0  0  0  0  0
  -16.6610   31.9080   10.4630 C   0  0  0  0  0  2  0  0  0  0  0  0
  -17.2630   31.6680    8.4840 H   0  0  0  0  0  0  0  0  0  0  0  0
  1  9  1  0  0  0  0
  2  1  2  0  0  0  0
  3  4  1  0  0  0  0
  3  2  1  0  0  0  0
  4  5  2  0  0  0  0
  5  1  1  0  0  0  0
  7  6  1  0  0  0  0
  7 12  1  0  0  0  0
  8  7  2  0  0  0  0
  9  8  1  0  0  0  0
  9 10  2  0  0  0  0
 10 11  1  0  0  0  0
 11 12  2  0  0  0  0
 12 13  1  0  0  0  0
 14  4  1  1  0  0  0
 14 15  1  0  0  0  0
 15 16  1  0  0  0  0
 17 16  1  0  0  0  0
 18 17  1  0  0  0  0
 19 18  1  0  0  0  0
 19 14  1  0  0  0  0
 20 21  1  0  0  0  0
 20 17  1  0  0  0  0
 22 21  2  0  0  0  0
 23 22  1  0  0  0  0
 24 23  2  0  0  0  0
 24 26  1  0  0  0  0
 25 29  1  0  0  0  0
 25 24  1  0  0  0  0
 26 20  2  0  0  0  0
 27 26  1  0  0  0  0
 28 25  1  0  0  0  0
 30  3  1  0  0  0  0
 31 30  1  0  0  0  0
 32 31  1  0  0  0  0
 32 35  1  0  0  0  0
 33 32  1  0  0  0  0
 33 34  1  0  0  0  0
 34 35  1  0  0  0  0
 36 32  1  0  0  0  0
M  END
>  <minimizedAffinity>
-8.67810345

$$$$
