
 OpenBabel11232420383D

 36 40  0  0  1  0  0  0  0  0999 V2000
  -19.6130   30.5880   13.3900 C   0  0  0  0  0  0  0  0  0  0  0  0
  -19.6260   31.3780   12.2640 C   0  0  0  0  0  3  0  0  0  0  0  0
  -19.7340   30.5090   11.2060 N   0  0  0  0  0  0  0  0  0  0  0  0
  -19.8740   29.2380   11.7200 C   0  0  0  0  0  0  0  0  0  0  0  0
  -19.7090   29.2690   13.0260 N   0  0  0  0  0  0  0  0  0  0  0  0
  -21.0530   33.5530   17.1880 C   0  0  0  0  0  1  0  0  0  0  0  0
  -20.1800   32.4710   16.6270 C   0  0  0  0  0  0  0  0  0  0  0  0
  -20.2950   32.0730   15.2850 C   0  0  0  0  0  3  0  0  0  0  0  0
  -19.5080   31.0260   14.7740 C   0  0  0  0  0  0  0  0  0  0  0  0
  -18.6150   30.3700   15.6330 C   0  0  0  0  0  3  0  0  0  0  0  0
  -18.5010   30.7530   16.9710 C   0  0  0  0  0  3  0  0  0  0  0  0
  -19.2840   31.7940   17.4560 C   0  0  0  0  0  0  0  0  0  0  0  0
  -19.1730   32.1400   18.7460 F   0  0  0  0  0  0  0  0  0  0  0  0
  -20.1570   27.9940   10.9150 C   0  0  2  0  0  3  0  0  0  0  0  0
  -20.2760   26.7620   11.8260 C   0  0  0  0  0  2  0  0  0  0  0  0
  -18.9140   26.2140   12.2540 C   0  0  0  0  0  2  0  0  0  0  0  0
  -18.0420   26.0180   11.1000 N   0  0  0  0  0  0  0  0  0  0  0  0
  -17.7960   27.2050   10.2860 C   0  0  0  0  0  2  0  0  0  0  0  0
  -19.1260   27.7800    9.7920 C   0  0  0  0  0  2  0  0  0  0  0  0
  -18.0680   24.7850   10.4530 C   0  0  0  0  0  0  0  0  0  0  0  0
  -19.1380   23.9950   10.6860 N   0  0  0  0  0  0  0  0  0  0  0  0
  -19.1810   22.8210   10.0410 C   0  0  0  0  0  3  0  0  0  0  0  0
  -18.2700   22.3540    9.1840 N   0  0  0  0  0  0  0  0  0  0  0  0
  -17.1920   23.1270    8.9890 C   0  0  0  0  0  0  0  0  0  0  0  0
  -16.2740   22.6230    8.0820 N   0  0  0  0  0  0  0  0  0  0  0  0
  -17.0430   24.3680    9.6000 C   0  0  0  0  0  0  0  0  0  0  0  0
  -15.4400   25.3680    9.3500 Br  0  0  0  0  0  0  0  0  0  0  0  0
  -16.5120   21.7040    7.7330 H   0  0  0  0  0  0  0  0  0  0  0  0
  -15.2970   22.8230    8.2460 H   0  0  0  0  0  0  0  0  0  0  0  0
  -19.7270   30.9180    9.8180 C   0  0  0  0  0  2  0  0  0  0  0  0
  -18.9760   32.2330    9.5310 C   0  0  0  0  0  2  0  0  0  0  0  0
  -17.5020   32.2450    9.3060 N   0  0  0  0  0  4  0  0  0  0  0  0
  -16.8700   33.5730    9.2070 C   0  0  0  0  0  2  0  0  0  0  0  0
  -15.6840   32.9970    9.9960 C   0  0  0  0  0  2  0  0  0  0  0  0
  -16.6610   31.9080   10.4630 C   0  0  0  0  0  2  0  0  0  0  0  0
  -17.2630   31.6680    8.4840 H   0  0  0  0  0  0  0  0  0  0  0  0
  1  9  1  0  0  0  0
  2  1  2  0  0  0  0
  3  4  1  0  0  0  0
  3  2  1  0  0  0  0
  4  5  2  0  0  0  0
  5  1  1  0  0  0  0
  7  6  1  0  0  0  0
  7 12  1  0  0  0  0
  8  7  2  0  0  0  0
  9  8  1  0  0  0  0
  9 10  2  0  0  0  0
 10 11  1  0  0  0  0
 11 12  2  0  0  0  0
 12 13  1  0  0  0  0
 14  4  1  1  0  0  0
 14 15  1  0  0  0  0
 15 16  1  0  0  0  0
 17 16  1  0  0  0  0
 18 17  1  0  0  0  0
 19 18  1  0  0  0  0
 19 14  1  0  0  0  0
 20 21  1  0  0  0  0
 20 17  1  0  0  0  0
 22 21  2  0  0  0  0
 23 22  1  0  0  0  0
 24 23  2  0  0  0  0
 24 26  1  0  0  0  0
 25 29  1  0  0  0  0
 25 24  1  0  0  0  0
 26 20  2  0  0  0  0
 27 26  1  0  0  0  0
 28 25  1  0  0  0  0
 30  3  1  0  0  0  0
 31 30  1  0  0  0  0
 32 31  1  0  0  0  0
 32 35  1  0  0  0  0
 33 32  1  0  0  0  0
 33 34  1  0  0  0  0
 34 35  1  0  0  0  0
 36 32  1  0  0  0  0
M  END
>  <minimizedAffinity>
-8.67810345

$$$$
