
 OpenBabel11232420383D

 36 40  0  0  1  0  0  0  0  0999 V2000
  -19.1290   19.8970   10.0540 C   0  0  0  0  0  0  0  0  0  0  0  0
  -19.6500   21.1220   10.4000 C   0  0  0  0  0  3  0  0  0  0  0  0
  -20.3310   20.9140   11.5750 N   0  0  0  0  0  0  0  0  0  0  0  0
  -20.1290   19.6030   11.9510 C   0  0  0  0  0  0  0  0  0  0  0  0
  -19.4860   18.9640   10.9960 N   0  0  0  0  0  0  0  0  0  0  0  0
  -17.1960   21.1250    5.5770 C   0  0  0  0  0  1  0  0  0  0  0  0
  -17.3930   20.1480    6.6970 C   0  0  0  0  0  0  0  0  0  0  0  0
  -18.1810   20.4770    7.8130 C   0  0  0  0  0  3  0  0  0  0  0  0
  -18.3260   19.5780    8.8840 C   0  0  0  0  0  0  0  0  0  0  0  0
  -17.6540   18.3480    8.8300 C   0  0  0  0  0  3  0  0  0  0  0  0
  -16.8610   18.0170    7.7280 C   0  0  0  0  0  3  0  0  0  0  0  0
  -16.7350   18.9170    6.6780 C   0  0  0  0  0  0  0  0  0  0  0  0
  -15.9590   18.5910    5.6350 F   0  0  0  0  0  0  0  0  0  0  0  0
  -20.5840   18.9840   13.2490 C   0  0  2  0  0  3  0  0  0  0  0  0
  -20.1600   17.5100   13.3360 C   0  0  0  0  0  2  0  0  0  0  0  0
  -21.0790   16.5850   12.5350 C   0  0  0  0  0  2  0  0  0  0  0  0
  -22.4790   16.8220   12.8690 N   0  0  0  0  0  0  0  0  0  0  0  0
  -22.9550   18.1880   12.6670 C   0  0  0  0  0  2  0  0  0  0  0  0
  -22.0960   19.1610   13.4790 C   0  0  0  0  0  2  0  0  0  0  0  0
  -23.0440   16.0880   13.9090 C   0  0  0  0  0  0  0  0  0  0  0  0
  -23.0180   16.6490   15.1370 N   0  0  0  0  0  0  0  0  0  0  0  0
  -23.5890   15.9600   16.1350 C   0  0  0  0  0  3  0  0  0  0  0  0
  -24.1870   14.7710   16.0360 N   0  0  0  0  0  0  0  0  0  0  0  0
  -24.1740   14.2030   14.8210 C   0  0  0  0  0  0  0  0  0  0  0  0
  -24.8170   12.9790   14.7470 N   0  0  0  0  0  0  0  0  0  0  0  0
  -23.6160   14.8290   13.7100 C   0  0  0  0  0  0  0  0  0  0  0  0
  -23.5490   13.9200   12.0370 Br  0  0  0  0  0  0  0  0  0  0  0  0
  -25.1590   12.6450   15.6390 H   0  0  0  0  0  0  0  0  0  0  0  0
  -24.4460   12.2940   14.1020 H   0  0  0  0  0  0  0  0  0  0  0  0
  -21.0840   21.9370   12.2660 C   0  0  0  0  0  2  0  0  0  0  0  0
  -20.9480   23.3550   11.6780 C   0  0  0  0  0  2  0  0  0  0  0  0
  -20.0680   24.3740   12.3190 N   0  0  0  0  0  4  0  0  0  0  0  0
  -18.6180   24.1970   12.1210 C   0  0  0  0  0  2  0  0  0  0  0  0
  -18.5140   25.7250   11.9910 C   0  0  0  0  0  2  0  0  0  0  0  0
  -20.0170   25.6940   11.6740 C   0  0  0  0  0  2  0  0  0  0  0  0
  -20.2890   24.4530   13.3240 H   0  0  0  0  0  0  0  0  0  0  0  0
  1  2  2  0  0  0  0
  1  5  1  0  0  0  0
  2  3  1  0  0  0  0
  3  4  1  0  0  0  0
  3 30  1  0  0  0  0
  5  4  2  0  0  0  0
  6  7  1  0  0  0  0
  7  8  1  0  0  0  0
  8  9  2  0  0  0  0
  9  1  1  0  0  0  0
 10  9  1  0  0  0  0
 11 10  2  0  0  0  0
 12  7  2  0  0  0  0
 12 11  1  0  0  0  0
 13 12  1  0  0  0  0
 14  4  1  6  0  0  0
 14 15  1  0  0  0  0
 14 19  1  0  0  0  0
 16 17  1  0  0  0  0
 16 15  1  0  0  0  0
 17 20  1  0  0  0  0
 18 17  1  0  0  0  0
 18 19  1  0  0  0  0
 20 21  1  0  0  0  0
 21 22  2  0  0  0  0
 23 22  1  0  0  0  0
 24 23  2  0  0  0  0
 25 24  1  0  0  0  0
 25 28  1  0  0  0  0
 26 20  2  0  0  0  0
 26 24  1  0  0  0  0
 27 26  1  0  0  0  0
 29 25  1  0  0  0  0
 31 30  1  0  0  0  0
 31 32  1  0  0  0  0
 32 36  1  0  0  0  0
 33 32  1  0  0  0  0
 34 33  1  0  0  0  0
 35 34  1  0  0  0  0
 35 32  1  0  0  0  0
M  END
>  <minimizedAffinity>
-8.84505558

$$$$
