
 OpenBabel11232419393D

 42 47  0  0  1  0  0  0  0  0999 V2000
   63.6530  -41.9720   15.1060 C   0  0  0  0  0  0  0  0  0  0  0  0
   63.8390  -41.9450   13.7180 C   0  0  0  0  0  3  0  0  0  0  0  0
   62.7360  -42.0360   12.8650 C   0  0  0  0  0  3  0  0  0  0  0  0
   61.4570  -42.1840   13.4020 C   0  0  0  0  0  0  0  0  0  0  0  0
   61.2750  -42.2240   14.7900 C   0  0  0  0  0  0  0  0  0  0  0  0
   62.3720  -42.1260   15.6450 C   0  0  0  0  0  3  0  0  0  0  0  0
   59.9220  -42.3470   15.2770 C   0  0  0  0  0  0  0  0  0  0  0  0
   59.4510  -42.2300   16.4970 N   0  0  0  0  0  0  0  0  0  0  0  0
   58.0900  -42.4380   16.3910 C   0  0  0  0  0  0  0  0  0  0  0  0
   57.7250  -42.6890   15.0710 C   0  0  0  0  0  0  0  0  0  0  0  0
   58.9200  -42.6120   14.3890 N   0  0  0  0  0  0  0  0  0  0  0  0
   59.1860  -42.8390   12.9820 C   0  0  0  0  0  2  0  0  0  0  0  0
   60.4100  -42.2270   12.5180 O   0  0  0  0  0  0  0  0  0  0  0  0
   56.4420  -42.9280   14.4270 C   0  0  0  0  0  0  0  0  0  0  0  0
   55.9290  -44.2280   14.3270 C   0  0  0  0  0  3  0  0  0  0  0  0
   54.7020  -44.4530   13.7010 C   0  0  0  0  0  3  0  0  0  0  0  0
   53.9810  -43.3820   13.1740 C   0  0  0  0  0  3  0  0  0  0  0  0
   54.4830  -42.0850   13.2740 C   0  0  0  0  0  3  0  0  0  0  0  0
   55.7100  -41.8580   13.8990 C   0  0  0  0  0  3  0  0  0  0  0  0
   57.2350  -42.3760   17.5660 C   0  0  0  0  0  0  0  0  0  0  0  0
   56.6930  -41.1840   18.0470 C   0  0  0  0  0  3  0  0  0  0  0  0
   55.8370  -41.1850   19.1580 C   0  0  0  0  0  3  0  0  0  0  0  0
   55.4800  -42.3730   19.8320 C   0  0  0  0  0  0  0  0  0  0  0  0
   56.0440  -43.5610   19.3280 C   0  0  0  0  0  3  0  0  0  0  0  0
   56.8980  -43.5650   18.2190 C   0  0  0  0  0  3  0  0  0  0  0  0
   54.4710  -42.3790   21.0390 C   0  0  1  0  0  0  0  0  0  0  0  0
   54.8530  -41.6610   22.3710 C   0  0  0  0  0  2  0  0  0  0  0  0
   53.3300  -41.3940   22.5700 C   0  0  1  0  0  0  0  0  0  0  0  0
   52.9880  -40.0760   23.2370 C   0  0  0  0  0  1  0  0  0  0  0  0
   53.2250  -41.4370   21.0160 C   0  0  0  0  0  2  0  0  0  0  0  0
   54.0810  -43.7910   21.2920 N   0  0  0  0  0  4  0  0  0  0  0  0
   53.6110  -44.2130   20.4830 H   0  0  0  0  0  0  0  0  0  0  0  0
   54.8930  -44.3770   21.5180 H   0  0  0  0  0  0  0  0  0  0  0  0
   53.4290  -43.8380   22.0990 H   0  0  0  0  0  0  0  0  0  0  0  0
   52.6420  -42.5040   23.2090 O   0  0  0  0  0  0  0  0  0  0  0  0
   51.8630  -42.1150   23.6590 H   0  0  0  0  0  0  0  0  0  0  0  0
   65.4350  -43.0540   16.4290 N   0  0  0  0  0  0  0  0  0  0  0  0
   64.8000  -41.9050   16.0350 C   0  0  0  0  0  0  0  0  0  0  0  0
   65.1900  -40.8100   16.4310 O   0  0  0  0  0  0  0  0  0  0  0  0
   66.1590  -42.8890   17.1190 H   0  0  0  0  0  0  0  0  0  0  0  0
   64.3910  -45.2120   16.9370 C   0  0  0  0  0  1  0  0  0  0  0  0
   65.2280  -44.4110   15.9570 C   0  0  0  0  0  2  0  0  0  0  0  0
  1  6  1  0  0  0  0
  1 38  1  0  0  0  0
  2  1  2  0  0  0  0
  3  4  2  0  0  0  0
  3  2  1  0  0  0  0
  4  5  1  0  0  0  0
  5  7  1  0  0  0  0
  5  6  2  0  0  0  0
  7  8  2  0  0  0  0
  9  8  1  0  0  0  0
  9 20  1  0  0  0  0
 10  9  2  0  0  0  0
 11 10  1  0  0  0  0
 11  7  1  0  0  0  0
 12 11  1  0  0  0  0
 13 12  1  0  0  0  0
 13  4  1  0  0  0  0
 14 10  1  0  0  0  0
 15 14  1  0  0  0  0
 16 15  2  0  0  0  0
 17 18  2  0  0  0  0
 17 16  1  0  0  0  0
 18 19  1  0  0  0  0
 19 14  2  0  0  0  0
 20 21  2  0  0  0  0
 20 25  1  0  0  0  0
 21 22  1  0  0  0  0
 22 23  2  0  0  0  0
 23 26  1  0  0  0  0
 24 23  1  0  0  0  0
 25 24  2  0  0  0  0
 26 31  1  1  0  0  0
 26 27  1  0  0  0  0
 27 28  1  0  0  0  0
 28 35  1  0  0  0  0
 28 29  1  1  0  0  0
 30 26  1  0  0  0  0
 30 28  1  0  0  0  0
 31 33  1  0  0  0  0
 31 34  1  0  0  0  0
 32 31  1  0  0  0  0
 35 36  1  0  0  0  0
 37 40  1  0  0  0  0
 38 37  1  0  0  0  0
 38 39  2  0  0  0  0
 42 37  1  0  0  0  0
 42 41  1  0  0  0  0
M  END
>  <minimizedAffinity>
-3.94171143

$$$$
