
 OpenBabel11232419393D

 42 47  0  0  1  0  0  0  0  0999 V2000
   63.5300  -42.2210   15.0280 C   0  0  0  0  0  0  0  0  0  0  0  0
   63.7590  -42.2410   13.6460 C   0  0  0  0  0  3  0  0  0  0  0  0
   62.6970  -42.4680   12.7680 C   0  0  0  0  0  3  0  0  0  0  0  0
   61.4190  -42.7070   13.2740 C   0  0  0  0  0  0  0  0  0  0  0  0
   61.1950  -42.7000   14.6560 C   0  0  0  0  0  0  0  0  0  0  0  0
   62.2510  -42.4660   15.5370 C   0  0  0  0  0  3  0  0  0  0  0  0
   59.8430  -42.9220   15.1090 C   0  0  0  0  0  0  0  0  0  0  0  0
   59.3240  -42.7930   16.3080 N   0  0  0  0  0  0  0  0  0  0  0  0
   57.9910  -43.1270   16.1740 C   0  0  0  0  0  0  0  0  0  0  0  0
   57.6940  -43.4690   14.8580 C   0  0  0  0  0  0  0  0  0  0  0  0
   58.8980  -43.3150   14.2080 N   0  0  0  0  0  0  0  0  0  0  0  0
   59.2300  -43.5810   12.8210 C   0  0  0  0  0  2  0  0  0  0  0  0
   60.4090  -42.8830   12.3630 O   0  0  0  0  0  0  0  0  0  0  0  0
   56.4580  -43.8510   14.1890 C   0  0  0  0  0  0  0  0  0  0  0  0
   55.7620  -44.9990   14.5870 C   0  0  0  0  0  3  0  0  0  0  0  0
   54.5810  -45.3660   13.9380 C   0  0  0  0  0  3  0  0  0  0  0  0
   54.0910  -44.5880   12.8900 C   0  0  0  0  0  3  0  0  0  0  0  0
   54.7780  -43.4410   12.4910 C   0  0  0  0  0  3  0  0  0  0  0  0
   55.9580  -43.0730   13.1390 C   0  0  0  0  0  3  0  0  0  0  0  0
   57.0960  -43.0890   17.3200 C   0  0  0  0  0  0  0  0  0  0  0  0
   56.9640  -44.1530   18.2130 C   0  0  0  0  0  3  0  0  0  0  0  0
   56.1210  -44.0480   19.3290 C   0  0  0  0  0  3  0  0  0  0  0  0
   55.3810  -42.8780   19.6060 C   0  0  0  0  0  0  0  0  0  0  0  0
   55.5310  -41.8210   18.6870 C   0  0  0  0  0  3  0  0  0  0  0  0
   56.3710  -41.9210   17.5720 C   0  0  0  0  0  3  0  0  0  0  0  0
   54.4840  -42.7400   20.8910 C   0  0  1  0  0  0  0  0  0  0  0  0
   54.8420  -41.6780   21.9750 C   0  0  0  0  0  2  0  0  0  0  0  0
   53.3160  -41.5920   22.2820 C   0  0  1  0  0  0  0  0  0  0  0  0
   52.8120  -40.2160   22.6720 C   0  0  0  0  0  1  0  0  0  0  0  0
   53.1000  -42.0200   20.7990 C   0  0  0  0  0  2  0  0  0  0  0  0
   54.3540  -44.0920   21.4960 N   0  0  0  0  0  4  0  0  0  0  0  0
   53.9000  -44.7580   20.8610 H   0  0  0  0  0  0  0  0  0  0  0  0
   55.2670  -44.4840   21.7540 H   0  0  0  0  0  0  0  0  0  0  0  0
   53.7840  -44.0370   22.3630 H   0  0  0  0  0  0  0  0  0  0  0  0
   52.8740  -42.6030   23.2280 O   0  0  0  0  0  0  0  0  0  0  0  0
   52.0780  -42.2340   23.6650 H   0  0  0  0  0  0  0  0  0  0  0  0
   64.3810  -41.9590   17.3310 N   0  0  0  0  0  0  0  0  0  0  0  0
   64.6360  -42.0100   15.9860 C   0  0  0  0  0  0  0  0  0  0  0  0
   65.7840  -41.9010   15.5640 O   0  0  0  0  0  0  0  0  0  0  0  0
   65.2040  -41.7400   17.8810 H   0  0  0  0  0  0  0  0  0  0  0  0
   63.3530  -43.1130   19.2330 C   0  0  0  0  0  1  0  0  0  0  0  0
   63.1350  -42.2170   18.0280 C   0  0  0  0  0  2  0  0  0  0  0  0
  1  6  1  0  0  0  0
  1 38  1  0  0  0  0
  2  1  2  0  0  0  0
  3  4  2  0  0  0  0
  3  2  1  0  0  0  0
  4  5  1  0  0  0  0
  5  7  1  0  0  0  0
  5  6  2  0  0  0  0
  7  8  2  0  0  0  0
  9  8  1  0  0  0  0
  9 20  1  0  0  0  0
 10  9  2  0  0  0  0
 11 10  1  0  0  0  0
 11  7  1  0  0  0  0
 12 11  1  0  0  0  0
 13 12  1  0  0  0  0
 13  4  1  0  0  0  0
 14 15  1  0  0  0  0
 14 10  1  0  0  0  0
 16 15  2  0  0  0  0
 17 16  1  0  0  0  0
 18 17  2  0  0  0  0
 18 19  1  0  0  0  0
 19 14  2  0  0  0  0
 20 25  2  0  0  0  0
 20 21  1  0  0  0  0
 21 22  2  0  0  0  0
 22 23  1  0  0  0  0
 23 26  1  0  0  0  0
 24 23  2  0  0  0  0
 25 24  1  0  0  0  0
 26 31  1  1  0  0  0
 26 27  1  0  0  0  0
 27 28  1  0  0  0  0
 28 29  1  1  0  0  0
 28 35  1  0  0  0  0
 30 26  1  0  0  0  0
 30 28  1  0  0  0  0
 31 33  1  0  0  0  0
 31 34  1  0  0  0  0
 32 31  1  0  0  0  0
 35 36  1  0  0  0  0
 37 40  1  0  0  0  0
 37 42  1  0  0  0  0
 38 37  1  0  0  0  0
 39 38  2  0  0  0  0
 42 41  1  0  0  0  0
M  END
>  <minimizedAffinity>
-2.2842145

$$$$
