
 OpenBabel11232418503D

 41 46  0  0  1  0  0  0  0  0999 V2000
    6.9580   -0.7650   10.8040 C   0  0  0  0  0  0  0  0  0  0  0  0
    6.4560   -0.2720    9.5910 C   0  0  0  0  0  3  0  0  0  0  0  0
    6.1680   -1.1550    8.5470 C   0  0  0  0  0  3  0  0  0  0  0  0
    6.4120   -2.5190    8.7070 C   0  0  0  0  0  0  0  0  0  0  0  0
    6.9240   -3.0070    9.9140 C   0  0  0  0  0  0  0  0  0  0  0  0
    7.2060   -2.1310   10.9630 C   0  0  0  0  0  3  0  0  0  0  0  0
    7.1220   -4.4320   10.0230 C   0  0  0  0  0  0  0  0  0  0  0  0
    7.4100   -5.1670   11.0720 N   0  0  0  0  0  0  0  0  0  0  0  0
    7.4770   -6.4660   10.6080 C   0  0  0  0  0  0  0  0  0  0  0  0
    7.2230   -6.5210    9.2420 C   0  0  0  0  0  0  0  0  0  0  0  0
    6.9900   -5.2070    8.9060 N   0  0  0  0  0  0  0  0  0  0  0  0
    6.7250   -4.6280    7.6030 C   0  0  0  0  0  2  0  0  0  0  0  0
    6.0720   -3.3410    7.6630 O   0  0  0  0  0  0  0  0  0  0  0  0
    7.1350   -7.6230    8.2930 C   0  0  0  0  0  0  0  0  0  0  0  0
    6.4660   -8.8040    8.6380 C   0  0  0  0  0  3  0  0  0  0  0  0
    6.3910   -9.8600    7.7280 C   0  0  0  0  0  3  0  0  0  0  0  0
    6.9830   -9.7420    6.4710 C   0  0  0  0  0  3  0  0  0  0  0  0
    7.6480   -8.5680    6.1200 C   0  0  0  0  0  3  0  0  0  0  0  0
    7.7220   -7.5100    7.0280 C   0  0  0  0  0  3  0  0  0  0  0  0
    7.7750   -7.5640   11.5170 C   0  0  0  0  0  0  0  0  0  0  0  0
    9.0740   -7.9950   11.7850 C   0  0  0  0  0  3  0  0  0  0  0  0
    9.3080   -9.0280   12.7040 C   0  0  0  0  0  3  0  0  0  0  0  0
    8.2610   -9.6690   13.4000 C   0  0  0  0  0  0  0  0  0  0  0  0
    6.9600   -9.2150   13.1090 C   0  0  0  0  0  3  0  0  0  0  0  0
    6.7210   -8.1850   12.1930 C   0  0  0  0  0  3  0  0  0  0  0  0
    8.5300  -10.7860   14.4760 C   0  0  1  0  0  0  0  0  0  0  0  0
    9.9060  -10.8420   15.2090 C   0  0  0  0  0  2  0  0  0  0  0  0
    9.1410  -11.4370   16.4290 C   0  0  1  0  0  0  0  0  0  0  0  0
    9.6730  -11.0250   17.7880 C   0  0  0  0  0  1  0  0  0  0  0  0
    7.8990  -10.6590   15.9000 C   0  0  0  0  0  2  0  0  0  0  0  0
    8.2060  -12.0970   13.8540 N   0  0  0  0  0  4  0  0  0  0  0  0
    7.2230  -12.1590   13.5700 H   0  0  0  0  0  0  0  0  0  0  0  0
    8.7810  -12.2750   13.0220 H   0  0  0  0  0  0  0  0  0  0  0  0
    8.3920  -12.8630   14.5300 H   0  0  0  0  0  0  0  0  0  0  0  0
    8.9770  -12.8790   16.3430 O   0  0  0  0  0  0  0  0  0  0  0  0
    8.8940  -13.1970   17.2670 H   0  0  0  0  0  0  0  0  0  0  0  0
    8.4620    1.8290   10.4250 C   0  0  0  0  0  1  0  0  0  0  0  0
    8.0580    1.2620   11.6900 N   0  0  0  0  0  0  0  0  0  0  0  0
    7.2990    0.1440   11.9200 C   0  0  0  0  0  0  0  0  0  0  0  0
    6.8810   -0.1040   13.0470 O   0  0  0  0  0  0  0  0  0  0  0  0
    8.2680    1.7820   12.5340 H   0  0  0  0  0  0  0  0  0  0  0  0
  1  6  1  0  0  0  0
  1 39  1  0  0  0  0
  2  1  2  0  0  0  0
  3  4  2  0  0  0  0
  3  2  1  0  0  0  0
  4  5  1  0  0  0  0
  5  7  1  0  0  0  0
  5  6  2  0  0  0  0
  7  8  2  0  0  0  0
  9  8  1  0  0  0  0
  9 20  1  0  0  0  0
 10  9  2  0  0  0  0
 11 10  1  0  0  0  0
 11  7  1  0  0  0  0
 12 13  1  0  0  0  0
 12 11  1  0  0  0  0
 13  4  1  0  0  0  0
 14 15  1  0  0  0  0
 14 10  1  0  0  0  0
 16 15  2  0  0  0  0
 17 16  1  0  0  0  0
 18 17  2  0  0  0  0
 18 19  1  0  0  0  0
 19 14  2  0  0  0  0
 20 21  2  0  0  0  0
 20 25  1  0  0  0  0
 21 22  1  0  0  0  0
 22 23  2  0  0  0  0
 23 26  1  0  0  0  0
 24 23  1  0  0  0  0
 25 24  2  0  0  0  0
 26 31  1  6  0  0  0
 26 27  1  0  0  0  0
 26 30  1  0  0  0  0
 27 28  1  0  0  0  0
 28 29  1  1  0  0  0
 30 28  1  0  0  0  0
 31 34  1  0  0  0  0
 32 31  1  0  0  0  0
 33 31  1  0  0  0  0
 35 28  1  0  0  0  0
 35 36  1  0  0  0  0
 37 38  1  0  0  0  0
 38 39  1  0  0  0  0
 38 41  1  0  0  0  0
 39 40  2  0  0  0  0
M  END
>  <minimizedAffinity>
-12.5247726

$$$$
