
 OpenBabel11232418503D

 41 46  0  0  1  0  0  0  0  0999 V2000
    7.1570    0.0560   10.6150 C   0  0  0  0  0  0  0  0  0  0  0  0
    6.3280    0.3040    9.5130 C   0  0  0  0  0  3  0  0  0  0  0  0
    5.8070   -0.7650    8.7790 C   0  0  0  0  0  3  0  0  0  0  0  0
    6.1420   -2.0730    9.1280 C   0  0  0  0  0  0  0  0  0  0  0  0
    6.9800   -2.3180   10.2210 C   0  0  0  0  0  0  0  0  0  0  0  0
    7.4970   -1.2550   10.9630 C   0  0  0  0  0  3  0  0  0  0  0  0
    7.2600   -3.6960   10.5460 C   0  0  0  0  0  0  0  0  0  0  0  0
    7.8500   -4.2110   11.5990 N   0  0  0  0  0  0  0  0  0  0  0  0
    7.8450   -5.5780   11.3960 C   0  0  0  0  0  0  0  0  0  0  0  0
    7.2360   -5.8990   10.1880 C   0  0  0  0  0  0  0  0  0  0  0  0
    6.8660   -4.6750    9.6800 N   0  0  0  0  0  0  0  0  0  0  0  0
    6.2360   -4.3620    8.4110 C   0  0  0  0  0  2  0  0  0  0  0  0
    5.5690   -3.0810    8.3950 O   0  0  0  0  0  0  0  0  0  0  0  0
    6.9420   -7.1660    9.5310 C   0  0  0  0  0  0  0  0  0  0  0  0
    6.2510   -8.1750   10.2130 C   0  0  0  0  0  3  0  0  0  0  0  0
    5.9790   -9.3900    9.5820 C   0  0  0  0  0  3  0  0  0  0  0  0
    6.3960   -9.6030    8.2680 C   0  0  0  0  0  3  0  0  0  0  0  0
    7.0820   -8.6020    7.5830 C   0  0  0  0  0  3  0  0  0  0  0  0
    7.3540   -7.3850    8.2120 C   0  0  0  0  0  3  0  0  0  0  0  0
    8.4220   -6.4770   12.3850 C   0  0  0  0  0  0  0  0  0  0  0  0
    9.0790   -7.6590   12.0430 C   0  0  0  0  0  3  0  0  0  0  0  0
    9.6570   -8.4670   13.0320 C   0  0  0  0  0  3  0  0  0  0  0  0
    9.6120   -8.1290   14.4020 C   0  0  0  0  0  0  0  0  0  0  0  0
    8.9410   -6.9320   14.7190 C   0  0  0  0  0  3  0  0  0  0  0  0
    8.3630   -6.1220   13.7360 C   0  0  0  0  0  3  0  0  0  0  0  0
   10.3140   -9.0050   15.5050 C   0  0  1  0  0  0  0  0  0  0  0  0
    9.4610   -9.6560   16.6370 C   0  0  0  0  0  2  0  0  0  0  0  0
   10.5160  -10.8030   16.6620 C   0  0  1  0  0  0  0  0  0  0  0  0
    9.9620  -12.1830   16.9560 C   0  0  0  0  0  1  0  0  0  0  0  0
   10.7740  -10.4590   15.1640 C   0  0  0  0  0  2  0  0  0  0  0  0
   11.4290   -8.2030   16.0740 N   0  0  0  0  0  4  0  0  0  0  0  0
   12.1310   -7.9580   15.3680 H   0  0  0  0  0  0  0  0  0  0  0  0
   11.0930   -7.3280   16.4920 H   0  0  0  0  0  0  0  0  0  0  0  0
   11.9050   -8.7420   16.8230 H   0  0  0  0  0  0  0  0  0  0  0  0
   11.6580  -10.5020   17.5110 O   0  0  0  0  0  0  0  0  0  0  0  0
   12.0170  -11.3680   17.7970 H   0  0  0  0  0  0  0  0  0  0  0  0
    7.6810   -0.1160   13.5870 C   0  0  0  0  0  1  0  0  0  0  0  0
    7.8780    1.0510   12.7590 N   0  0  0  0  0  0  0  0  0  0  0  0
    7.7470    1.1630   11.3990 C   0  0  0  0  0  0  0  0  0  0  0  0
    8.1320    2.1730   10.8180 O   0  0  0  0  0  0  0  0  0  0  0  0
    8.2490    1.8870   13.1940 H   0  0  0  0  0  0  0  0  0  0  0  0
  1  6  1  0  0  0  0
  1 39  1  0  0  0  0
  2  1  2  0  0  0  0
  3  4  2  0  0  0  0
  3  2  1  0  0  0  0
  4  5  1  0  0  0  0
  5  7  1  0  0  0  0
  5  6  2  0  0  0  0
  7  8  2  0  0  0  0
  9  8  1  0  0  0  0
  9 20  1  0  0  0  0
 10  9  2  0  0  0  0
 11 10  1  0  0  0  0
 11  7  1  0  0  0  0
 12 11  1  0  0  0  0
 13 12  1  0  0  0  0
 13  4  1  0  0  0  0
 14 10  1  0  0  0  0
 14 15  1  0  0  0  0
 16 15  2  0  0  0  0
 17 16  1  0  0  0  0
 18 19  1  0  0  0  0
 18 17  2  0  0  0  0
 19 14  2  0  0  0  0
 20 25  1  0  0  0  0
 21 20  2  0  0  0  0
 21 22  1  0  0  0  0
 22 23  2  0  0  0  0
 23 24  1  0  0  0  0
 23 26  1  0  0  0  0
 25 24  2  0  0  0  0
 26 31  1  1  0  0  0
 26 27  1  0  0  0  0
 27 28  1  0  0  0  0
 28 29  1  1  0  0  0
 28 35  1  0  0  0  0
 30 26  1  0  0  0  0
 30 28  1  0  0  0  0
 31 33  1  0  0  0  0
 31 34  1  0  0  0  0
 32 31  1  0  0  0  0
 35 36  1  0  0  0  0
 38 41  1  0  0  0  0
 38 37  1  0  0  0  0
 39 38  1  0  0  0  0
 40 39  2  0  0  0  0
M  END
>  <minimizedAffinity>
-11.9400654

$$$$
