
 OpenBabel11232418503D

 41 46  0  0  1  0  0  0  0  0999 V2000
    7.2060   -8.5310    5.0980 C   0  0  0  0  0  0  0  0  0  0  0  0
    7.0250   -7.3290    4.4010 C   0  0  0  0  0  3  0  0  0  0  0  0
    6.9960   -6.1180    5.0980 C   0  0  0  0  0  3  0  0  0  0  0  0
    7.1150   -6.1160    6.4870 C   0  0  0  0  0  0  0  0  0  0  0  0
    7.2830   -7.3180    7.1830 C   0  0  0  0  0  0  0  0  0  0  0  0
    7.3210   -8.5290    6.4920 C   0  0  0  0  0  3  0  0  0  0  0  0
    7.4320   -7.2400    8.6160 C   0  0  0  0  0  0  0  0  0  0  0  0
    7.7770   -8.1660    9.4800 N   0  0  0  0  0  0  0  0  0  0  0  0
    7.7680   -7.5440   10.7130 C   0  0  0  0  0  0  0  0  0  0  0  0
    7.4080   -6.2060   10.5940 C   0  0  0  0  0  0  0  0  0  0  0  0
    7.2120   -6.0460    9.2410 N   0  0  0  0  0  0  0  0  0  0  0  0
    6.7670   -4.8730    8.5130 C   0  0  0  0  0  2  0  0  0  0  0  0
    7.1180   -4.8940    7.1110 O   0  0  0  0  0  0  0  0  0  0  0  0
    7.2860   -5.1220   11.5600 C   0  0  0  0  0  0  0  0  0  0  0  0
    8.4050   -4.3580   11.9130 C   0  0  0  0  0  3  0  0  0  0  0  0
    8.2850   -3.3250   12.8450 C   0  0  0  0  0  3  0  0  0  0  0  0
    7.0470   -3.0510   13.4270 C   0  0  0  0  0  3  0  0  0  0  0  0
    5.9290   -3.8060   13.0780 C   0  0  0  0  0  3  0  0  0  0  0  0
    6.0470   -4.8380   12.1450 C   0  0  0  0  0  3  0  0  0  0  0  0
    8.1130   -8.2830   11.9190 C   0  0  0  0  0  0  0  0  0  0  0  0
    9.4190   -8.3840   12.3990 C   0  0  0  0  0  3  0  0  0  0  0  0
    9.6910   -9.0700   13.5910 C   0  0  0  0  0  3  0  0  0  0  0  0
    8.6750   -9.6790   14.3590 C   0  0  0  0  0  0  0  0  0  0  0  0
    7.3660   -9.5640   13.8500 C   0  0  0  0  0  3  0  0  0  0  0  0
    7.0900   -8.8800   12.6610 C   0  0  0  0  0  3  0  0  0  0  0  0
    8.9740  -10.3960   15.7280 C   0  0  1  0  0  0  0  0  0  0  0  0
    8.8380  -11.9460   15.8360 C   0  0  0  0  0  2  0  0  0  0  0  0
    9.9590  -11.8880   16.9170 C   0  0  1  0  0  0  0  0  0  0  0  0
   10.9090  -13.0690   16.9270 C   0  0  0  0  0  1  0  0  0  0  0  0
   10.4520  -10.6020   16.1880 C   0  0  0  0  0  2  0  0  0  0  0  0
    8.1670   -9.7180   16.7760 N   0  0  0  0  0  4  0  0  0  0  0  0
    8.4140   -8.7280   16.8750 H   0  0  0  0  0  0  0  0  0  0  0  0
    7.1620   -9.7670   16.5740 H   0  0  0  0  0  0  0  0  0  0  0  0
    8.3230  -10.1780   17.6940 H   0  0  0  0  0  0  0  0  0  0  0  0
    9.4450  -11.6150   18.2500 O   0  0  0  0  0  0  0  0  0  0  0  0
   10.0930  -12.0020   18.8740 H   0  0  0  0  0  0  0  0  0  0  0  0
    9.6870   -9.7130    3.8400 C   0  0  0  0  0  1  0  0  0  0  0  0
    8.3560  -10.2710    3.7730 N   0  0  0  0  0  0  0  0  0  0  0  0
    7.2160   -9.8330    4.3960 C   0  0  0  0  0  0  0  0  0  0  0  0
    6.2010  -10.5220    4.3930 O   0  0  0  0  0  0  0  0  0  0  0  0
    8.2320  -11.1500    3.2860 H   0  0  0  0  0  0  0  0  0  0  0  0
  1  6  1  0  0  0  0
  2  1  2  0  0  0  0
  2  3  1  0  0  0  0
  3  4  2  0  0  0  0
  4 13  1  0  0  0  0
  4  5  1  0  0  0  0
  5  7  1  0  0  0  0
  6  5  2  0  0  0  0
  7 11  1  0  0  0  0
  7  8  2  0  0  0  0
  8  9  1  0  0  0  0
  9 20  1  0  0  0  0
 10  9  2  0  0  0  0
 10 14  1  0  0  0  0
 11 10  1  0  0  0  0
 12 11  1  0  0  0  0
 13 12  1  0  0  0  0
 14 15  2  0  0  0  0
 14 19  1  0  0  0  0
 15 16  1  0  0  0  0
 16 17  2  0  0  0  0
 18 17  1  0  0  0  0
 19 18  2  0  0  0  0
 20 21  2  0  0  0  0
 20 25  1  0  0  0  0
 21 22  1  0  0  0  0
 22 23  2  0  0  0  0
 23 26  1  0  0  0  0
 24 23  1  0  0  0  0
 25 24  2  0  0  0  0
 26 27  1  0  0  0  0
 26 30  1  0  0  0  0
 26 31  1  1  0  0  0
 27 28  1  0  0  0  0
 28 29  1  6  0  0  0
 28 35  1  0  0  0  0
 30 28  1  0  0  0  0
 31 32  1  0  0  0  0
 31 34  1  0  0  0  0
 33 31  1  0  0  0  0
 35 36  1  0  0  0  0
 38 37  1  0  0  0  0
 38 39  1  0  0  0  0
 39  1  1  0  0  0  0
 40 39  2  0  0  0  0
 41 38  1  0  0  0  0
M  END
>  <minimizedAffinity>
-12.2382889

$$$$
