
 OpenBabel11232418503D

 41 46  0  0  1  0  0  0  0  0999 V2000
    5.7390   -4.3300    5.7370 C   0  0  0  0  0  0  0  0  0  0  0  0
    5.7080   -3.0300    5.2140 C   0  0  0  0  0  3  0  0  0  0  0  0
    6.0220   -1.9420    6.0320 C   0  0  0  0  0  3  0  0  0  0  0  0
    6.3330   -2.1540    7.3750 C   0  0  0  0  0  0  0  0  0  0  0  0
    6.3500   -3.4510    7.8990 C   0  0  0  0  0  0  0  0  0  0  0  0
    6.0450   -4.5420    7.0840 C   0  0  0  0  0  3  0  0  0  0  0  0
    6.7110   -3.6000    9.2880 C   0  0  0  0  0  0  0  0  0  0  0  0
    6.9790   -4.6840    9.9790 N   0  0  0  0  0  0  0  0  0  0  0  0
    7.2690   -4.2470   11.2570 C   0  0  0  0  0  0  0  0  0  0  0  0
    7.1740   -2.8630   11.3440 C   0  0  0  0  0  0  0  0  0  0  0  0
    6.8270   -2.4850   10.0670 N   0  0  0  0  0  0  0  0  0  0  0  0
    6.5300   -1.1610    9.5520 C   0  0  0  0  0  2  0  0  0  0  0  0
    6.6700   -1.0520    8.1190 O   0  0  0  0  0  0  0  0  0  0  0  0
    7.4110   -1.9190   12.4280 C   0  0  0  0  0  0  0  0  0  0  0  0
    8.4450   -0.9800   12.3380 C   0  0  0  0  0  3  0  0  0  0  0  0
    8.6730   -0.0820   13.3820 C   0  0  0  0  0  3  0  0  0  0  0  0
    7.8680   -0.1180   14.5210 C   0  0  0  0  0  3  0  0  0  0  0  0
    6.8350   -1.0480   14.6160 C   0  0  0  0  0  3  0  0  0  0  0  0
    6.6050   -1.9460   13.5720 C   0  0  0  0  0  3  0  0  0  0  0  0
    7.6230   -5.1970   12.3030 C   0  0  0  0  0  0  0  0  0  0  0  0
    6.7040   -6.0800   12.8680 C   0  0  0  0  0  3  0  0  0  0  0  0
    7.1080   -7.0050   13.8410 C   0  0  0  0  0  3  0  0  0  0  0  0
    8.4440   -7.0960   14.2860 C   0  0  0  0  0  0  0  0  0  0  0  0
    9.3510   -6.1910   13.7000 C   0  0  0  0  0  3  0  0  0  0  0  0
    8.9530   -5.2650   12.7290 C   0  0  0  0  0  3  0  0  0  0  0  0
    8.9080   -8.1760   15.3330 C   0  0  1  0  0  0  0  0  0  0  0  0
   10.3690   -8.7200   15.2890 C   0  0  0  0  0  2  0  0  0  0  0  0
   10.2570   -8.9150   16.8310 C   0  0  1  0  0  0  0  0  0  0  0  0
   11.5360   -8.6730   17.6070 C   0  0  0  0  0  1  0  0  0  0  0  0
    9.2270   -7.7460   16.8000 C   0  0  0  0  0  2  0  0  0  0  0  0
    7.9250   -9.2900   15.2950 N   0  0  0  0  0  4  0  0  0  0  0  0
    6.9810   -8.9830   15.5510 H   0  0  0  0  0  0  0  0  0  0  0  0
    7.8680   -9.7160   14.3630 H   0  0  0  0  0  0  0  0  0  0  0  0
    8.2100  -10.0350   15.9600 H   0  0  0  0  0  0  0  0  0  0  0  0
    9.6510  -10.1860   17.1970 O   0  0  0  0  0  0  0  0  0  0  0  0
    9.9940  -10.4020   18.0890 H   0  0  0  0  0  0  0  0  0  0  0  0
    7.7860   -5.9680    4.2350 C   0  0  0  0  0  1  0  0  0  0  0  0
    6.3540   -6.1480    4.1820 N   0  0  0  0  0  0  0  0  0  0  0  0
    5.3860   -5.5020    4.9070 C   0  0  0  0  0  0  0  0  0  0  0  0
    4.2250   -5.8980    4.8870 O   0  0  0  0  0  0  0  0  0  0  0  0
    5.9900   -6.9040    3.6150 H   0  0  0  0  0  0  0  0  0  0  0  0
  1  6  1  0  0  0  0
  2  1  2  0  0  0  0
  2  3  1  0  0  0  0
  3  4  2  0  0  0  0
  4  5  1  0  0  0  0
  4 13  1  0  0  0  0
  5  7  1  0  0  0  0
  6  5  2  0  0  0  0
  7  8  2  0  0  0  0
  7 11  1  0  0  0  0
  8  9  1  0  0  0  0
  9 10  2  0  0  0  0
  9 20  1  0  0  0  0
 10 14  1  0  0  0  0
 11 10  1  0  0  0  0
 12 11  1  0  0  0  0
 13 12  1  0  0  0  0
 14 19  1  0  0  0  0
 15 14  2  0  0  0  0
 15 16  1  0  0  0  0
 16 17  2  0  0  0  0
 17 18  1  0  0  0  0
 19 18  2  0  0  0  0
 20 25  2  0  0  0  0
 20 21  1  0  0  0  0
 21 22  2  0  0  0  0
 22 23  1  0  0  0  0
 23 26  1  0  0  0  0
 24 23  2  0  0  0  0
 25 24  1  0  0  0  0
 26 31  1  1  0  0  0
 26 30  1  0  0  0  0
 27 26  1  0  0  0  0
 27 28  1  0  0  0  0
 28 35  1  0  0  0  0
 28 29  1  1  0  0  0
 30 28  1  0  0  0  0
 31 32  1  0  0  0  0
 31 34  1  0  0  0  0
 33 31  1  0  0  0  0
 35 36  1  0  0  0  0
 38 37  1  0  0  0  0
 38 39  1  0  0  0  0
 39  1  1  0  0  0  0
 40 39  2  0  0  0  0
 41 38  1  0  0  0  0
M  END
>  <minimizedAffinity>
-13.811739

$$$$
