
 OpenBabel10152420023D

 41 44  0  0  1  0  0  0  0  0999 V2000
    1.9170   -9.1950  -24.3570 C   0  0  2  0  0  3  0  0  0  0  0  0
    3.7310   -8.7910  -27.7240 C   0  0  0  0  0  0  0  0  0  0  0  0
    4.1610  -10.0930  -27.9690 C   0  0  0  0  0  3  0  0  0  0  0  0
    4.0220  -11.0690  -26.9880 C   0  0  0  0  0  3  0  0  0  0  0  0
    3.3610  -10.7710  -25.7950 C   0  0  0  0  0  3  0  0  0  0  0  0
    2.8150   -9.4980  -25.5660 C   0  0  0  0  0  0  0  0  0  0  0  0
    3.0790   -8.4870  -26.5200 C   0  0  0  0  0  3  0  0  0  0  0  0
    2.8970   -7.0710  -29.3530 C   0  0  0  0  0  0  0  0  0  0  0  0
    2.9430   -6.8280  -30.5580 O   0  0  0  0  0  0  0  0  0  0  0  0
    3.8540   -7.8680  -28.7730 N   0  0  0  0  0  0  0  0  0  0  0  0
    4.7340   -7.8650  -29.2750 H   0  0  0  0  0  0  0  0  0  0  0  0
   -0.0820   -4.8610  -27.2020 C   0  0  0  0  0  0  0  0  0  0  0  0
   -0.2270   -6.2320  -27.4150 C   0  0  0  0  0  3  0  0  0  0  0  0
    0.7830   -6.9590  -28.0530 C   0  0  0  0  0  3  0  0  0  0  0  0
    1.9440   -6.3130  -28.4940 C   0  0  0  0  0  0  0  0  0  0  0  0
    2.0720   -4.9290  -28.3040 C   0  0  0  0  0  3  0  0  0  0  0  0
    1.0620   -4.2070  -27.6560 C   0  0  0  0  0  3  0  0  0  0  0  0
   -0.9880   -2.8280  -26.4560 C   0  0  0  0  0  1  0  0  0  0  0  0
   -1.1470   -4.2380  -26.6110 O   0  0  0  0  0  0  0  0  0  0  0  0
    1.3450  -10.4180  -23.7860 N   0  0  0  0  0  0  0  0  0  0  0  0
    1.5550  -10.5340  -22.8030 H   0  0  0  0  0  0  0  0  0  0  0  0
   -0.0320  -10.6180  -24.0240 C   0  0  0  0  0  0  0  0  0  0  0  0
   -0.4210  -11.0270  -25.2400 N   0  0  0  0  0  0  0  0  0  0  0  0
   -1.6810  -10.7580  -25.5710 C   0  0  0  0  0  3  0  0  0  0  0  0
   -2.5220  -10.0270  -24.8380 N   0  0  0  0  0  0  0  0  0  0  0  0
   -2.1390   -9.7100  -23.5850 C   0  0  0  0  0  0  0  0  0  0  0  0
   -2.8480   -8.8200  -22.7770 C   0  0  0  0  0  0  0  0  0  0  0  0
   -2.5640   -8.6120  -21.4160 C   0  0  0  0  0  3  0  0  0  0  0  0
   -1.4810   -9.2570  -20.8440 C   0  0  0  0  0  3  0  0  0  0  0  0
   -0.6320   -9.9770  -21.6730 C   0  0  0  0  0  3  0  0  0  0  0  0
   -0.9340  -10.1560  -23.0540 C   0  0  0  0  0  0  0  0  0  0  0  0
   -3.6060   -7.7550  -23.4620 C   0  0  0  0  0  0  0  0  0  0  0  0
   -4.8620   -7.5730  -22.9370 N   0  0  0  0  0  0  0  0  0  0  0  0
   -3.1770   -7.1120  -24.4040 O   0  0  0  0  0  0  0  0  0  0  0  0
   -5.4530   -6.8490  -23.3200 H   0  0  0  0  0  0  0  0  0  0  0  0
   -5.2020   -8.1030  -22.1440 H   0  0  0  0  0  0  0  0  0  0  0  0
    0.7980   -8.1630  -24.6390 C   0  0  0  0  0  2  0  0  0  0  0  0
    0.8920   -6.7230  -24.1020 C   0  0  0  0  0  2  0  0  0  0  0  0
   -0.2440   -6.2020  -23.2280 C   0  0  0  0  0  2  0  0  0  0  0  0
   -0.9360   -5.1160  -23.8210 O   0  0  0  0  0  0  0  0  0  0  0  0
   -0.2900   -4.4170  -24.0410 H   0  0  0  0  0  0  0  0  0  0  0  0
  1 37  1  6  0  0  0
  1 20  1  0  0  0  0
  2  7  1  0  0  0  0
  3  2  2  0  0  0  0
  3  4  1  0  0  0  0
  4  5  2  0  0  0  0
  5  6  1  0  0  0  0
  6  1  1  0  0  0  0
  7  6  2  0  0  0  0
  8 10  1  0  0  0  0
  8 15  1  0  0  0  0
  9  8  2  0  0  0  0
 10  2  1  0  0  0  0
 11 10  1  0  0  0  0
 12 19  1  0  0  0  0
 13 12  1  0  0  0  0
 14 13  2  0  0  0  0
 15 16  2  0  0  0  0
 15 14  1  0  0  0  0
 16 17  1  0  0  0  0
 17 12  2  0  0  0  0
 19 18  1  0  0  0  0
 20 21  1  0  0  0  0
 22 20  1  0  0  0  0
 22 31  1  0  0  0  0
 23 22  2  0  0  0  0
 24 23  1  0  0  0  0
 24 25  2  0  0  0  0
 25 26  1  0  0  0  0
 26 31  2  0  0  0  0
 26 27  1  0  0  0  0
 27 28  2  0  0  0  0
 28 29  1  0  0  0  0
 30 29  2  0  0  0  0
 31 30  1  0  0  0  0
 32 33  1  0  0  0  0
 32 27  1  0  0  0  0
 33 36  1  0  0  0  0
 34 32  2  0  0  0  0
 35 33  1  0  0  0  0
 37 38  1  0  0  0  0
 38 39  1  0  0  0  0
 40 39  1  0  0  0  0
 41 40  1  0  0  0  0
M  END
>  <minimizedAffinity>
-7.41338205

$$$$
