
 OpenBabel10152420023D

 41 44  0  0  1  0  0  0  0  0999 V2000
   -1.2270   -9.6850  -26.1240 C   0  0  2  0  0  3  0  0  0  0  0  0
   -0.3670   -6.0190  -26.9030 C   0  0  0  0  0  0  0  0  0  0  0  0
   -0.2830   -5.4730  -25.6250 C   0  0  0  0  0  3  0  0  0  0  0  0
   -0.6630   -6.2260  -24.5190 C   0  0  0  0  0  3  0  0  0  0  0  0
   -1.0340   -7.5620  -24.6780 C   0  0  0  0  0  3  0  0  0  0  0  0
   -1.0170   -8.1750  -25.9410 C   0  0  0  0  0  0  0  0  0  0  0  0
   -0.7520   -7.3580  -27.0650 C   0  0  0  0  0  3  0  0  0  0  0  0
    1.3630   -4.9270  -28.3600 C   0  0  0  0  0  0  0  0  0  0  0  0
    1.6250   -3.8190  -28.8260 O   0  0  0  0  0  0  0  0  0  0  0  0
    0.0800   -5.2240  -27.9690 N   0  0  0  0  0  0  0  0  0  0  0  0
   -0.6220   -4.6800  -28.4570 H   0  0  0  0  0  0  0  0  0  0  0  0
    3.9980   -8.3010  -28.5990 C   0  0  0  0  0  0  0  0  0  0  0  0
    3.3960   -7.7840  -29.7460 C   0  0  0  0  0  3  0  0  0  0  0  0
    2.5960   -6.6400  -29.6710 C   0  0  0  0  0  3  0  0  0  0  0  0
    2.3840   -6.0090  -28.4390 C   0  0  0  0  0  0  0  0  0  0  0  0
    2.9690   -6.5490  -27.2840 C   0  0  0  0  0  3  0  0  0  0  0  0
    3.7770   -7.6890  -27.3650 C   0  0  0  0  0  3  0  0  0  0  0  0
    4.5330  -10.0700  -30.0460 C   0  0  0  0  0  1  0  0  0  0  0  0
    4.7220   -9.4480  -28.7750 O   0  0  0  0  0  0  0  0  0  0  0  0
   -1.9030  -10.2830  -24.9690 N   0  0  0  0  0  0  0  0  0  0  0  0
   -2.6960  -10.8560  -25.2240 H   0  0  0  0  0  0  0  0  0  0  0  0
   -1.0680  -10.9720  -24.0620 C   0  0  0  0  0  0  0  0  0  0  0  0
   -0.5220  -12.1350  -24.4470 N   0  0  0  0  0  0  0  0  0  0  0  0
   -0.1560  -12.9590  -23.4700 C   0  0  0  0  0  3  0  0  0  0  0  0
   -0.3950  -12.7590  -22.1740 N   0  0  0  0  0  0  0  0  0  0  0  0
   -0.8560  -11.5460  -21.8090 C   0  0  0  0  0  0  0  0  0  0  0  0
   -1.2980  -11.2610  -20.5160 C   0  0  0  0  0  0  0  0  0  0  0  0
   -1.6170   -9.9650  -20.0730 C   0  0  0  0  0  3  0  0  0  0  0  0
   -1.5690   -8.9120  -20.9690 C   0  0  0  0  0  3  0  0  0  0  0  0
   -1.3430   -9.1990  -22.3090 C   0  0  0  0  0  3  0  0  0  0  0  0
   -1.0420  -10.5250  -22.7330 C   0  0  0  0  0  0  0  0  0  0  0  0
   -1.8710  -12.3800  -19.7440 C   0  0  0  0  0  0  0  0  0  0  0  0
   -3.1440  -12.7080  -20.1440 N   0  0  0  0  0  0  0  0  0  0  0  0
   -1.2910  -12.9480  -18.8340 O   0  0  0  0  0  0  0  0  0  0  0  0
   -3.6160  -13.4800  -19.6940 H   0  0  0  0  0  0  0  0  0  0  0  0
   -3.6110  -12.2390  -20.9100 H   0  0  0  0  0  0  0  0  0  0  0  0
    0.0650  -10.4720  -26.4540 C   0  0  0  0  0  2  0  0  0  0  0  0
    1.4490   -9.8050  -26.3550 C   0  0  0  0  0  2  0  0  0  0  0  0
    2.2130   -9.9180  -25.0390 C   0  0  0  0  0  2  0  0  0  0  0  0
    2.1180   -8.7450  -24.2500 O   0  0  0  0  0  0  0  0  0  0  0  0
    2.4160   -7.9830  -24.7840 H   0  0  0  0  0  0  0  0  0  0  0  0
  1 37  1  1  0  0  0
  1  6  1  0  0  0  0
  1 20  1  0  0  0  0
  2  3  1  0  0  0  0
  3  4  2  0  0  0  0
  5  4  1  0  0  0  0
  6  5  2  0  0  0  0
  7  2  2  0  0  0  0
  7  6  1  0  0  0  0
  8 10  1  0  0  0  0
  9  8  2  0  0  0  0
 10  2  1  0  0  0  0
 11 10  1  0  0  0  0
 12 17  1  0  0  0  0
 13 14  1  0  0  0  0
 13 12  2  0  0  0  0
 14 15  2  0  0  0  0
 15  8  1  0  0  0  0
 15 16  1  0  0  0  0
 17 16  2  0  0  0  0
 18 19  1  0  0  0  0
 19 12  1  0  0  0  0
 20 22  1  0  0  0  0
 21 20  1  0  0  0  0
 22 31  1  0  0  0  0
 23 22  2  0  0  0  0
 23 24  1  0  0  0  0
 24 25  2  0  0  0  0
 25 26  1  0  0  0  0
 26 27  1  0  0  0  0
 27 28  2  0  0  0  0
 27 32  1  0  0  0  0
 29 28  1  0  0  0  0
 30 29  2  0  0  0  0
 31 30  1  0  0  0  0
 31 26  2  0  0  0  0
 32 34  2  0  0  0  0
 33 32  1  0  0  0  0
 33 35  1  0  0  0  0
 36 33  1  0  0  0  0
 37 38  1  0  0  0  0
 38 39  1  0  0  0  0
 39 40  1  0  0  0  0
 41 40  1  0  0  0  0
M  END
>  <minimizedAffinity>
-8.7314415

$$$$

 OpenBabel10152420023D

 41 44  0  0  1  0  0  0  0  0999 V2000
    3.1100  -10.1490  -26.8810 C   0  0  2  0  0  3  0  0  0  0  0  0
    2.7720   -6.6070  -28.3400 C   0  0  0  0  0  0  0  0  0  0  0  0
    3.2720   -6.7850  -29.6280 C   0  0  0  0  0  3  0  0  0  0  0  0
    3.8720   -7.9880  -29.9820 C   0  0  0  0  0  3  0  0  0  0  0  0
    3.8860   -9.0540  -29.0800 C   0  0  0  0  0  3  0  0  0  0  0  0
    3.2860   -8.9420  -27.8160 C   0  0  0  0  0  0  0  0  0  0  0  0
    2.7960   -7.6730  -27.4290 C   0  0  0  0  0  3  0  0  0  0  0  0
    0.8450   -5.1510  -27.6510 C   0  0  0  0  0  0  0  0  0  0  0  0
    0.2460   -4.1490  -28.0410 O   0  0  0  0  0  0  0  0  0  0  0  0
    2.1330   -5.3880  -28.0650 N   0  0  0  0  0  0  0  0  0  0  0  0
    2.6320   -4.5450  -28.3220 H   0  0  0  0  0  0  0  0  0  0  0  0
   -1.0430   -7.1780  -24.3780 C   0  0  0  0  0  0  0  0  0  0  0  0
   -1.7310   -6.9560  -25.5710 C   0  0  0  0  0  3  0  0  0  0  0  0
   -1.0860   -6.3590  -26.6580 C   0  0  0  0  0  3  0  0  0  0  0  0
    0.2540   -5.9700  -26.5550 C   0  0  0  0  0  0  0  0  0  0  0  0
    0.9340   -6.1700  -25.3440 C   0  0  0  0  0  3  0  0  0  0  0  0
    0.2870   -6.7760  -24.2600 C   0  0  0  0  0  3  0  0  0  0  0  0
   -3.1630   -7.8960  -23.6690 C   0  0  0  0  0  1  0  0  0  0  0  0
   -1.7790   -7.7250  -23.3630 O   0  0  0  0  0  0  0  0  0  0  0  0
    2.2850   -9.8170  -25.7160 N   0  0  0  0  0  0  0  0  0  0  0  0
    2.1530   -8.8220  -25.5920 H   0  0  0  0  0  0  0  0  0  0  0  0
    1.0490  -10.4940  -25.6300 C   0  0  0  0  0  0  0  0  0  0  0  0
    0.0080  -10.0210  -26.3320 N   0  0  0  0  0  0  0  0  0  0  0  0
   -1.1980  -10.3620  -25.8880 C   0  0  0  0  0  3  0  0  0  0  0  0
   -1.4340  -11.0270  -24.7560 N   0  0  0  0  0  0  0  0  0  0  0  0
   -0.3750  -11.5690  -24.1230 C   0  0  0  0  0  0  0  0  0  0  0  0
   -0.4620  -12.1460  -22.8550 C   0  0  0  0  0  0  0  0  0  0  0  0
    0.5850  -12.8670  -22.2560 C   0  0  0  0  0  3  0  0  0  0  0  0
    1.8030  -12.9590  -22.9080 C   0  0  0  0  0  3  0  0  0  0  0  0
    1.9870  -12.2160  -24.0660 C   0  0  0  0  0  3  0  0  0  0  0  0
    0.9120  -11.4780  -24.6410 C   0  0  0  0  0  0  0  0  0  0  0  0
   -1.4960  -11.6100  -21.9480 C   0  0  0  0  0  0  0  0  0  0  0  0
   -1.3800  -10.2560  -21.7480 N   0  0  0  0  0  0  0  0  0  0  0  0
   -2.3540  -12.2920  -21.4150 O   0  0  0  0  0  0  0  0  0  0  0  0
   -2.0560   -9.7870  -21.1620 H   0  0  0  0  0  0  0  0  0  0  0  0
   -0.6720   -9.6970  -22.2080 H   0  0  0  0  0  0  0  0  0  0  0  0
    4.4390  -10.8010  -26.4280 C   0  0  0  0  0  2  0  0  0  0  0  0
    4.7000  -12.3030  -26.6400 C   0  0  0  0  0  2  0  0  0  0  0  0
    4.1620  -12.9580  -27.9080 C   0  0  0  0  0  2  0  0  0  0  0  0
    4.4540  -12.2110  -29.0760 O   0  0  0  0  0  0  0  0  0  0  0  0
    4.1140  -11.3020  -28.9590 H   0  0  0  0  0  0  0  0  0  0  0  0
  1 37  1  1  0  0  0
  1 20  1  0  0  0  0
  2 10  1  0  0  0  0
  2  7  1  0  0  0  0
  3  2  2  0  0  0  0
  4  3  1  0  0  0  0
  4  5  2  0  0  0  0
  5  6  1  0  0  0  0
  6  7  2  0  0  0  0
  6  1  1  0  0  0  0
  8 15  1  0  0  0  0
  9  8  2  0  0  0  0
 10  8  1  0  0  0  0
 11 10  1  0  0  0  0
 12 17  1  0  0  0  0
 12 19  1  0  0  0  0
 13 12  2  0  0  0  0
 14 15  2  0  0  0  0
 14 13  1  0  0  0  0
 15 16  1  0  0  0  0
 16 17  2  0  0  0  0
 18 19  1  0  0  0  0
 20 22  1  0  0  0  0
 20 21  1  0  0  0  0
 22 31  1  0  0  0  0
 23 24  1  0  0  0  0
 23 22  2  0  0  0  0
 24 25  2  0  0  0  0
 25 26  1  0  0  0  0
 26 27  1  0  0  0  0
 27 28  2  0  0  0  0
 27 32  1  0  0  0  0
 29 28  1  0  0  0  0
 30 29  2  0  0  0  0
 31 26  2  0  0  0  0
 31 30  1  0  0  0  0
 32 33  1  0  0  0  0
 32 34  2  0  0  0  0
 33 35  1  0  0  0  0
 36 33  1  0  0  0  0
 38 37  1  0  0  0  0
 39 38  1  0  0  0  0
 40 41  1  0  0  0  0
 40 39  1  0  0  0  0
M  END
>  <minimizedAffinity>
-8.47560501

$$$$

 OpenBabel10152420023D

 41 44  0  0  1  0  0  0  0  0999 V2000
    1.3660   -9.6820  -25.6380 C   0  0  2  0  0  3  0  0  0  0  0  0
   -0.3350  -12.1260  -23.2060 C   0  0  0  0  0  0  0  0  0  0  0  0
    0.7340  -12.9330  -22.8250 C   0  0  0  0  0  3  0  0  0  0  0  0
    1.9620  -12.8100  -23.4650 C   0  0  0  0  0  3  0  0  0  0  0  0
    2.1550  -11.8110  -24.4210 C   0  0  0  0  0  3  0  0  0  0  0  0
    1.1290  -10.9070  -24.7420 C   0  0  0  0  0  0  0  0  0  0  0  0
   -0.1470  -11.1300  -24.1750 C   0  0  0  0  0  3  0  0  0  0  0  0
   -2.0720  -11.4470  -21.5230 C   0  0  0  0  0  0  0  0  0  0  0  0
   -2.6980  -11.9320  -20.5810 O   0  0  0  0  0  0  0  0  0  0  0  0
   -1.5310  -12.2650  -22.4840 N   0  0  0  0  0  0  0  0  0  0  0  0
   -2.0170  -13.1490  -22.5760 H   0  0  0  0  0  0  0  0  0  0  0  0
   -1.8160   -7.2420  -22.3180 C   0  0  0  0  0  0  0  0  0  0  0  0
   -2.2410   -8.1290  -23.3060 C   0  0  0  0  0  3  0  0  0  0  0  0
   -2.3910   -9.4890  -23.0180 C   0  0  0  0  0  3  0  0  0  0  0  0
   -2.1060   -9.9730  -21.7360 C   0  0  0  0  0  0  0  0  0  0  0  0
   -1.6510   -9.0810  -20.7530 C   0  0  0  0  0  3  0  0  0  0  0  0
   -1.5100   -7.7180  -21.0430 C   0  0  0  0  0  3  0  0  0  0  0  0
   -0.3840   -5.6590  -23.2960 C   0  0  0  0  0  1  0  0  0  0  0  0
   -1.6570   -5.9430  -22.7160 O   0  0  0  0  0  0  0  0  0  0  0  0
    2.6310   -9.0120  -25.3200 N   0  0  0  0  0  0  0  0  0  0  0  0
    3.1420   -9.4620  -24.5720 H   0  0  0  0  0  0  0  0  0  0  0  0
    3.4820   -8.7600  -26.4170 C   0  0  0  0  0  0  0  0  0  0  0  0
    3.4870   -7.5320  -26.9570 N   0  0  0  0  0  0  0  0  0  0  0  0
    3.9060   -7.4500  -28.2160 C   0  0  0  0  0  3  0  0  0  0  0  0
    4.2030   -8.4940  -28.9910 N   0  0  0  0  0  0  0  0  0  0  0  0
    4.2800   -9.7030  -28.3990 C   0  0  0  0  0  0  0  0  0  0  0  0
    4.4200  -10.8910  -29.1170 C   0  0  0  0  0  0  0  0  0  0  0  0
    4.6760  -12.1360  -28.5160 C   0  0  0  0  0  3  0  0  0  0  0  0
    4.7220  -12.2250  -27.1360 C   0  0  0  0  0  3  0  0  0  0  0  0
    4.3730  -11.1050  -26.3930 C   0  0  0  0  0  3  0  0  0  0  0  0
    4.0990   -9.8600  -27.0300 C   0  0  0  0  0  0  0  0  0  0  0  0
    3.8450  -10.9220  -30.4760 C   0  0  0  0  0  0  0  0  0  0  0  0
    3.2410  -12.1210  -30.7730 N   0  0  0  0  0  0  0  0  0  0  0  0
    3.9080   -9.9940  -31.2640 O   0  0  0  0  0  0  0  0  0  0  0  0
    2.7940  -12.2350  -31.6710 H   0  0  0  0  0  0  0  0  0  0  0  0
    3.1820  -12.8800  -30.1040 H   0  0  0  0  0  0  0  0  0  0  0  0
    0.2040   -8.6590  -25.6360 C   0  0  0  0  0  2  0  0  0  0  0  0
   -0.0400   -7.7310  -26.8400 C   0  0  0  0  0  2  0  0  0  0  0  0
    0.2460   -6.2410  -26.6750 C   0  0  0  0  0  2  0  0  0  0  0  0
    1.0450   -5.7190  -27.7220 O   0  0  0  0  0  0  0  0  0  0  0  0
    1.8650   -6.2470  -27.7830 H   0  0  0  0  0  0  0  0  0  0  0  0
  1 37  1  1  0  0  0
  1 20  1  0  0  0  0
  1  6  1  0  0  0  0
  2  3  1  0  0  0  0
  2 10  1  0  0  0  0
  4  3  2  0  0  0  0
  5  4  1  0  0  0  0
  6  5  2  0  0  0  0
  6  7  1  0  0  0  0
  7  2  2  0  0  0  0
  8  9  2  0  0  0  0
 10  8  1  0  0  0  0
 11 10  1  0  0  0  0
 12 17  1  0  0  0  0
 13 14  1  0  0  0  0
 13 12  2  0  0  0  0
 14 15  2  0  0  0  0
 15  8  1  0  0  0  0
 15 16  1  0  0  0  0
 17 16  2  0  0  0  0
 18 19  1  0  0  0  0
 19 12  1  0  0  0  0
 20 21  1  0  0  0  0
 22 20  1  0  0  0  0
 23 22  1  0  0  0  0
 24 23  2  0  0  0  0
 25 26  2  0  0  0  0
 25 24  1  0  0  0  0
 26 31  1  0  0  0  0
 27 28  2  0  0  0  0
 27 26  1  0  0  0  0
 28 29  1  0  0  0  0
 29 30  2  0  0  0  0
 31 22  2  0  0  0  0
 31 30  1  0  0  0  0
 32 27  1  0  0  0  0
 33 32  1  0  0  0  0
 33 36  1  0  0  0  0
 34 32  2  0  0  0  0
 35 33  1  0  0  0  0
 38 39  1  0  0  0  0
 38 37  1  0  0  0  0
 40 39  1  0  0  0  0
 41 40  1  0  0  0  0
M  END
>  <minimizedAffinity>
-8.35511112

$$$$

 OpenBabel10152420023D

 41 44  0  0  1  0  0  0  0  0999 V2000
    1.3390   -6.5280  -26.6520 C   0  0  2  0  0  3  0  0  0  0  0  0
    3.5290   -9.4350  -27.8930 C   0  0  0  0  0  0  0  0  0  0  0  0
    4.1420   -8.8680  -29.0080 C   0  0  0  0  0  3  0  0  0  0  0  0
    3.7370   -7.6190  -29.4660 C   0  0  0  0  0  3  0  0  0  0  0  0
    2.7850   -6.8880  -28.7530 C   0  0  0  0  0  3  0  0  0  0  0  0
    2.2340   -7.3840  -27.5600 C   0  0  0  0  0  0  0  0  0  0  0  0
    2.5640   -8.7060  -27.1830 C   0  0  0  0  0  3  0  0  0  0  0  0
    3.8200  -11.3190  -26.2580 C   0  0  0  0  0  0  0  0  0  0  0  0
    4.7220  -11.9910  -25.7600 O   0  0  0  0  0  0  0  0  0  0  0  0
    4.0210  -10.6730  -27.4530 N   0  0  0  0  0  0  0  0  0  0  0  0
    4.7280  -11.1130  -28.0310 H   0  0  0  0  0  0  0  0  0  0  0  0
    0.0100  -11.8470  -24.3630 C   0  0  0  0  0  0  0  0  0  0  0  0
    1.0160  -11.1050  -23.7450 C   0  0  0  0  0  3  0  0  0  0  0  0
    2.2300  -10.8750  -24.4000 C   0  0  0  0  0  3  0  0  0  0  0  0
    2.4490  -11.4000  -25.6800 C   0  0  0  0  0  0  0  0  0  0  0  0
    1.4440  -12.1700  -26.2850 C   0  0  0  0  0  3  0  0  0  0  0  0
    0.2270  -12.3890  -25.6290 C   0  0  0  0  0  3  0  0  0  0  0  0
   -0.8660  -12.4160  -22.2600 C   0  0  0  0  0  1  0  0  0  0  0  0
   -1.1190  -12.0500  -23.6170 O   0  0  0  0  0  0  0  0  0  0  0  0
    1.0270   -7.2140  -25.3950 N   0  0  0  0  0  0  0  0  0  0  0  0
    1.8440   -7.3930  -24.8250 H   0  0  0  0  0  0  0  0  0  0  0  0
    0.0030   -6.6310  -24.6170 C   0  0  0  0  0  0  0  0  0  0  0  0
    0.2200   -5.4260  -24.0680 N   0  0  0  0  0  0  0  0  0  0  0  0
   -0.5210   -5.1270  -23.0060 C   0  0  0  0  0  3  0  0  0  0  0  0
   -1.3600   -5.9690  -22.4000 N   0  0  0  0  0  0  0  0  0  0  0  0
   -1.6280   -7.1330  -23.0240 C   0  0  0  0  0  0  0  0  0  0  0  0
   -2.3550   -8.1640  -22.4260 C   0  0  0  0  0  0  0  0  0  0  0  0
   -2.7920   -9.3070  -23.1170 C   0  0  0  0  0  3  0  0  0  0  0  0
   -2.4320   -9.4780  -24.4420 C   0  0  0  0  0  3  0  0  0  0  0  0
   -1.5320   -8.5780  -24.9990 C   0  0  0  0  0  3  0  0  0  0  0  0
   -1.0900   -7.4370  -24.2680 C   0  0  0  0  0  0  0  0  0  0  0  0
   -2.2730   -8.2740  -20.9570 C   0  0  0  0  0  0  0  0  0  0  0  0
   -3.2380   -7.5390  -20.3120 N   0  0  0  0  0  0  0  0  0  0  0  0
   -1.4310   -8.9310  -20.3690 O   0  0  0  0  0  0  0  0  0  0  0  0
   -3.2840   -7.5670  -19.3030 H   0  0  0  0  0  0  0  0  0  0  0  0
   -3.9420   -7.0090  -20.8120 H   0  0  0  0  0  0  0  0  0  0  0  0
    0.0370   -6.0310  -27.3270 C   0  0  0  0  0  2  0  0  0  0  0  0
    0.0070   -4.7130  -28.1200 C   0  0  0  0  0  2  0  0  0  0  0  0
    1.0980   -3.6800  -27.8500 C   0  0  0  0  0  2  0  0  0  0  0  0
    0.6280   -2.3480  -27.9600 O   0  0  0  0  0  0  0  0  0  0  0  0
    0.2210   -2.2310  -28.8400 H   0  0  0  0  0  0  0  0  0  0  0  0
  1 37  1  6  0  0  0
  1 20  1  0  0  0  0
  2 10  1  0  0  0  0
  2  7  1  0  0  0  0
  3  2  2  0  0  0  0
  4  3  1  0  0  0  0
  4  5  2  0  0  0  0
  5  6  1  0  0  0  0
  6  7  2  0  0  0  0
  6  1  1  0  0  0  0
  8  9  2  0  0  0  0
  8 15  1  0  0  0  0
 10  8  1  0  0  0  0
 11 10  1  0  0  0  0
 12 13  1  0  0  0  0
 12 19  1  0  0  0  0
 14 13  2  0  0  0  0
 15 14  1  0  0  0  0
 16 15  2  0  0  0  0
 16 17  1  0  0  0  0
 17 12  2  0  0  0  0
 19 18  1  0  0  0  0
 20 21  1  0  0  0  0
 20 22  1  0  0  0  0
 22 31  2  0  0  0  0
 22 23  1  0  0  0  0
 23 24  2  0  0  0  0
 24 25  1  0  0  0  0
 26 27  1  0  0  0  0
 26 25  2  0  0  0  0
 27 32  1  0  0  0  0
 28 27  2  0  0  0  0
 29 28  1  0  0  0  0
 30 29  2  0  0  0  0
 30 31  1  0  0  0  0
 31 26  1  0  0  0  0
 32 34  2  0  0  0  0
 32 33  1  0  0  0  0
 33 35  1  0  0  0  0
 36 33  1  0  0  0  0
 38 39  1  0  0  0  0
 38 37  1  0  0  0  0
 40 39  1  0  0  0  0
 41 40  1  0  0  0  0
M  END
>  <minimizedAffinity>
-8.24385929

$$$$

 OpenBabel10152420023D

 41 44  0  0  1  0  0  0  0  0999 V2000
    1.3110   -6.2550  -27.9140 C   0  0  2  0  0  3  0  0  0  0  0  0
   -1.0970   -8.3190  -25.7400 C   0  0  0  0  0  0  0  0  0  0  0  0
   -1.4020   -7.4150  -24.7240 C   0  0  0  0  0  3  0  0  0  0  0  0
   -0.7160   -6.2090  -24.6350 C   0  0  0  0  0  3  0  0  0  0  0  0
    0.2090   -5.8570  -25.6200 C   0  0  0  0  0  3  0  0  0  0  0  0
    0.4530   -6.6960  -26.7190 C   0  0  0  0  0  0  0  0  0  0  0  0
   -0.1580   -7.9710  -26.7220 C   0  0  0  0  0  3  0  0  0  0  0  0
   -1.6570  -10.7030  -25.1850 C   0  0  0  0  0  0  0  0  0  0  0  0
   -1.9610  -11.7480  -25.7590 O   0  0  0  0  0  0  0  0  0  0  0  0
   -1.8620   -9.4930  -25.8020 N   0  0  0  0  0  0  0  0  0  0  0  0
   -2.6030   -9.5170  -26.4920 H   0  0  0  0  0  0  0  0  0  0  0  0
   -0.9100  -11.0760  -20.9790 C   0  0  0  0  0  0  0  0  0  0  0  0
   -0.4760  -12.0570  -21.8700 C   0  0  0  0  0  3  0  0  0  0  0  0
   -0.6590  -11.8950  -23.2470 C   0  0  0  0  0  3  0  0  0  0  0  0
   -1.2900  -10.7470  -23.7410 C   0  0  0  0  0  0  0  0  0  0  0  0
   -1.7510   -9.7760  -22.8400 C   0  0  0  0  0  3  0  0  0  0  0  0
   -1.5570   -9.9390  -21.4630 C   0  0  0  0  0  3  0  0  0  0  0  0
   -0.6090  -12.7470  -19.3580 C   0  0  0  0  0  1  0  0  0  0  0  0
   -0.7240  -11.3550  -19.6530 O   0  0  0  0  0  0  0  0  0  0  0  0
    2.7320   -6.1750  -27.5620 N   0  0  0  0  0  0  0  0  0  0  0  0
    2.8960   -5.7430  -26.6620 H   0  0  0  0  0  0  0  0  0  0  0  0
    3.4570   -7.3820  -27.6700 C   0  0  0  0  0  0  0  0  0  0  0  0
    4.1130   -7.6370  -28.8110 N   0  0  0  0  0  0  0  0  0  0  0  0
    4.3730   -8.9170  -29.0610 C   0  0  0  0  0  3  0  0  0  0  0  0
    3.9330   -9.9410  -28.3290 N   0  0  0  0  0  0  0  0  0  0  0  0
    3.3600   -9.6550  -27.1430 C   0  0  0  0  0  0  0  0  0  0  0  0
    2.7160  -10.6150  -26.3600 C   0  0  0  0  0  0  0  0  0  0  0  0
    2.2680  -10.3740  -25.0500 C   0  0  0  0  0  3  0  0  0  0  0  0
    2.3940   -9.1040  -24.5130 C   0  0  0  0  0  3  0  0  0  0  0  0
    2.8320   -8.0810  -25.3430 C   0  0  0  0  0  3  0  0  0  0  0  0
    3.2610   -8.3510  -26.6740 C   0  0  0  0  0  0  0  0  0  0  0  0
    2.0940  -11.7480  -27.0710 C   0  0  0  0  0  0  0  0  0  0  0  0
    3.0130  -12.5560  -27.6960 N   0  0  0  0  0  0  0  0  0  0  0  0
    0.8920  -11.9460  -27.1180 O   0  0  0  0  0  0  0  0  0  0  0  0
    2.6910  -13.3750  -28.1900 H   0  0  0  0  0  0  0  0  0  0  0  0
    4.0110  -12.3890  -27.6380 H   0  0  0  0  0  0  0  0  0  0  0  0
    0.8490   -4.9330  -28.5750 C   0  0  0  0  0  2  0  0  0  0  0  0
    1.3100   -3.5690  -28.0310 C   0  0  0  0  0  2  0  0  0  0  0  0
    0.2450   -2.5510  -27.6350 C   0  0  0  0  0  2  0  0  0  0  0  0
   -0.7030   -3.0790  -26.7230 O   0  0  0  0  0  0  0  0  0  0  0  0
   -1.0920   -3.8880  -27.1090 H   0  0  0  0  0  0  0  0  0  0  0  0
  1 37  1  1  0  0  0
  1 20  1  0  0  0  0
  1  6  1  0  0  0  0
  2  3  1  0  0  0  0
  3  4  2  0  0  0  0
  5  4  1  0  0  0  0
  6  5  2  0  0  0  0
  7  6  1  0  0  0  0
  7  2  2  0  0  0  0
  8 15  1  0  0  0  0
  9  8  2  0  0  0  0
 10  2  1  0  0  0  0
 10  8  1  0  0  0  0
 11 10  1  0  0  0  0
 12 19  1  0  0  0  0
 13 12  2  0  0  0  0
 14 13  1  0  0  0  0
 15 14  2  0  0  0  0
 15 16  1  0  0  0  0
 16 17  2  0  0  0  0
 17 12  1  0  0  0  0
 19 18  1  0  0  0  0
 20 21  1  0  0  0  0
 22 20  1  0  0  0  0
 22 31  1  0  0  0  0
 23 22  2  0  0  0  0
 24 23  1  0  0  0  0
 24 25  2  0  0  0  0
 25 26  1  0  0  0  0
 26 31  2  0  0  0  0
 26 27  1  0  0  0  0
 27 28  2  0  0  0  0
 28 29  1  0  0  0  0
 30 29  2  0  0  0  0
 31 30  1  0  0  0  0
 32 27  1  0  0  0  0
 33 36  1  0  0  0  0
 33 32  1  0  0  0  0
 34 32  2  0  0  0  0
 35 33  1  0  0  0  0
 37 38  1  0  0  0  0
 38 39  1  0  0  0  0
 39 40  1  0  0  0  0
 41 40  1  0  0  0  0
M  END
>  <minimizedAffinity>
-7.93854523

$$$$

 OpenBabel10152420023D

 41 44  0  0  1  0  0  0  0  0999 V2000
    0.6030   -8.3770  -24.0350 C   0  0  2  0  0  3  0  0  0  0  0  0
    3.1100   -8.5440  -26.9460 C   0  0  0  0  0  0  0  0  0  0  0  0
    3.3860   -9.9080  -27.0010 C   0  0  0  0  0  3  0  0  0  0  0  0
    2.9070  -10.7560  -26.0080 C   0  0  0  0  0  3  0  0  0  0  0  0
    2.0660  -10.2590  -25.0110 C   0  0  0  0  0  3  0  0  0  0  0  0
    1.6760   -8.9110  -24.9960 C   0  0  0  0  0  0  0  0  0  0  0  0
    2.2760   -8.0410  -25.9370 C   0  0  0  0  0  3  0  0  0  0  0  0
    2.8740   -7.0240  -28.9320 C   0  0  0  0  0  0  0  0  0  0  0  0
    3.2890   -6.9260  -30.0850 O   0  0  0  0  0  0  0  0  0  0  0  0
    3.5800   -7.7530  -28.0050 N   0  0  0  0  0  0  0  0  0  0  0  0
    4.5690   -7.8140  -28.2150 H   0  0  0  0  0  0  0  0  0  0  0  0
   -0.2130   -4.5300  -27.3080 C   0  0  0  0  0  0  0  0  0  0  0  0
    0.9830   -3.9770  -27.7640 C   0  0  0  0  0  3  0  0  0  0  0  0
    1.9550   -4.7870  -28.3590 C   0  0  0  0  0  3  0  0  0  0  0  0
    1.7390   -6.1640  -28.4910 C   0  0  0  0  0  0  0  0  0  0  0  0
    0.5460   -6.7200  -28.0050 C   0  0  0  0  0  3  0  0  0  0  0  0
   -0.4280   -5.9040  -27.4180 C   0  0  0  0  0  3  0  0  0  0  0  0
   -0.6010   -2.3130  -26.6400 C   0  0  0  0  0  1  0  0  0  0  0  0
   -1.0750   -3.6580  -26.7010 O   0  0  0  0  0  0  0  0  0  0  0  0
   -0.7500   -8.6360  -24.5350 N   0  0  0  0  0  0  0  0  0  0  0  0
   -0.7620   -9.1670  -25.3960 H   0  0  0  0  0  0  0  0  0  0  0  0
   -1.6510   -9.1920  -23.6010 C   0  0  0  0  0  0  0  0  0  0  0  0
   -2.4680   -8.3680  -22.9280 N   0  0  0  0  0  0  0  0  0  0  0  0
   -2.9400   -8.8290  -21.7730 C   0  0  0  0  0  3  0  0  0  0  0  0
   -2.5710   -9.9770  -21.2030 N   0  0  0  0  0  0  0  0  0  0  0  0
   -1.8260  -10.8240  -21.9400 C   0  0  0  0  0  0  0  0  0  0  0  0
   -1.2420  -11.9760  -21.4120 C   0  0  0  0  0  0  0  0  0  0  0  0
   -0.6120  -12.9570  -22.1970 C   0  0  0  0  0  3  0  0  0  0  0  0
   -0.4870  -12.7560  -23.5610 C   0  0  0  0  0  3  0  0  0  0  0  0
   -0.8650  -11.5250  -24.0810 C   0  0  0  0  0  3  0  0  0  0  0  0
   -1.4830  -10.5410  -23.2570 C   0  0  0  0  0  0  0  0  0  0  0  0
   -0.8800  -11.9460  -19.9820 C   0  0  0  0  0  0  0  0  0  0  0  0
   -0.3280  -10.7480  -19.5960 N   0  0  0  0  0  0  0  0  0  0  0  0
   -1.0360  -12.8850  -19.2200 O   0  0  0  0  0  0  0  0  0  0  0  0
   -0.0690  -10.6170  -18.6290 H   0  0  0  0  0  0  0  0  0  0  0  0
   -0.2180   -9.9700  -20.2350 H   0  0  0  0  0  0  0  0  0  0  0  0
    0.7620   -6.8810  -23.6710 C   0  0  0  0  0  2  0  0  0  0  0  0
   -0.2990   -5.8450  -24.0840 C   0  0  0  0  0  2  0  0  0  0  0  0
   -0.9260   -4.9790  -22.9960 C   0  0  0  0  0  2  0  0  0  0  0  0
   -1.8860   -5.6800  -22.2250 O   0  0  0  0  0  0  0  0  0  0  0  0
   -2.5570   -6.0580  -22.8280 H   0  0  0  0  0  0  0  0  0  0  0  0
  1 37  1  6  0  0  0
  2  7  1  0  0  0  0
  3  2  2  0  0  0  0
  3  4  1  0  0  0  0
  4  5  2  0  0  0  0
  5  6  1  0  0  0  0
  6  1  1  0  0  0  0
  7  6  2  0  0  0  0
  8 15  1  0  0  0  0
  8 10  1  0  0  0  0
  9  8  2  0  0  0  0
 10  2  1  0  0  0  0
 11 10  1  0  0  0  0
 12 19  1  0  0  0  0
 13 12  2  0  0  0  0
 14 13  1  0  0  0  0
 15 14  2  0  0  0  0
 15 16  1  0  0  0  0
 16 17  2  0  0  0  0
 17 12  1  0  0  0  0
 19 18  1  0  0  0  0
 20  1  1  0  0  0  0
 20 22  1  0  0  0  0
 21 20  1  0  0  0  0
 22 31  2  0  0  0  0
 22 23  1  0  0  0  0
 23 24  2  0  0  0  0
 24 25  1  0  0  0  0
 26 27  1  0  0  0  0
 26 25  2  0  0  0  0
 27 32  1  0  0  0  0
 28 27  2  0  0  0  0
 29 28  1  0  0  0  0
 30 29  2  0  0  0  0
 30 31  1  0  0  0  0
 31 26  1  0  0  0  0
 32 33  1  0  0  0  0
 32 34  2  0  0  0  0
 33 35  1  0  0  0  0
 36 33  1  0  0  0  0
 38 37  1  0  0  0  0
 38 39  1  0  0  0  0
 39 40  1  0  0  0  0
 41 40  1  0  0  0  0
M  END
>  <minimizedAffinity>
-7.56280565

$$$$

 OpenBabel10152420023D

 41 44  0  0  1  0  0  0  0  0999 V2000
    1.2600   -6.5370  -27.3730 C   0  0  2  0  0  3  0  0  0  0  0  0
    3.4970   -9.5520  -28.2070 C   0  0  0  0  0  0  0  0  0  0  0  0
    4.6060   -9.3100  -27.3990 C   0  0  0  0  0  3  0  0  0  0  0  0
    4.7200   -8.1050  -26.7150 C   0  0  0  0  0  3  0  0  0  0  0  0
    3.6780   -7.1770  -26.7560 C   0  0  0  0  0  3  0  0  0  0  0  0
    2.4970   -7.4430  -27.4680 C   0  0  0  0  0  0  0  0  0  0  0  0
    2.4550   -8.6150  -28.2580 C   0  0  0  0  0  3  0  0  0  0  0  0
    3.6890  -12.0540  -28.3160 C   0  0  0  0  0  0  0  0  0  0  0  0
    4.1870  -12.9210  -29.0330 O   0  0  0  0  0  0  0  0  0  0  0  0
    3.4190  -10.8080  -28.8270 N   0  0  0  0  0  0  0  0  0  0  0  0
    3.2680  -10.8120  -29.8290 H   0  0  0  0  0  0  0  0  0  0  0  0
    2.1260  -12.7550  -24.3850 C   0  0  0  0  0  0  0  0  0  0  0  0
    1.2700  -12.5890  -25.4740 C   0  0  0  0  0  3  0  0  0  0  0  0
    1.7870  -12.4340  -26.7630 C   0  0  0  0  0  3  0  0  0  0  0  0
    3.1710  -12.4320  -26.9710 C   0  0  0  0  0  0  0  0  0  0  0  0
    4.0290  -12.5710  -25.8690 C   0  0  0  0  0  3  0  0  0  0  0  0
    3.5070  -12.7360  -24.5810 C   0  0  0  0  0  3  0  0  0  0  0  0
    0.0960  -12.9580  -23.2230 C   0  0  0  0  0  1  0  0  0  0  0  0
    1.5190  -12.8530  -23.1630 O   0  0  0  0  0  0  0  0  0  0  0  0
    0.0200   -7.3160  -27.3200 N   0  0  0  0  0  0  0  0  0  0  0  0
   -0.1580   -7.8410  -28.1660 H   0  0  0  0  0  0  0  0  0  0  0  0
   -0.1340   -8.1430  -26.1850 C   0  0  0  0  0  0  0  0  0  0  0  0
   -0.3650   -9.4510  -26.3700 N   0  0  0  0  0  0  0  0  0  0  0  0
   -0.9550  -10.0870  -25.3630 C   0  0  0  0  0  3  0  0  0  0  0  0
   -1.4220   -9.5010  -24.2600 N   0  0  0  0  0  0  0  0  0  0  0  0
   -1.0950   -8.2090  -24.0580 C   0  0  0  0  0  0  0  0  0  0  0  0
   -1.6480   -7.4370  -23.0350 C   0  0  0  0  0  0  0  0  0  0  0  0
   -1.1930   -6.1500  -22.7010 C   0  0  0  0  0  3  0  0  0  0  0  0
   -0.1950   -5.5660  -23.4620 C   0  0  0  0  0  3  0  0  0  0  0  0
    0.2220   -6.2200  -24.6130 C   0  0  0  0  0  3  0  0  0  0  0  0
   -0.2700   -7.5180  -24.9370 C   0  0  0  0  0  0  0  0  0  0  0  0
   -3.0140   -7.7870  -22.5990 C   0  0  0  0  0  0  0  0  0  0  0  0
   -3.0340   -8.4830  -21.4150 N   0  0  0  0  0  0  0  0  0  0  0  0
   -4.0210   -7.5060  -23.2250 O   0  0  0  0  0  0  0  0  0  0  0  0
   -3.9230   -8.7490  -21.0170 H   0  0  0  0  0  0  0  0  0  0  0  0
   -2.1900   -8.6980  -20.8960 H   0  0  0  0  0  0  0  0  0  0  0  0
    1.1710   -5.4650  -28.4870 C   0  0  0  0  0  2  0  0  0  0  0  0
    1.3480   -3.9700  -28.1660 C   0  0  0  0  0  2  0  0  0  0  0  0
    0.1650   -3.2120  -27.5720 C   0  0  0  0  0  2  0  0  0  0  0  0
   -0.7080   -4.0510  -26.8370 O   0  0  0  0  0  0  0  0  0  0  0  0
   -0.9940   -4.7870  -27.4130 H   0  0  0  0  0  0  0  0  0  0  0  0
  1 37  1  6  0  0  0
  1 20  1  0  0  0  0
  2  3  1  0  0  0  0
  3  4  2  0  0  0  0
  5  4  1  0  0  0  0
  6  1  1  0  0  0  0
  6  5  2  0  0  0  0
  7  2  2  0  0  0  0
  7  6  1  0  0  0  0
  8 15  1  0  0  0  0
  9  8  2  0  0  0  0
 10  8  1  0  0  0  0
 10  2  1  0  0  0  0
 11 10  1  0  0  0  0
 12 19  1  0  0  0  0
 13 12  2  0  0  0  0
 14 13  1  0  0  0  0
 15 14  2  0  0  0  0
 15 16  1  0  0  0  0
 16 17  2  0  0  0  0
 17 12  1  0  0  0  0
 18 19  1  0  0  0  0
 20 22  1  0  0  0  0
 21 20  1  0  0  0  0
 22 31  1  0  0  0  0
 23 22  2  0  0  0  0
 23 24  1  0  0  0  0
 24 25  2  0  0  0  0
 25 26  1  0  0  0  0
 26 27  1  0  0  0  0
 27 28  2  0  0  0  0
 27 32  1  0  0  0  0
 29 28  1  0  0  0  0
 30 29  2  0  0  0  0
 31 30  1  0  0  0  0
 31 26  2  0  0  0  0
 32 33  1  0  0  0  0
 33 35  1  0  0  0  0
 33 36  1  0  0  0  0
 34 32  2  0  0  0  0
 37 38  1  0  0  0  0
 38 39  1  0  0  0  0
 39 40  1  0  0  0  0
 41 40  1  0  0  0  0
M  END
>  <minimizedAffinity>
-7.4155612

$$$$

 OpenBabel10152420023D

 41 44  0  0  1  0  0  0  0  0999 V2000
    1.9170   -9.1950  -24.3570 C   0  0  2  0  0  3  0  0  0  0  0  0
    3.7310   -8.7910  -27.7240 C   0  0  0  0  0  0  0  0  0  0  0  0
    4.1610  -10.0930  -27.9690 C   0  0  0  0  0  3  0  0  0  0  0  0
    4.0220  -11.0690  -26.9880 C   0  0  0  0  0  3  0  0  0  0  0  0
    3.3610  -10.7710  -25.7950 C   0  0  0  0  0  3  0  0  0  0  0  0
    2.8150   -9.4980  -25.5660 C   0  0  0  0  0  0  0  0  0  0  0  0
    3.0790   -8.4870  -26.5200 C   0  0  0  0  0  3  0  0  0  0  0  0
    2.8970   -7.0710  -29.3530 C   0  0  0  0  0  0  0  0  0  0  0  0
    2.9430   -6.8280  -30.5580 O   0  0  0  0  0  0  0  0  0  0  0  0
    3.8540   -7.8680  -28.7730 N   0  0  0  0  0  0  0  0  0  0  0  0
    4.7340   -7.8650  -29.2750 H   0  0  0  0  0  0  0  0  0  0  0  0
   -0.0820   -4.8610  -27.2020 C   0  0  0  0  0  0  0  0  0  0  0  0
   -0.2270   -6.2320  -27.4150 C   0  0  0  0  0  3  0  0  0  0  0  0
    0.7830   -6.9590  -28.0530 C   0  0  0  0  0  3  0  0  0  0  0  0
    1.9440   -6.3130  -28.4940 C   0  0  0  0  0  0  0  0  0  0  0  0
    2.0720   -4.9290  -28.3040 C   0  0  0  0  0  3  0  0  0  0  0  0
    1.0620   -4.2070  -27.6560 C   0  0  0  0  0  3  0  0  0  0  0  0
   -0.9880   -2.8280  -26.4560 C   0  0  0  0  0  1  0  0  0  0  0  0
   -1.1470   -4.2380  -26.6110 O   0  0  0  0  0  0  0  0  0  0  0  0
    1.3450  -10.4180  -23.7860 N   0  0  0  0  0  0  0  0  0  0  0  0
    1.5550  -10.5340  -22.8030 H   0  0  0  0  0  0  0  0  0  0  0  0
   -0.0320  -10.6180  -24.0240 C   0  0  0  0  0  0  0  0  0  0  0  0
   -0.4210  -11.0270  -25.2400 N   0  0  0  0  0  0  0  0  0  0  0  0
   -1.6810  -10.7580  -25.5710 C   0  0  0  0  0  3  0  0  0  0  0  0
   -2.5220  -10.0270  -24.8380 N   0  0  0  0  0  0  0  0  0  0  0  0
   -2.1390   -9.7100  -23.5850 C   0  0  0  0  0  0  0  0  0  0  0  0
   -2.8480   -8.8200  -22.7770 C   0  0  0  0  0  0  0  0  0  0  0  0
   -2.5640   -8.6120  -21.4160 C   0  0  0  0  0  3  0  0  0  0  0  0
   -1.4810   -9.2570  -20.8440 C   0  0  0  0  0  3  0  0  0  0  0  0
   -0.6320   -9.9770  -21.6730 C   0  0  0  0  0  3  0  0  0  0  0  0
   -0.9340  -10.1560  -23.0540 C   0  0  0  0  0  0  0  0  0  0  0  0
   -3.6060   -7.7550  -23.4620 C   0  0  0  0  0  0  0  0  0  0  0  0
   -4.8620   -7.5730  -22.9370 N   0  0  0  0  0  0  0  0  0  0  0  0
   -3.1770   -7.1120  -24.4040 O   0  0  0  0  0  0  0  0  0  0  0  0
   -5.4530   -6.8490  -23.3200 H   0  0  0  0  0  0  0  0  0  0  0  0
   -5.2020   -8.1030  -22.1440 H   0  0  0  0  0  0  0  0  0  0  0  0
    0.7980   -8.1630  -24.6390 C   0  0  0  0  0  2  0  0  0  0  0  0
    0.8920   -6.7230  -24.1020 C   0  0  0  0  0  2  0  0  0  0  0  0
   -0.2440   -6.2020  -23.2280 C   0  0  0  0  0  2  0  0  0  0  0  0
   -0.9360   -5.1160  -23.8210 O   0  0  0  0  0  0  0  0  0  0  0  0
   -0.2900   -4.4170  -24.0410 H   0  0  0  0  0  0  0  0  0  0  0  0
  1 37  1  6  0  0  0
  1 20  1  0  0  0  0
  2  7  1  0  0  0  0
  3  2  2  0  0  0  0
  3  4  1  0  0  0  0
  4  5  2  0  0  0  0
  5  6  1  0  0  0  0
  6  1  1  0  0  0  0
  7  6  2  0  0  0  0
  8 10  1  0  0  0  0
  8 15  1  0  0  0  0
  9  8  2  0  0  0  0
 10  2  1  0  0  0  0
 11 10  1  0  0  0  0
 12 19  1  0  0  0  0
 13 12  1  0  0  0  0
 14 13  2  0  0  0  0
 15 16  2  0  0  0  0
 15 14  1  0  0  0  0
 16 17  1  0  0  0  0
 17 12  2  0  0  0  0
 19 18  1  0  0  0  0
 20 21  1  0  0  0  0
 22 20  1  0  0  0  0
 22 31  1  0  0  0  0
 23 22  2  0  0  0  0
 24 23  1  0  0  0  0
 24 25  2  0  0  0  0
 25 26  1  0  0  0  0
 26 31  2  0  0  0  0
 26 27  1  0  0  0  0
 27 28  2  0  0  0  0
 28 29  1  0  0  0  0
 30 29  2  0  0  0  0
 31 30  1  0  0  0  0
 32 33  1  0  0  0  0
 32 27  1  0  0  0  0
 33 36  1  0  0  0  0
 34 32  2  0  0  0  0
 35 33  1  0  0  0  0
 37 38  1  0  0  0  0
 38 39  1  0  0  0  0
 40 39  1  0  0  0  0
 41 40  1  0  0  0  0
M  END
>  <minimizedAffinity>
-7.41338205

$$$$

 OpenBabel10152420023D

 41 44  0  0  1  0  0  0  0  0999 V2000
   -0.8220   -6.6050  -25.7500 C   0  0  2  0  0  3  0  0  0  0  0  0
   -1.5550   -8.6670  -22.5880 C   0  0  0  0  0  0  0  0  0  0  0  0
   -2.9460   -8.7340  -22.6120 C   0  0  0  0  0  3  0  0  0  0  0  0
   -3.6630   -7.9850  -23.5390 C   0  0  0  0  0  3  0  0  0  0  0  0
   -2.9880   -7.2420  -24.5100 C   0  0  0  0  0  3  0  0  0  0  0  0
   -1.5860   -7.2470  -24.5820 C   0  0  0  0  0  0  0  0  0  0  0  0
   -0.8760   -7.9110  -23.5540 C   0  0  0  0  0  3  0  0  0  0  0  0
   -0.6570  -10.8400  -21.7040 C   0  0  0  0  0  0  0  0  0  0  0  0
   -0.6670  -11.5000  -20.6660 O   0  0  0  0  0  0  0  0  0  0  0  0
   -0.8910   -9.4870  -21.6620 N   0  0  0  0  0  0  0  0  0  0  0  0
   -0.6540   -9.0680  -20.7710 H   0  0  0  0  0  0  0  0  0  0  0  0
    0.6250  -12.3300  -25.5140 C   0  0  0  0  0  0  0  0  0  0  0  0
    1.3930  -11.3960  -24.8190 C   0  0  0  0  0  3  0  0  0  0  0  0
    1.0060  -10.9690  -23.5450 C   0  0  0  0  0  3  0  0  0  0  0  0
   -0.1640  -11.4690  -22.9610 C   0  0  0  0  0  0  0  0  0  0  0  0
   -0.9480  -12.3880  -23.6760 C   0  0  0  0  0  3  0  0  0  0  0  0
   -0.5510  -12.8190  -24.9470 C   0  0  0  0  0  3  0  0  0  0  0  0
    2.2810  -11.9900  -27.1440 C   0  0  0  0  0  1  0  0  0  0  0  0
    1.0680  -12.6440  -26.7700 O   0  0  0  0  0  0  0  0  0  0  0  0
    0.1580   -7.5270  -26.3300 N   0  0  0  0  0  0  0  0  0  0  0  0
   -0.2670   -8.3010  -26.8240 H   0  0  0  0  0  0  0  0  0  0  0  0
    1.1650   -6.9310  -27.1200 C   0  0  0  0  0  0  0  0  0  0  0  0
    0.8230   -5.9410  -27.9580 N   0  0  0  0  0  0  0  0  0  0  0  0
    1.6430   -5.7350  -28.9830 C   0  0  0  0  0  3  0  0  0  0  0  0
    2.6920   -6.5010  -29.2870 N   0  0  0  0  0  0  0  0  0  0  0  0
    3.0670   -7.4260  -28.3820 C   0  0  0  0  0  0  0  0  0  0  0  0
    4.0380   -8.3940  -28.6430 C   0  0  0  0  0  0  0  0  0  0  0  0
    4.5650   -9.2510  -27.6610 C   0  0  0  0  0  3  0  0  0  0  0  0
    4.0560   -9.2010  -26.3750 C   0  0  0  0  0  3  0  0  0  0  0  0
    2.9450   -8.4020  -26.1390 C   0  0  0  0  0  3  0  0  0  0  0  0
    2.4190   -7.5580  -27.1590 C   0  0  0  0  0  0  0  0  0  0  0  0
    4.1840   -8.8320  -30.0450 C   0  0  0  0  0  0  0  0  0  0  0  0
    4.7130   -7.8560  -30.8560 N   0  0  0  0  0  0  0  0  0  0  0  0
    3.8570   -9.9330  -30.4530 O   0  0  0  0  0  0  0  0  0  0  0  0
    4.8760   -8.0650  -31.8300 H   0  0  0  0  0  0  0  0  0  0  0  0
    4.9940   -6.9500  -30.5020 H   0  0  0  0  0  0  0  0  0  0  0  0
   -0.1470   -5.2560  -25.4020 C   0  0  0  0  0  2  0  0  0  0  0  0
   -0.9840   -3.9890  -25.1530 C   0  0  0  0  0  2  0  0  0  0  0  0
   -0.9770   -2.8960  -26.2170 C   0  0  0  0  0  2  0  0  0  0  0  0
   -0.0040   -3.1190  -27.2220 O   0  0  0  0  0  0  0  0  0  0  0  0
    0.8690   -3.2220  -26.7950 H   0  0  0  0  0  0  0  0  0  0  0  0
  1 37  1  1  0  0  0
  1  6  1  0  0  0  0
  2 10  1  0  0  0  0
  3  2  1  0  0  0  0
  4  3  2  0  0  0  0
  5  4  1  0  0  0  0
  6  5  2  0  0  0  0
  6  7  1  0  0  0  0
  7  2  2  0  0  0  0
  8 10  1  0  0  0  0
  8  9  2  0  0  0  0
 10 11  1  0  0  0  0
 12 17  2  0  0  0  0
 12 13  1  0  0  0  0
 13 14  2  0  0  0  0
 14 15  1  0  0  0  0
 15  8  1  0  0  0  0
 16 15  2  0  0  0  0
 17 16  1  0  0  0  0
 18 19  1  0  0  0  0
 19 12  1  0  0  0  0
 20  1  1  0  0  0  0
 21 20  1  0  0  0  0
 22 20  1  0  0  0  0
 23 22  2  0  0  0  0
 24 23  1  0  0  0  0
 25 24  2  0  0  0  0
 25 26  1  0  0  0  0
 26 31  1  0  0  0  0
 27 26  2  0  0  0  0
 27 28  1  0  0  0  0
 28 29  2  0  0  0  0
 29 30  1  0  0  0  0
 31 22  1  0  0  0  0
 31 30  2  0  0  0  0
 32 27  1  0  0  0  0
 33 36  1  0  0  0  0
 33 32  1  0  0  0  0
 34 32  2  0  0  0  0
 35 33  1  0  0  0  0
 37 38  1  0  0  0  0
 39 38  1  0  0  0  0
 40 41  1  0  0  0  0
 40 39  1  0  0  0  0
M  END
>  <minimizedAffinity>
-7.37570095

$$$$
