
 OpenBabel10152420023D

 41 44  0  0  1  0  0  0  0  0999 V2000
    3.1100  -10.1490  -26.8810 C   0  0  2  0  0  3  0  0  0  0  0  0
    2.7720   -6.6070  -28.3400 C   0  0  0  0  0  0  0  0  0  0  0  0
    3.2720   -6.7850  -29.6280 C   0  0  0  0  0  3  0  0  0  0  0  0
    3.8720   -7.9880  -29.9820 C   0  0  0  0  0  3  0  0  0  0  0  0
    3.8860   -9.0540  -29.0800 C   0  0  0  0  0  3  0  0  0  0  0  0
    3.2860   -8.9420  -27.8160 C   0  0  0  0  0  0  0  0  0  0  0  0
    2.7960   -7.6730  -27.4290 C   0  0  0  0  0  3  0  0  0  0  0  0
    0.8450   -5.1510  -27.6510 C   0  0  0  0  0  0  0  0  0  0  0  0
    0.2460   -4.1490  -28.0410 O   0  0  0  0  0  0  0  0  0  0  0  0
    2.1330   -5.3880  -28.0650 N   0  0  0  0  0  0  0  0  0  0  0  0
    2.6320   -4.5450  -28.3220 H   0  0  0  0  0  0  0  0  0  0  0  0
   -1.0430   -7.1780  -24.3780 C   0  0  0  0  0  0  0  0  0  0  0  0
   -1.7310   -6.9560  -25.5710 C   0  0  0  0  0  3  0  0  0  0  0  0
   -1.0860   -6.3590  -26.6580 C   0  0  0  0  0  3  0  0  0  0  0  0
    0.2540   -5.9700  -26.5550 C   0  0  0  0  0  0  0  0  0  0  0  0
    0.9340   -6.1700  -25.3440 C   0  0  0  0  0  3  0  0  0  0  0  0
    0.2870   -6.7760  -24.2600 C   0  0  0  0  0  3  0  0  0  0  0  0
   -3.1630   -7.8960  -23.6690 C   0  0  0  0  0  1  0  0  0  0  0  0
   -1.7790   -7.7250  -23.3630 O   0  0  0  0  0  0  0  0  0  0  0  0
    2.2850   -9.8170  -25.7160 N   0  0  0  0  0  0  0  0  0  0  0  0
    2.1530   -8.8220  -25.5920 H   0  0  0  0  0  0  0  0  0  0  0  0
    1.0490  -10.4940  -25.6300 C   0  0  0  0  0  0  0  0  0  0  0  0
    0.0080  -10.0210  -26.3320 N   0  0  0  0  0  0  0  0  0  0  0  0
   -1.1980  -10.3620  -25.8880 C   0  0  0  0  0  3  0  0  0  0  0  0
   -1.4340  -11.0270  -24.7560 N   0  0  0  0  0  0  0  0  0  0  0  0
   -0.3750  -11.5690  -24.1230 C   0  0  0  0  0  0  0  0  0  0  0  0
   -0.4620  -12.1460  -22.8550 C   0  0  0  0  0  0  0  0  0  0  0  0
    0.5850  -12.8670  -22.2560 C   0  0  0  0  0  3  0  0  0  0  0  0
    1.8030  -12.9590  -22.9080 C   0  0  0  0  0  3  0  0  0  0  0  0
    1.9870  -12.2160  -24.0660 C   0  0  0  0  0  3  0  0  0  0  0  0
    0.9120  -11.4780  -24.6410 C   0  0  0  0  0  0  0  0  0  0  0  0
   -1.4960  -11.6100  -21.9480 C   0  0  0  0  0  0  0  0  0  0  0  0
   -1.3800  -10.2560  -21.7480 N   0  0  0  0  0  0  0  0  0  0  0  0
   -2.3540  -12.2920  -21.4150 O   0  0  0  0  0  0  0  0  0  0  0  0
   -2.0560   -9.7870  -21.1620 H   0  0  0  0  0  0  0  0  0  0  0  0
   -0.6720   -9.6970  -22.2080 H   0  0  0  0  0  0  0  0  0  0  0  0
    4.4390  -10.8010  -26.4280 C   0  0  0  0  0  2  0  0  0  0  0  0
    4.7000  -12.3030  -26.6400 C   0  0  0  0  0  2  0  0  0  0  0  0
    4.1620  -12.9580  -27.9080 C   0  0  0  0  0  2  0  0  0  0  0  0
    4.4540  -12.2110  -29.0760 O   0  0  0  0  0  0  0  0  0  0  0  0
    4.1140  -11.3020  -28.9590 H   0  0  0  0  0  0  0  0  0  0  0  0
  1 37  1  1  0  0  0
  1 20  1  0  0  0  0
  2 10  1  0  0  0  0
  2  7  1  0  0  0  0
  3  2  2  0  0  0  0
  4  3  1  0  0  0  0
  4  5  2  0  0  0  0
  5  6  1  0  0  0  0
  6  7  2  0  0  0  0
  6  1  1  0  0  0  0
  8 15  1  0  0  0  0
  9  8  2  0  0  0  0
 10  8  1  0  0  0  0
 11 10  1  0  0  0  0
 12 17  1  0  0  0  0
 12 19  1  0  0  0  0
 13 12  2  0  0  0  0
 14 15  2  0  0  0  0
 14 13  1  0  0  0  0
 15 16  1  0  0  0  0
 16 17  2  0  0  0  0
 18 19  1  0  0  0  0
 20 22  1  0  0  0  0
 20 21  1  0  0  0  0
 22 31  1  0  0  0  0
 23 24  1  0  0  0  0
 23 22  2  0  0  0  0
 24 25  2  0  0  0  0
 25 26  1  0  0  0  0
 26 27  1  0  0  0  0
 27 28  2  0  0  0  0
 27 32  1  0  0  0  0
 29 28  1  0  0  0  0
 30 29  2  0  0  0  0
 31 26  2  0  0  0  0
 31 30  1  0  0  0  0
 32 33  1  0  0  0  0
 32 34  2  0  0  0  0
 33 35  1  0  0  0  0
 36 33  1  0  0  0  0
 38 37  1  0  0  0  0
 39 38  1  0  0  0  0
 40 41  1  0  0  0  0
 40 39  1  0  0  0  0
M  END
>  <minimizedAffinity>
-8.47560501

$$$$
