
 OpenBabel10152420023D

 41 44  0  0  1  0  0  0  0  0999 V2000
    1.3390   -6.5280  -26.6520 C   0  0  2  0  0  3  0  0  0  0  0  0
    3.5290   -9.4350  -27.8930 C   0  0  0  0  0  0  0  0  0  0  0  0
    4.1420   -8.8680  -29.0080 C   0  0  0  0  0  3  0  0  0  0  0  0
    3.7370   -7.6190  -29.4660 C   0  0  0  0  0  3  0  0  0  0  0  0
    2.7850   -6.8880  -28.7530 C   0  0  0  0  0  3  0  0  0  0  0  0
    2.2340   -7.3840  -27.5600 C   0  0  0  0  0  0  0  0  0  0  0  0
    2.5640   -8.7060  -27.1830 C   0  0  0  0  0  3  0  0  0  0  0  0
    3.8200  -11.3190  -26.2580 C   0  0  0  0  0  0  0  0  0  0  0  0
    4.7220  -11.9910  -25.7600 O   0  0  0  0  0  0  0  0  0  0  0  0
    4.0210  -10.6730  -27.4530 N   0  0  0  0  0  0  0  0  0  0  0  0
    4.7280  -11.1130  -28.0310 H   0  0  0  0  0  0  0  0  0  0  0  0
    0.0100  -11.8470  -24.3630 C   0  0  0  0  0  0  0  0  0  0  0  0
    1.0160  -11.1050  -23.7450 C   0  0  0  0  0  3  0  0  0  0  0  0
    2.2300  -10.8750  -24.4000 C   0  0  0  0  0  3  0  0  0  0  0  0
    2.4490  -11.4000  -25.6800 C   0  0  0  0  0  0  0  0  0  0  0  0
    1.4440  -12.1700  -26.2850 C   0  0  0  0  0  3  0  0  0  0  0  0
    0.2270  -12.3890  -25.6290 C   0  0  0  0  0  3  0  0  0  0  0  0
   -0.8660  -12.4160  -22.2600 C   0  0  0  0  0  1  0  0  0  0  0  0
   -1.1190  -12.0500  -23.6170 O   0  0  0  0  0  0  0  0  0  0  0  0
    1.0270   -7.2140  -25.3950 N   0  0  0  0  0  0  0  0  0  0  0  0
    1.8440   -7.3930  -24.8250 H   0  0  0  0  0  0  0  0  0  0  0  0
    0.0030   -6.6310  -24.6170 C   0  0  0  0  0  0  0  0  0  0  0  0
    0.2200   -5.4260  -24.0680 N   0  0  0  0  0  0  0  0  0  0  0  0
   -0.5210   -5.1270  -23.0060 C   0  0  0  0  0  3  0  0  0  0  0  0
   -1.3600   -5.9690  -22.4000 N   0  0  0  0  0  0  0  0  0  0  0  0
   -1.6280   -7.1330  -23.0240 C   0  0  0  0  0  0  0  0  0  0  0  0
   -2.3550   -8.1640  -22.4260 C   0  0  0  0  0  0  0  0  0  0  0  0
   -2.7920   -9.3070  -23.1170 C   0  0  0  0  0  3  0  0  0  0  0  0
   -2.4320   -9.4780  -24.4420 C   0  0  0  0  0  3  0  0  0  0  0  0
   -1.5320   -8.5780  -24.9990 C   0  0  0  0  0  3  0  0  0  0  0  0
   -1.0900   -7.4370  -24.2680 C   0  0  0  0  0  0  0  0  0  0  0  0
   -2.2730   -8.2740  -20.9570 C   0  0  0  0  0  0  0  0  0  0  0  0
   -3.2380   -7.5390  -20.3120 N   0  0  0  0  0  0  0  0  0  0  0  0
   -1.4310   -8.9310  -20.3690 O   0  0  0  0  0  0  0  0  0  0  0  0
   -3.2840   -7.5670  -19.3030 H   0  0  0  0  0  0  0  0  0  0  0  0
   -3.9420   -7.0090  -20.8120 H   0  0  0  0  0  0  0  0  0  0  0  0
    0.0370   -6.0310  -27.3270 C   0  0  0  0  0  2  0  0  0  0  0  0
    0.0070   -4.7130  -28.1200 C   0  0  0  0  0  2  0  0  0  0  0  0
    1.0980   -3.6800  -27.8500 C   0  0  0  0  0  2  0  0  0  0  0  0
    0.6280   -2.3480  -27.9600 O   0  0  0  0  0  0  0  0  0  0  0  0
    0.2210   -2.2310  -28.8400 H   0  0  0  0  0  0  0  0  0  0  0  0
  1 37  1  6  0  0  0
  1 20  1  0  0  0  0
  2 10  1  0  0  0  0
  2  7  1  0  0  0  0
  3  2  2  0  0  0  0
  4  3  1  0  0  0  0
  4  5  2  0  0  0  0
  5  6  1  0  0  0  0
  6  7  2  0  0  0  0
  6  1  1  0  0  0  0
  8  9  2  0  0  0  0
  8 15  1  0  0  0  0
 10  8  1  0  0  0  0
 11 10  1  0  0  0  0
 12 13  1  0  0  0  0
 12 19  1  0  0  0  0
 14 13  2  0  0  0  0
 15 14  1  0  0  0  0
 16 15  2  0  0  0  0
 16 17  1  0  0  0  0
 17 12  2  0  0  0  0
 19 18  1  0  0  0  0
 20 21  1  0  0  0  0
 20 22  1  0  0  0  0
 22 31  2  0  0  0  0
 22 23  1  0  0  0  0
 23 24  2  0  0  0  0
 24 25  1  0  0  0  0
 26 27  1  0  0  0  0
 26 25  2  0  0  0  0
 27 32  1  0  0  0  0
 28 27  2  0  0  0  0
 29 28  1  0  0  0  0
 30 29  2  0  0  0  0
 30 31  1  0  0  0  0
 31 26  1  0  0  0  0
 32 34  2  0  0  0  0
 32 33  1  0  0  0  0
 33 35  1  0  0  0  0
 36 33  1  0  0  0  0
 38 39  1  0  0  0  0
 38 37  1  0  0  0  0
 40 39  1  0  0  0  0
 41 40  1  0  0  0  0
M  END
>  <minimizedAffinity>
-8.24385929

$$$$
