
 OpenBabel10152420023D

 41 44  0  0  1  0  0  0  0  0999 V2000
    1.3660   -9.6820  -25.6380 C   0  0  2  0  0  3  0  0  0  0  0  0
   -0.3350  -12.1260  -23.2060 C   0  0  0  0  0  0  0  0  0  0  0  0
    0.7340  -12.9330  -22.8250 C   0  0  0  0  0  3  0  0  0  0  0  0
    1.9620  -12.8100  -23.4650 C   0  0  0  0  0  3  0  0  0  0  0  0
    2.1550  -11.8110  -24.4210 C   0  0  0  0  0  3  0  0  0  0  0  0
    1.1290  -10.9070  -24.7420 C   0  0  0  0  0  0  0  0  0  0  0  0
   -0.1470  -11.1300  -24.1750 C   0  0  0  0  0  3  0  0  0  0  0  0
   -2.0720  -11.4470  -21.5230 C   0  0  0  0  0  0  0  0  0  0  0  0
   -2.6980  -11.9320  -20.5810 O   0  0  0  0  0  0  0  0  0  0  0  0
   -1.5310  -12.2650  -22.4840 N   0  0  0  0  0  0  0  0  0  0  0  0
   -2.0170  -13.1490  -22.5760 H   0  0  0  0  0  0  0  0  0  0  0  0
   -1.8160   -7.2420  -22.3180 C   0  0  0  0  0  0  0  0  0  0  0  0
   -2.2410   -8.1290  -23.3060 C   0  0  0  0  0  3  0  0  0  0  0  0
   -2.3910   -9.4890  -23.0180 C   0  0  0  0  0  3  0  0  0  0  0  0
   -2.1060   -9.9730  -21.7360 C   0  0  0  0  0  0  0  0  0  0  0  0
   -1.6510   -9.0810  -20.7530 C   0  0  0  0  0  3  0  0  0  0  0  0
   -1.5100   -7.7180  -21.0430 C   0  0  0  0  0  3  0  0  0  0  0  0
   -0.3840   -5.6590  -23.2960 C   0  0  0  0  0  1  0  0  0  0  0  0
   -1.6570   -5.9430  -22.7160 O   0  0  0  0  0  0  0  0  0  0  0  0
    2.6310   -9.0120  -25.3200 N   0  0  0  0  0  0  0  0  0  0  0  0
    3.1420   -9.4620  -24.5720 H   0  0  0  0  0  0  0  0  0  0  0  0
    3.4820   -8.7600  -26.4170 C   0  0  0  0  0  0  0  0  0  0  0  0
    3.4870   -7.5320  -26.9570 N   0  0  0  0  0  0  0  0  0  0  0  0
    3.9060   -7.4500  -28.2160 C   0  0  0  0  0  3  0  0  0  0  0  0
    4.2030   -8.4940  -28.9910 N   0  0  0  0  0  0  0  0  0  0  0  0
    4.2800   -9.7030  -28.3990 C   0  0  0  0  0  0  0  0  0  0  0  0
    4.4200  -10.8910  -29.1170 C   0  0  0  0  0  0  0  0  0  0  0  0
    4.6760  -12.1360  -28.5160 C   0  0  0  0  0  3  0  0  0  0  0  0
    4.7220  -12.2250  -27.1360 C   0  0  0  0  0  3  0  0  0  0  0  0
    4.3730  -11.1050  -26.3930 C   0  0  0  0  0  3  0  0  0  0  0  0
    4.0990   -9.8600  -27.0300 C   0  0  0  0  0  0  0  0  0  0  0  0
    3.8450  -10.9220  -30.4760 C   0  0  0  0  0  0  0  0  0  0  0  0
    3.2410  -12.1210  -30.7730 N   0  0  0  0  0  0  0  0  0  0  0  0
    3.9080   -9.9940  -31.2640 O   0  0  0  0  0  0  0  0  0  0  0  0
    2.7940  -12.2350  -31.6710 H   0  0  0  0  0  0  0  0  0  0  0  0
    3.1820  -12.8800  -30.1040 H   0  0  0  0  0  0  0  0  0  0  0  0
    0.2040   -8.6590  -25.6360 C   0  0  0  0  0  2  0  0  0  0  0  0
   -0.0400   -7.7310  -26.8400 C   0  0  0  0  0  2  0  0  0  0  0  0
    0.2460   -6.2410  -26.6750 C   0  0  0  0  0  2  0  0  0  0  0  0
    1.0450   -5.7190  -27.7220 O   0  0  0  0  0  0  0  0  0  0  0  0
    1.8650   -6.2470  -27.7830 H   0  0  0  0  0  0  0  0  0  0  0  0
  1 37  1  1  0  0  0
  1 20  1  0  0  0  0
  1  6  1  0  0  0  0
  2  3  1  0  0  0  0
  2 10  1  0  0  0  0
  4  3  2  0  0  0  0
  5  4  1  0  0  0  0
  6  5  2  0  0  0  0
  6  7  1  0  0  0  0
  7  2  2  0  0  0  0
  8  9  2  0  0  0  0
 10  8  1  0  0  0  0
 11 10  1  0  0  0  0
 12 17  1  0  0  0  0
 13 14  1  0  0  0  0
 13 12  2  0  0  0  0
 14 15  2  0  0  0  0
 15  8  1  0  0  0  0
 15 16  1  0  0  0  0
 17 16  2  0  0  0  0
 18 19  1  0  0  0  0
 19 12  1  0  0  0  0
 20 21  1  0  0  0  0
 22 20  1  0  0  0  0
 23 22  1  0  0  0  0
 24 23  2  0  0  0  0
 25 26  2  0  0  0  0
 25 24  1  0  0  0  0
 26 31  1  0  0  0  0
 27 28  2  0  0  0  0
 27 26  1  0  0  0  0
 28 29  1  0  0  0  0
 29 30  2  0  0  0  0
 31 22  2  0  0  0  0
 31 30  1  0  0  0  0
 32 27  1  0  0  0  0
 33 32  1  0  0  0  0
 33 36  1  0  0  0  0
 34 32  2  0  0  0  0
 35 33  1  0  0  0  0
 38 39  1  0  0  0  0
 38 37  1  0  0  0  0
 40 39  1  0  0  0  0
 41 40  1  0  0  0  0
M  END
>  <minimizedAffinity>
-8.35511112

$$$$
