
 OpenBabel11232418483D

 37 41  0  0  1  0  0  0  0  0999 V2000
    6.4790   -4.3610    9.0650 C   0  0  0  0  0  0  0  0  0  0  0  0
    6.6930   -3.0120    9.2280 C   0  0  0  0  0  3  0  0  0  0  0  0
    6.8330   -2.8260   10.5800 N   0  0  0  0  0  0  0  0  0  0  0  0
    6.7840   -4.0640   11.1830 C   0  0  0  0  0  0  0  0  0  0  0  0
    6.4620   -4.9750   10.2910 N   0  0  0  0  0  0  0  0  0  0  0  0
    6.4550   -7.0600    6.4540 C   0  0  0  0  0  0  0  0  0  0  0  0
    6.6980   -6.4100    7.6630 C   0  0  0  0  0  3  0  0  0  0  0  0
    6.2960   -5.0800    7.8170 C   0  0  0  0  0  0  0  0  0  0  0  0
    5.6560   -4.4490    6.7510 C   0  0  0  0  0  3  0  0  0  0  0  0
    5.4570   -5.1620    5.5840 C   0  0  0  0  0  3  0  0  0  0  0  0
    5.8410   -6.4440    5.4170 N   0  0  0  0  0  0  0  0  0  0  0  0
    8.2160   -8.6750    5.7300 C   0  0  0  0  0  1  0  0  0  0  0  0
    6.8030   -8.5290    6.2970 C   0  0  0  0  0  3  0  0  0  0  0  0
    6.6710   -9.2950    7.6160 C   0  0  0  0  0  1  0  0  0  0  0  0
    7.0850   -4.3520   12.6330 C   0  0  2  0  0  3  0  0  0  0  0  0
    8.5980   -4.2970   12.8970 C   0  0  0  0  0  2  0  0  0  0  0  0
    9.3210   -5.5710   12.4580 C   0  0  0  0  0  2  0  0  0  0  0  0
    8.6640   -6.7570   12.9940 N   0  0  0  0  0  0  0  0  0  0  0  0
    7.2560   -6.9160   12.6440 C   0  0  0  0  0  2  0  0  0  0  0  0
    6.4650   -5.6830   13.0940 C   0  0  0  0  0  2  0  0  0  0  0  0
    9.0830   -7.2460   14.2290 C   0  0  0  0  0  0  0  0  0  0  0  0
    9.0020   -6.4010   15.2780 N   0  0  0  0  0  0  0  0  0  0  0  0
    9.3810   -6.8730   16.4730 C   0  0  0  0  0  3  0  0  0  0  0  0
    9.8270   -8.1060   16.7320 N   0  0  0  0  0  0  0  0  0  0  0  0
    9.9370   -8.9270   15.6780 C   0  0  0  0  0  0  0  0  0  0  0  0
   10.3830  -10.2030   15.9810 N   0  0  0  0  0  0  0  0  0  0  0  0
    9.5680   -8.5450   14.3920 C   0  0  0  0  0  0  0  0  0  0  0  0
    9.8360   -9.7350   12.9290 Br  0  0  0  0  0  0  0  0  0  0  0  0
   10.6270  -10.3250   16.9560 H   0  0  0  0  0  0  0  0  0  0  0  0
   10.9580  -10.6710   15.2940 H   0  0  0  0  0  0  0  0  0  0  0  0
    6.9370   -1.5250   11.2120 C   0  0  0  0  0  2  0  0  0  0  0  0
    7.6600   -0.5070   10.3160 C   0  0  0  0  0  2  0  0  0  0  0  0
    6.7130    0.4240    9.6250 N   0  0  0  0  0  4  0  0  0  0  0  0
    5.9430   -0.2230    8.5420 C   0  0  0  0  0  2  0  0  0  0  0  0
    4.6960    0.4950    9.0760 C   0  0  0  0  0  2  0  0  0  0  0  0
    5.4600    0.5800   10.4040 C   0  0  0  0  0  2  0  0  0  0  0  0
    7.1220    1.3400    9.3730 H   0  0  0  0  0  0  0  0  0  0  0  0
  1  2  2  0  0  0  0
  1  5  1  0  0  0  0
  2  3  1  0  0  0  0
  3  4  1  0  0  0  0
  3 31  1  0  0  0  0
  5  4  2  0  0  0  0
  6  7  1  0  0  0  0
  7  8  2  0  0  0  0
  8  1  1  0  0  0  0
  9  8  1  0  0  0  0
 10  9  2  0  0  0  0
 11 10  1  0  0  0  0
 11  6  2  0  0  0  0
 12 13  1  0  0  0  0
 13  6  1  0  0  0  0
 13 14  1  0  0  0  0
 15  4  1  6  0  0  0
 15 16  1  0  0  0  0
 15 20  1  0  0  0  0
 17 16  1  0  0  0  0
 17 18  1  0  0  0  0
 18 21  1  0  0  0  0
 19 18  1  0  0  0  0
 19 20  1  0  0  0  0
 21 27  2  0  0  0  0
 21 22  1  0  0  0  0
 22 23  2  0  0  0  0
 23 24  1  0  0  0  0
 25 26  1  0  0  0  0
 25 24  2  0  0  0  0
 26 29  1  0  0  0  0
 27 25  1  0  0  0  0
 28 27  1  0  0  0  0
 30 26  1  0  0  0  0
 32 31  1  0  0  0  0
 33 32  1  0  0  0  0
 33 36  1  0  0  0  0
 34 35  1  0  0  0  0
 34 33  1  0  0  0  0
 35 36  1  0  0  0  0
 37 33  1  0  0  0  0
M  END
>  <minimizedAffinity>
-9.29603672

$$$$
