
 OpenBabel11232418483D

 37 41  0  0  1  0  0  0  0  0999 V2000
   10.6880  -14.5920   15.9730 C   0  0  0  0  0  0  0  0  0  0  0  0
    9.6880  -15.3840   15.4580 C   0  0  0  0  0  3  0  0  0  0  0  0
    8.5970  -14.5610   15.3380 N   0  0  0  0  0  0  0  0  0  0  0  0
    8.9850  -13.2890   15.6990 C   0  0  0  0  0  0  0  0  0  0  0  0
   10.2070  -13.3250   16.1860 N   0  0  0  0  0  0  0  0  0  0  0  0
   13.7120  -16.5540   17.0270 C   0  0  0  0  0  0  0  0  0  0  0  0
   12.3740  -16.2250   16.8100 C   0  0  0  0  0  3  0  0  0  0  0  0
   12.0570  -14.9780   16.2640 C   0  0  0  0  0  0  0  0  0  0  0  0
   13.0960  -14.1030   15.9490 C   0  0  0  0  0  3  0  0  0  0  0  0
   14.3950  -14.5030   16.2000 C   0  0  0  0  0  3  0  0  0  0  0  0
   14.7190  -15.7010   16.7280 N   0  0  0  0  0  0  0  0  0  0  0  0
   15.5940  -18.1450   17.4240 C   0  0  0  0  0  1  0  0  0  0  0  0
   14.0820  -17.9350   17.5340 C   0  0  0  0  0  3  0  0  0  0  0  0
   13.6100  -18.1660   18.9720 C   0  0  0  0  0  1  0  0  0  0  0  0
    8.1640  -12.0350   15.5380 C   0  0  2  0  0  3  0  0  0  0  0  0
    8.2310  -11.5220   14.0910 C   0  0  0  0  0  2  0  0  0  0  0  0
    9.5220  -10.7560   13.7950 C   0  0  0  0  0  2  0  0  0  0  0  0
    9.7650   -9.7310   14.8050 N   0  0  0  0  0  0  0  0  0  0  0  0
    9.8480  -10.2050   16.1830 C   0  0  0  0  0  2  0  0  0  0  0  0
    8.5630  -10.9510   16.5550 C   0  0  0  0  0  2  0  0  0  0  0  0
    9.2540   -8.4550   14.5880 C   0  0  0  0  0  0  0  0  0  0  0  0
    8.2110   -8.3510   13.7390 N   0  0  0  0  0  0  0  0  0  0  0  0
    7.6990   -7.1280   13.5460 C   0  0  0  0  0  3  0  0  0  0  0  0
    8.1170   -5.9960   14.1190 N   0  0  0  0  0  0  0  0  0  0  0  0
    9.1770   -6.1030   14.9330 C   0  0  0  0  0  0  0  0  0  0  0  0
    9.5740   -4.9160   15.5260 N   0  0  0  0  0  0  0  0  0  0  0  0
    9.7840   -7.3230   15.2110 C   0  0  0  0  0  0  0  0  0  0  0  0
   11.3410   -7.3860   16.3080 Br  0  0  0  0  0  0  0  0  0  0  0  0
    9.0460   -4.1110   15.2140 H   0  0  0  0  0  0  0  0  0  0  0  0
   10.5630   -4.7880   15.6970 H   0  0  0  0  0  0  0  0  0  0  0  0
    7.2750  -15.0200   14.9610 C   0  0  0  0  0  2  0  0  0  0  0  0
    7.2000  -16.5530   14.8780 C   0  0  0  0  0  2  0  0  0  0  0  0
    7.0730  -17.0450   13.4700 N   0  0  0  0  0  4  0  0  0  0  0  0
    5.7370  -17.5970   13.1620 C   0  0  0  0  0  2  0  0  0  0  0  0
    5.7850  -16.8260   11.8360 C   0  0  0  0  0  2  0  0  0  0  0  0
    6.8090  -15.9220   12.5370 C   0  0  0  0  0  2  0  0  0  0  0  0
    7.8630  -17.6300   13.1490 H   0  0  0  0  0  0  0  0  0  0  0  0
  1  5  1  0  0  0  0
  1  8  1  0  0  0  0
  2  1  2  0  0  0  0
  3  2  1  0  0  0  0
  3  4  1  0  0  0  0
  4  5  2  0  0  0  0
  6 13  1  0  0  0  0
  7  6  1  0  0  0  0
  8  7  2  0  0  0  0
  9 10  2  0  0  0  0
  9  8  1  0  0  0  0
 10 11  1  0  0  0  0
 11  6  2  0  0  0  0
 12 13  1  0  0  0  0
 13 14  1  0  0  0  0
 15  4  1  6  0  0  0
 15 20  1  0  0  0  0
 16 15  1  0  0  0  0
 17 16  1  0  0  0  0
 17 18  1  0  0  0  0
 18 19  1  0  0  0  0
 19 20  1  0  0  0  0
 21 18  1  0  0  0  0
 21 27  1  0  0  0  0
 22 21  2  0  0  0  0
 23 22  1  0  0  0  0
 23 24  2  0  0  0  0
 24 25  1  0  0  0  0
 25 27  2  0  0  0  0
 25 26  1  0  0  0  0
 26 30  1  0  0  0  0
 27 28  1  0  0  0  0
 29 26  1  0  0  0  0
 31  3  1  0  0  0  0
 32 31  1  0  0  0  0
 33 32  1  0  0  0  0
 34 33  1  0  0  0  0
 35 36  1  0  0  0  0
 35 34  1  0  0  0  0
 36 33  1  0  0  0  0
 37 33  1  0  0  0  0
M  END
>  <minimizedAffinity>
-8.58116436

$$$$
