
 OpenBabel11232418483D

 37 41  0  0  1  0  0  0  0  0999 V2000
    7.0770   -4.4940   10.4410 C   0  0  0  0  0  0  0  0  0  0  0  0
    6.7950   -5.2600    9.3350 C   0  0  0  0  0  3  0  0  0  0  0  0
    7.0430   -6.5550    9.7150 N   0  0  0  0  0  0  0  0  0  0  0  0
    7.3840   -6.5450   11.0510 C   0  0  0  0  0  0  0  0  0  0  0  0
    7.5130   -5.3020   11.4610 N   0  0  0  0  0  0  0  0  0  0  0  0
    6.9890   -1.0170   11.8590 C   0  0  0  0  0  0  0  0  0  0  0  0
    7.0770   -2.4080   11.8050 C   0  0  0  0  0  3  0  0  0  0  0  0
    6.9520   -3.0540   10.5710 C   0  0  0  0  0  0  0  0  0  0  0  0
    6.7500   -2.2790    9.4300 C   0  0  0  0  0  3  0  0  0  0  0  0
    6.6700   -0.9060    9.5690 C   0  0  0  0  0  3  0  0  0  0  0  0
    6.7850   -0.2670   10.7510 N   0  0  0  0  0  0  0  0  0  0  0  0
    6.8210   -1.1980   14.3430 C   0  0  0  0  0  1  0  0  0  0  0  0
    7.2110   -0.2920   13.1730 C   0  0  0  0  0  3  0  0  0  0  0  0
    8.6540    0.1930   13.3260 C   0  0  0  0  0  1  0  0  0  0  0  0
    7.5520   -7.7590   11.9290 C   0  0  2  0  0  3  0  0  0  0  0  0
    7.0410   -7.4780   13.3510 C   0  0  0  0  0  2  0  0  0  0  0  0
    8.0430   -6.6870   14.1930 C   0  0  0  0  0  2  0  0  0  0  0  0
    9.3670   -7.2990   14.1440 N   0  0  0  0  0  0  0  0  0  0  0  0
    9.9450   -7.4530   12.8120 C   0  0  0  0  0  2  0  0  0  0  0  0
    9.0030   -8.2730   11.9260 C   0  0  0  0  0  2  0  0  0  0  0  0
    9.6920   -8.2520   15.1050 C   0  0  0  0  0  0  0  0  0  0  0  0
    9.3650   -9.5320   14.8300 N   0  0  0  0  0  0  0  0  0  0  0  0
    9.6980  -10.4560   15.7410 C   0  0  0  0  0  3  0  0  0  0  0  0
   10.3310  -10.2360   16.8970 N   0  0  0  0  0  0  0  0  0  0  0  0
   10.6200   -8.9580   17.1780 C   0  0  0  0  0  0  0  0  0  0  0  0
   11.2920   -8.7640   18.3740 N   0  0  0  0  0  0  0  0  0  0  0  0
   10.3260   -7.9170   16.3040 C   0  0  0  0  0  0  0  0  0  0  0  0
   10.6860   -6.1150   16.8090 Br  0  0  0  0  0  0  0  0  0  0  0  0
   11.4200   -9.6140   18.9080 H   0  0  0  0  0  0  0  0  0  0  0  0
   11.0960   -7.9160   18.8870 H   0  0  0  0  0  0  0  0  0  0  0  0
    7.0080   -7.6860    8.8100 C   0  0  0  0  0  2  0  0  0  0  0  0
    7.4070   -7.2910    7.3790 C   0  0  0  0  0  2  0  0  0  0  0  0
    7.0150   -8.3230    6.3680 N   0  0  0  0  0  4  0  0  0  0  0  0
    8.1590   -8.8370    5.5850 C   0  0  0  0  0  2  0  0  0  0  0  0
    7.5870  -10.2480    5.7820 C   0  0  0  0  0  2  0  0  0  0  0  0
    6.8680   -9.6570    7.0020 C   0  0  0  0  0  2  0  0  0  0  0  0
    6.1860   -8.0740    5.8040 H   0  0  0  0  0  0  0  0  0  0  0  0
  1  8  1  0  0  0  0
  1  5  1  0  0  0  0
  2  3  1  0  0  0  0
  2  1  2  0  0  0  0
  3  4  1  0  0  0  0
  4  5  2  0  0  0  0
  6 13  1  0  0  0  0
  7  6  1  0  0  0  0
  8  7  2  0  0  0  0
  9 10  2  0  0  0  0
  9  8  1  0  0  0  0
 10 11  1  0  0  0  0
 11  6  2  0  0  0  0
 13 14  1  0  0  0  0
 13 12  1  0  0  0  0
 15  4  1  6  0  0  0
 15 16  1  0  0  0  0
 16 17  1  0  0  0  0
 18 17  1  0  0  0  0
 18 21  1  0  0  0  0
 19 18  1  0  0  0  0
 20 15  1  0  0  0  0
 20 19  1  0  0  0  0
 21 27  1  0  0  0  0
 22 21  2  0  0  0  0
 22 23  1  0  0  0  0
 23 24  2  0  0  0  0
 24 25  1  0  0  0  0
 25 26  1  0  0  0  0
 26 30  1  0  0  0  0
 26 29  1  0  0  0  0
 27 28  1  0  0  0  0
 27 25  2  0  0  0  0
 31  3  1  0  0  0  0
 32 31  1  0  0  0  0
 33 36  1  0  0  0  0
 33 32  1  0  0  0  0
 34 35  1  0  0  0  0
 34 33  1  0  0  0  0
 35 36  1  0  0  0  0
 37 33  1  0  0  0  0
M  END
>  <minimizedAffinity>
-11.1272001

$$$$

 OpenBabel11232418483D

 37 41  0  0  1  0  0  0  0  0999 V2000
    6.7850   -4.8610    9.3810 C   0  0  0  0  0  0  0  0  0  0  0  0
    6.4980   -3.5990    9.8460 C   0  0  0  0  0  3  0  0  0  0  0  0
    7.0230   -3.5490   11.1130 N   0  0  0  0  0  0  0  0  0  0  0  0
    7.6790   -4.7380   11.3450 C   0  0  0  0  0  0  0  0  0  0  0  0
    7.4450   -5.5700   10.3530 N   0  0  0  0  0  0  0  0  0  0  0  0
    6.5350   -7.1740    6.4330 C   0  0  0  0  0  0  0  0  0  0  0  0
    6.9080   -6.6810    7.6820 C   0  0  0  0  0  3  0  0  0  0  0  0
    6.4680   -5.4140    8.0770 C   0  0  0  0  0  0  0  0  0  0  0  0
    5.6590   -4.6870    7.2040 C   0  0  0  0  0  3  0  0  0  0  0  0
    5.3370   -5.2450    5.9810 C   0  0  0  0  0  3  0  0  0  0  0  0
    5.7560   -6.4640    5.5840 N   0  0  0  0  0  0  0  0  0  0  0  0
    8.3410   -8.5800    5.4360 C   0  0  0  0  0  1  0  0  0  0  0  0
    6.9280   -8.5810    6.0230 C   0  0  0  0  0  3  0  0  0  0  0  0
    6.8300   -9.5680    7.1880 C   0  0  0  0  0  1  0  0  0  0  0  0
    8.5600   -5.0440   12.5290 C   0  0  2  0  0  3  0  0  0  0  0  0
    9.7430   -5.9320   12.1140 C   0  0  0  0  0  2  0  0  0  0  0  0
    9.3560   -7.4060   11.9780 C   0  0  0  0  0  2  0  0  0  0  0  0
    8.6460   -7.8720   13.1640 N   0  0  0  0  0  0  0  0  0  0  0  0
    7.4340   -7.1360   13.5080 C   0  0  0  0  0  2  0  0  0  0  0  0
    7.7620   -5.6520   13.6980 C   0  0  0  0  0  2  0  0  0  0  0  0
    9.3870   -8.4230   14.2050 C   0  0  0  0  0  0  0  0  0  0  0  0
   10.2830   -7.6160   14.8090 N   0  0  0  0  0  0  0  0  0  0  0  0
   10.9820   -8.1330   15.8280 C   0  0  0  0  0  3  0  0  0  0  0  0
   10.8750   -9.3740   16.3130 N   0  0  0  0  0  0  0  0  0  0  0  0
   10.0080  -10.1800   15.6840 C   0  0  0  0  0  0  0  0  0  0  0  0
    9.9050  -11.4520   16.2210 N   0  0  0  0  0  0  0  0  0  0  0  0
    9.2250   -9.7480   14.6180 C   0  0  0  0  0  0  0  0  0  0  0  0
    8.0790  -10.9740   13.7160 Br  0  0  0  0  0  0  0  0  0  0  0  0
   10.5490  -11.6230   16.9830 H   0  0  0  0  0  0  0  0  0  0  0  0
    9.7250  -12.2150   15.5820 H   0  0  0  0  0  0  0  0  0  0  0  0
    6.8280   -2.4410   12.0270 C   0  0  0  0  0  2  0  0  0  0  0  0
    7.8550   -1.3210   11.8010 C   0  0  0  0  0  2  0  0  0  0  0  0
    8.5930   -0.9580   13.0520 N   0  0  0  0  0  4  0  0  0  0  0  0
    8.1020    0.2870   13.6790 C   0  0  0  0  0  2  0  0  0  0  0  0
    8.1700   -0.4350   15.0320 C   0  0  0  0  0  2  0  0  0  0  0  0
    8.0810   -1.7290   14.2120 C   0  0  0  0  0  2  0  0  0  0  0  0
    9.6220   -1.0230   12.9750 H   0  0  0  0  0  0  0  0  0  0  0  0
  1  2  2  0  0  0  0
  1  5  1  0  0  0  0
  2  3  1  0  0  0  0
  3  4  1  0  0  0  0
  3 31  1  0  0  0  0
  5  4  2  0  0  0  0
  6  7  1  0  0  0  0
  7  8  2  0  0  0  0
  8  1  1  0  0  0  0
  9  8  1  0  0  0  0
 10  9  2  0  0  0  0
 11 10  1  0  0  0  0
 11  6  2  0  0  0  0
 12 13  1  0  0  0  0
 13  6  1  0  0  0  0
 13 14  1  0  0  0  0
 15  4  1  6  0  0  0
 15 20  1  0  0  0  0
 16 15  1  0  0  0  0
 17 16  1  0  0  0  0
 17 18  1  0  0  0  0
 18 19  1  0  0  0  0
 18 21  1  0  0  0  0
 19 20  1  0  0  0  0
 21 27  2  0  0  0  0
 21 22  1  0  0  0  0
 22 23  2  0  0  0  0
 23 24  1  0  0  0  0
 25 26  1  0  0  0  0
 25 24  2  0  0  0  0
 26 29  1  0  0  0  0
 27 25  1  0  0  0  0
 28 27  1  0  0  0  0
 30 26  1  0  0  0  0
 32 31  1  0  0  0  0
 32 33  1  0  0  0  0
 33 34  1  0  0  0  0
 33 36  1  0  0  0  0
 34 35  1  0  0  0  0
 36 35  1  0  0  0  0
 37 33  1  0  0  0  0
M  END
>  <minimizedAffinity>
-10.9572268

$$$$

 OpenBabel11232418483D

 37 41  0  0  1  0  0  0  0  0999 V2000
    6.9430   -4.9680    9.4390 C   0  0  0  0  0  0  0  0  0  0  0  0
    6.6860   -3.6850    9.8620 C   0  0  0  0  0  3  0  0  0  0  0  0
    7.1680   -3.6210   11.1450 N   0  0  0  0  0  0  0  0  0  0  0  0
    7.7720   -4.8270   11.4300 C   0  0  0  0  0  0  0  0  0  0  0  0
    7.5430   -5.6740   10.4500 N   0  0  0  0  0  0  0  0  0  0  0  0
    5.9230   -5.3740    5.8470 C   0  0  0  0  0  0  0  0  0  0  0  0
    6.1430   -4.7740    7.0860 C   0  0  0  0  0  3  0  0  0  0  0  0
    6.6520   -5.5420    8.1380 C   0  0  0  0  0  0  0  0  0  0  0  0
    6.9300   -6.8890    7.9060 C   0  0  0  0  0  3  0  0  0  0  0  0
    6.6810   -7.4090    6.6500 C   0  0  0  0  0  3  0  0  0  0  0  0
    6.1870   -6.6830    5.6260 N   0  0  0  0  0  0  0  0  0  0  0  0
    3.9660   -4.7760    4.4180 C   0  0  0  0  0  1  0  0  0  0  0  0
    5.4560   -4.5380    4.6700 C   0  0  0  0  0  3  0  0  0  0  0  0
    5.7360   -3.0480    4.8760 C   0  0  0  0  0  1  0  0  0  0  0  0
    8.6000   -5.1330   12.6520 C   0  0  2  0  0  3  0  0  0  0  0  0
    9.8480   -5.9460   12.2750 C   0  0  0  0  0  2  0  0  0  0  0  0
    9.5460   -7.4310   12.0650 C   0  0  0  0  0  2  0  0  0  0  0  0
    8.7950   -7.9760   13.1910 N   0  0  0  0  0  0  0  0  0  0  0  0
    7.5290   -7.3130   13.4900 C   0  0  0  0  0  2  0  0  0  0  0  0
    7.7700   -5.8230   13.7500 C   0  0  0  0  0  2  0  0  0  0  0  0
    9.5040   -8.5280   14.2540 C   0  0  0  0  0  0  0  0  0  0  0  0
   10.3590   -7.7140   14.9060 N   0  0  0  0  0  0  0  0  0  0  0  0
   11.0260   -8.2330   15.9450 C   0  0  0  0  0  3  0  0  0  0  0  0
   10.9230   -9.4830   16.4070 N   0  0  0  0  0  0  0  0  0  0  0  0
   10.0970  -10.2950   15.7320 C   0  0  0  0  0  0  0  0  0  0  0  0
    9.9970  -11.5770   16.2470 N   0  0  0  0  0  0  0  0  0  0  0  0
    9.3500   -9.8620   14.6410 C   0  0  0  0  0  0  0  0  0  0  0  0
    8.2660  -11.0950   13.6760 Br  0  0  0  0  0  0  0  0  0  0  0  0
   10.6130  -11.7480   17.0310 H   0  0  0  0  0  0  0  0  0  0  0  0
    9.8570  -12.3330   15.5900 H   0  0  0  0  0  0  0  0  0  0  0  0
    6.9820   -2.4840   12.0240 C   0  0  0  0  0  2  0  0  0  0  0  0
    7.1960   -1.1500   11.2930 C   0  0  0  0  0  2  0  0  0  0  0  0
    7.5720   -0.0390   12.2230 N   0  0  0  0  0  4  0  0  0  0  0  0
    7.2640   -0.3330   13.6380 C   0  0  0  0  0  2  0  0  0  0  0  0
    8.6460    0.2320   13.9980 C   0  0  0  0  0  2  0  0  0  0  0  0
    9.0200   -0.0820   12.5430 C   0  0  0  0  0  2  0  0  0  0  0  0
    7.2780    0.9010   11.9070 H   0  0  0  0  0  0  0  0  0  0  0  0
  1  2  2  0  0  0  0
  1  5  1  0  0  0  0
  2  3  1  0  0  0  0
  3  4  1  0  0  0  0
  3 31  1  0  0  0  0
  5  4  2  0  0  0  0
  6  7  1  0  0  0  0
  7  8  2  0  0  0  0
  8  1  1  0  0  0  0
  9  8  1  0  0  0  0
 10  9  2  0  0  0  0
 11  6  2  0  0  0  0
 11 10  1  0  0  0  0
 12 13  1  0  0  0  0
 13 14  1  0  0  0  0
 13  6  1  0  0  0  0
 15  4  1  6  0  0  0
 15 20  1  0  0  0  0
 16 15  1  0  0  0  0
 17 16  1  0  0  0  0
 17 18  1  0  0  0  0
 18 19  1  0  0  0  0
 18 21  1  0  0  0  0
 19 20  1  0  0  0  0
 21 27  2  0  0  0  0
 21 22  1  0  0  0  0
 22 23  2  0  0  0  0
 23 24  1  0  0  0  0
 25 26  1  0  0  0  0
 25 24  2  0  0  0  0
 26 29  1  0  0  0  0
 27 25  1  0  0  0  0
 28 27  1  0  0  0  0
 30 26  1  0  0  0  0
 32 31  1  0  0  0  0
 32 33  1  0  0  0  0
 33 36  1  0  0  0  0
 33 34  1  0  0  0  0
 34 35  1  0  0  0  0
 36 35  1  0  0  0  0
 37 33  1  0  0  0  0
M  END
>  <minimizedAffinity>
-10.6096601

$$$$

 OpenBabel11232418483D

 37 41  0  0  1  0  0  0  0  0999 V2000
    7.1690   -4.9000   11.1020 C   0  0  0  0  0  0  0  0  0  0  0  0
    6.8380   -5.5360    9.9270 C   0  0  0  0  0  3  0  0  0  0  0  0
    7.0980   -6.8650   10.1460 N   0  0  0  0  0  0  0  0  0  0  0  0
    7.4940   -7.0070   11.4590 C   0  0  0  0  0  0  0  0  0  0  0  0
    7.6440   -5.8190   12.0030 N   0  0  0  0  0  0  0  0  0  0  0  0
    6.9190   -1.1700   10.7450 C   0  0  0  0  0  0  0  0  0  0  0  0
    7.0780   -2.5110   10.3980 C   0  0  0  0  0  3  0  0  0  0  0  0
    7.0530   -3.4850   11.4010 C   0  0  0  0  0  0  0  0  0  0  0  0
    6.8630   -3.0780   12.7210 C   0  0  0  0  0  3  0  0  0  0  0  0
    6.7180   -1.7280   12.9820 C   0  0  0  0  0  3  0  0  0  0  0  0
    6.7430   -0.7760   12.0270 N   0  0  0  0  0  0  0  0  0  0  0  0
    5.4100    0.3630    9.4790 C   0  0  0  0  0  1  0  0  0  0  0  0
    6.8540   -0.1080    9.6640 C   0  0  0  0  0  3  0  0  0  0  0  0
    7.7720    1.0790    9.9660 C   0  0  0  0  0  1  0  0  0  0  0  0
    7.6960   -8.3130   12.1840 C   0  0  2  0  0  3  0  0  0  0  0  0
    6.9710   -8.3020   13.5390 C   0  0  0  0  0  2  0  0  0  0  0  0
    7.7470   -7.5440   14.6170 C   0  0  0  0  0  2  0  0  0  0  0  0
    9.1320   -7.9990   14.6840 N   0  0  0  0  0  0  0  0  0  0  0  0
    9.8950   -7.8920   13.4440 C   0  0  0  0  0  2  0  0  0  0  0  0
    9.1870   -8.6670   12.3280 C   0  0  0  0  0  2  0  0  0  0  0  0
    9.4440   -9.0440   15.5480 C   0  0  0  0  0  0  0  0  0  0  0  0
    8.9150  -10.2520   15.2610 N   0  0  0  0  0  0  0  0  0  0  0  0
    9.2320  -11.2670   16.0760 C   0  0  0  0  0  3  0  0  0  0  0  0
   10.0300  -11.2030   17.1460 N   0  0  0  0  0  0  0  0  0  0  0  0
   10.5220   -9.9930   17.4440 C   0  0  0  0  0  0  0  0  0  0  0  0
   11.3600   -9.9630   18.5470 N   0  0  0  0  0  0  0  0  0  0  0  0
   10.2640   -8.8690   16.6650 C   0  0  0  0  0  0  0  0  0  0  0  0
   10.9250   -7.1640   17.2000 Br  0  0  0  0  0  0  0  0  0  0  0  0
   11.4390  -10.8540   19.0200 H   0  0  0  0  0  0  0  0  0  0  0  0
   11.3470   -9.1300   19.1200 H   0  0  0  0  0  0  0  0  0  0  0  0
    7.0210   -7.8850    9.1190 C   0  0  0  0  0  2  0  0  0  0  0  0
    7.4290   -7.3440    7.7400 C   0  0  0  0  0  2  0  0  0  0  0  0
    6.9740   -8.2280    6.6200 N   0  0  0  0  0  4  0  0  0  0  0  0
    8.0700   -8.6330    5.7140 C   0  0  0  0  0  2  0  0  0  0  0  0
    7.4950  -10.0560    5.7470 C   0  0  0  0  0  2  0  0  0  0  0  0
    6.8460   -9.6340    7.0730 C   0  0  0  0  0  2  0  0  0  0  0  0
    6.1190   -7.9010    6.1400 H   0  0  0  0  0  0  0  0  0  0  0  0
  1  8  1  0  0  0  0
  1  5  1  0  0  0  0
  2  3  1  0  0  0  0
  2  1  2  0  0  0  0
  3  4  1  0  0  0  0
  4  5  2  0  0  0  0
  6 11  1  0  0  0  0
  7  6  2  0  0  0  0
  7  8  1  0  0  0  0
  8  9  2  0  0  0  0
  9 10  1  0  0  0  0
 11 10  2  0  0  0  0
 12 13  1  0  0  0  0
 13 14  1  0  0  0  0
 13  6  1  0  0  0  0
 15  4  1  1  0  0  0
 15 20  1  0  0  0  0
 15 16  1  0  0  0  0
 16 17  1  0  0  0  0
 17 18  1  0  0  0  0
 18 21  1  0  0  0  0
 19 18  1  0  0  0  0
 20 19  1  0  0  0  0
 21 27  1  0  0  0  0
 22 21  2  0  0  0  0
 22 23  1  0  0  0  0
 23 24  2  0  0  0  0
 24 25  1  0  0  0  0
 25 26  1  0  0  0  0
 26 29  1  0  0  0  0
 26 30  1  0  0  0  0
 27 28  1  0  0  0  0
 27 25  2  0  0  0  0
 31  3  1  0  0  0  0
 32 31  1  0  0  0  0
 33 36  1  0  0  0  0
 33 32  1  0  0  0  0
 34 35  1  0  0  0  0
 34 33  1  0  0  0  0
 35 36  1  0  0  0  0
 37 33  1  0  0  0  0
M  END
>  <minimizedAffinity>
-10.555439

$$$$

 OpenBabel11232418483D

 37 41  0  0  1  0  0  0  0  0999 V2000
    8.1440   -7.2730   14.2960 C   0  0  0  0  0  0  0  0  0  0  0  0
    7.8370   -8.2410   13.3690 C   0  0  0  0  0  3  0  0  0  0  0  0
    6.9700   -7.6420   12.4900 N   0  0  0  0  0  0  0  0  0  0  0  0
    6.8430   -6.3200   12.8580 C   0  0  0  0  0  0  0  0  0  0  0  0
    7.4580   -6.1220   14.0040 N   0  0  0  0  0  0  0  0  0  0  0  0
   10.3500   -8.6800   16.9900 C   0  0  0  0  0  0  0  0  0  0  0  0
    9.4480   -8.6330   15.9280 C   0  0  0  0  0  3  0  0  0  0  0  0
    9.0450   -7.3910   15.4280 C   0  0  0  0  0  0  0  0  0  0  0  0
    9.5690   -6.2360   16.0090 C   0  0  0  0  0  3  0  0  0  0  0  0
   10.4550   -6.3690   17.0610 C   0  0  0  0  0  3  0  0  0  0  0  0
   10.8510   -7.5590   17.5580 N   0  0  0  0  0  0  0  0  0  0  0  0
   11.8800   -9.8000   18.6150 C   0  0  0  0  0  1  0  0  0  0  0  0
   10.8680  -10.0170   17.4880 C   0  0  0  0  0  3  0  0  0  0  0  0
    9.7350  -10.9360   17.9520 C   0  0  0  0  0  1  0  0  0  0  0  0
    6.1420   -5.2460   12.0650 C   0  0  2  0  0  3  0  0  0  0  0  0
    6.9200   -4.9220   10.7800 C   0  0  0  0  0  2  0  0  0  0  0  0
    8.1180   -4.0040   11.0290 C   0  0  0  0  0  2  0  0  0  0  0  0
    7.7260   -2.8310   11.8020 N   0  0  0  0  0  0  0  0  0  0  0  0
    7.1090   -3.1010   13.0970 C   0  0  0  0  0  2  0  0  0  0  0  0
    5.8740   -3.9890   12.9110 C   0  0  0  0  0  2  0  0  0  0  0  0
    7.3160   -1.6920   11.1150 C   0  0  0  0  0  0  0  0  0  0  0  0
    6.5060   -1.8790   10.0530 N   0  0  0  0  0  0  0  0  0  0  0  0
    6.0890   -0.7850    9.4020 C   0  0  0  0  0  3  0  0  0  0  0  0
    6.3910    0.4800    9.7060 N   0  0  0  0  0  0  0  0  0  0  0  0
    7.2250    0.6550   10.7410 C   0  0  0  0  0  0  0  0  0  0  0  0
    7.5040    1.9780   11.0440 N   0  0  0  0  0  0  0  0  0  0  0  0
    7.7160   -0.4080   11.4920 C   0  0  0  0  0  0  0  0  0  0  0  0
    8.9670   -0.0900   12.8940 Br  0  0  0  0  0  0  0  0  0  0  0  0
    7.0870    2.6370   10.3990 H   0  0  0  0  0  0  0  0  0  0  0  0
    8.4270    2.1900   11.3970 H   0  0  0  0  0  0  0  0  0  0  0  0
    6.2820   -8.3450   11.4250 C   0  0  0  0  0  2  0  0  0  0  0  0
    7.1810   -8.5480   10.1950 C   0  0  0  0  0  2  0  0  0  0  0  0
    6.5110   -8.1400    8.9200 N   0  0  0  0  0  4  0  0  0  0  0  0
    7.3730   -7.3200    8.0440 C   0  0  0  0  0  2  0  0  0  0  0  0
    6.8880   -8.1740    6.8640 C   0  0  0  0  0  2  0  0  0  0  0  0
    6.5600   -9.2360    7.9210 C   0  0  0  0  0  2  0  0  0  0  0  0
    5.5500   -7.7760    9.0410 H   0  0  0  0  0  0  0  0  0  0  0  0
  1  8  1  0  0  0  0
  2  1  2  0  0  0  0
  3  4  1  0  0  0  0
  3  2  1  0  0  0  0
  4  5  2  0  0  0  0
  5  1  1  0  0  0  0
  6 13  1  0  0  0  0
  6 11  1  0  0  0  0
  7  6  2  0  0  0  0
  8  7  1  0  0  0  0
  8  9  2  0  0  0  0
  9 10  1  0  0  0  0
 10 11  2  0  0  0  0
 13 14  1  0  0  0  0
 13 12  1  0  0  0  0
 15  4  1  1  0  0  0
 15 20  1  0  0  0  0
 16 17  1  0  0  0  0
 16 15  1  0  0  0  0
 17 18  1  0  0  0  0
 18 19  1  0  0  0  0
 20 19  1  0  0  0  0
 21 27  1  0  0  0  0
 21 18  1  0  0  0  0
 22 21  2  0  0  0  0
 23 24  2  0  0  0  0
 23 22  1  0  0  0  0
 24 25  1  0  0  0  0
 25 26  1  0  0  0  0
 25 27  2  0  0  0  0
 26 30  1  0  0  0  0
 27 28  1  0  0  0  0
 29 26  1  0  0  0  0
 31  3  1  0  0  0  0
 32 31  1  0  0  0  0
 33 37  1  0  0  0  0
 33 32  1  0  0  0  0
 34 33  1  0  0  0  0
 35 36  1  0  0  0  0
 35 34  1  0  0  0  0
 36 33  1  0  0  0  0
M  END
>  <minimizedAffinity>
-9.49141788

$$$$

 OpenBabel11232418483D

 37 41  0  0  1  0  0  0  0  0999 V2000
    6.4790   -4.3610    9.0650 C   0  0  0  0  0  0  0  0  0  0  0  0
    6.6930   -3.0120    9.2280 C   0  0  0  0  0  3  0  0  0  0  0  0
    6.8330   -2.8260   10.5800 N   0  0  0  0  0  0  0  0  0  0  0  0
    6.7840   -4.0640   11.1830 C   0  0  0  0  0  0  0  0  0  0  0  0
    6.4620   -4.9750   10.2910 N   0  0  0  0  0  0  0  0  0  0  0  0
    6.4550   -7.0600    6.4540 C   0  0  0  0  0  0  0  0  0  0  0  0
    6.6980   -6.4100    7.6630 C   0  0  0  0  0  3  0  0  0  0  0  0
    6.2960   -5.0800    7.8170 C   0  0  0  0  0  0  0  0  0  0  0  0
    5.6560   -4.4490    6.7510 C   0  0  0  0  0  3  0  0  0  0  0  0
    5.4570   -5.1620    5.5840 C   0  0  0  0  0  3  0  0  0  0  0  0
    5.8410   -6.4440    5.4170 N   0  0  0  0  0  0  0  0  0  0  0  0
    8.2160   -8.6750    5.7300 C   0  0  0  0  0  1  0  0  0  0  0  0
    6.8030   -8.5290    6.2970 C   0  0  0  0  0  3  0  0  0  0  0  0
    6.6710   -9.2950    7.6160 C   0  0  0  0  0  1  0  0  0  0  0  0
    7.0850   -4.3520   12.6330 C   0  0  2  0  0  3  0  0  0  0  0  0
    8.5980   -4.2970   12.8970 C   0  0  0  0  0  2  0  0  0  0  0  0
    9.3210   -5.5710   12.4580 C   0  0  0  0  0  2  0  0  0  0  0  0
    8.6640   -6.7570   12.9940 N   0  0  0  0  0  0  0  0  0  0  0  0
    7.2560   -6.9160   12.6440 C   0  0  0  0  0  2  0  0  0  0  0  0
    6.4650   -5.6830   13.0940 C   0  0  0  0  0  2  0  0  0  0  0  0
    9.0830   -7.2460   14.2290 C   0  0  0  0  0  0  0  0  0  0  0  0
    9.0020   -6.4010   15.2780 N   0  0  0  0  0  0  0  0  0  0  0  0
    9.3810   -6.8730   16.4730 C   0  0  0  0  0  3  0  0  0  0  0  0
    9.8270   -8.1060   16.7320 N   0  0  0  0  0  0  0  0  0  0  0  0
    9.9370   -8.9270   15.6780 C   0  0  0  0  0  0  0  0  0  0  0  0
   10.3830  -10.2030   15.9810 N   0  0  0  0  0  0  0  0  0  0  0  0
    9.5680   -8.5450   14.3920 C   0  0  0  0  0  0  0  0  0  0  0  0
    9.8360   -9.7350   12.9290 Br  0  0  0  0  0  0  0  0  0  0  0  0
   10.6270  -10.3250   16.9560 H   0  0  0  0  0  0  0  0  0  0  0  0
   10.9580  -10.6710   15.2940 H   0  0  0  0  0  0  0  0  0  0  0  0
    6.9370   -1.5250   11.2120 C   0  0  0  0  0  2  0  0  0  0  0  0
    7.6600   -0.5070   10.3160 C   0  0  0  0  0  2  0  0  0  0  0  0
    6.7130    0.4240    9.6250 N   0  0  0  0  0  4  0  0  0  0  0  0
    5.9430   -0.2230    8.5420 C   0  0  0  0  0  2  0  0  0  0  0  0
    4.6960    0.4950    9.0760 C   0  0  0  0  0  2  0  0  0  0  0  0
    5.4600    0.5800   10.4040 C   0  0  0  0  0  2  0  0  0  0  0  0
    7.1220    1.3400    9.3730 H   0  0  0  0  0  0  0  0  0  0  0  0
  1  2  2  0  0  0  0
  1  5  1  0  0  0  0
  2  3  1  0  0  0  0
  3  4  1  0  0  0  0
  3 31  1  0  0  0  0
  5  4  2  0  0  0  0
  6  7  1  0  0  0  0
  7  8  2  0  0  0  0
  8  1  1  0  0  0  0
  9  8  1  0  0  0  0
 10  9  2  0  0  0  0
 11 10  1  0  0  0  0
 11  6  2  0  0  0  0
 12 13  1  0  0  0  0
 13  6  1  0  0  0  0
 13 14  1  0  0  0  0
 15  4  1  6  0  0  0
 15 16  1  0  0  0  0
 15 20  1  0  0  0  0
 17 16  1  0  0  0  0
 17 18  1  0  0  0  0
 18 21  1  0  0  0  0
 19 18  1  0  0  0  0
 19 20  1  0  0  0  0
 21 27  2  0  0  0  0
 21 22  1  0  0  0  0
 22 23  2  0  0  0  0
 23 24  1  0  0  0  0
 25 26  1  0  0  0  0
 25 24  2  0  0  0  0
 26 29  1  0  0  0  0
 27 25  1  0  0  0  0
 28 27  1  0  0  0  0
 30 26  1  0  0  0  0
 32 31  1  0  0  0  0
 33 32  1  0  0  0  0
 33 36  1  0  0  0  0
 34 35  1  0  0  0  0
 34 33  1  0  0  0  0
 35 36  1  0  0  0  0
 37 33  1  0  0  0  0
M  END
>  <minimizedAffinity>
-9.29603672

$$$$

 OpenBabel11232418483D

 37 41  0  0  1  0  0  0  0  0999 V2000
    9.2670   -9.2970   15.2330 C   0  0  0  0  0  0  0  0  0  0  0  0
    8.7180  -10.5470   15.0660 C   0  0  0  0  0  3  0  0  0  0  0  0
    7.9640  -10.4640   13.9220 N   0  0  0  0  0  0  0  0  0  0  0  0
    8.1420   -9.2050   13.3900 C   0  0  0  0  0  0  0  0  0  0  0  0
    8.8340   -8.4670   14.2300 N   0  0  0  0  0  0  0  0  0  0  0  0
   11.3350   -7.1590   17.5260 C   0  0  0  0  0  0  0  0  0  0  0  0
   10.4940   -7.5170   16.4720 C   0  0  0  0  0  3  0  0  0  0  0  0
   10.1700   -8.8630   16.2830 C   0  0  0  0  0  0  0  0  0  0  0  0
   10.6960   -9.8070   17.1650 C   0  0  0  0  0  3  0  0  0  0  0  0
   11.5250   -9.3710   18.1820 C   0  0  0  0  0  3  0  0  0  0  0  0
   11.8510   -8.0770   18.3760 N   0  0  0  0  0  0  0  0  0  0  0  0
   10.4800   -4.8260   17.2830 C   0  0  0  0  0  1  0  0  0  0  0  0
   11.6270   -5.6960   17.8020 C   0  0  0  0  0  3  0  0  0  0  0  0
   11.8730   -5.4290   19.2890 C   0  0  0  0  0  1  0  0  0  0  0  0
    7.6550   -8.7410   12.0400 C   0  0  2  0  0  3  0  0  0  0  0  0
    8.7520   -7.9520   11.3080 C   0  0  0  0  0  2  0  0  0  0  0  0
    8.8710   -6.5090   11.8000 C   0  0  0  0  0  2  0  0  0  0  0  0
    7.5690   -5.8510   11.8130 N   0  0  0  0  0  0  0  0  0  0  0  0
    6.5380   -6.5000   12.6170 C   0  0  0  0  0  2  0  0  0  0  0  0
    6.3420   -7.9450   12.1450 C   0  0  0  0  0  2  0  0  0  0  0  0
    7.1630   -5.1630   10.6730 C   0  0  0  0  0  0  0  0  0  0  0  0
    6.8490   -5.9070    9.5910 N   0  0  0  0  0  0  0  0  0  0  0  0
    6.4350   -5.2510    8.4990 C   0  0  0  0  0  3  0  0  0  0  0  0
    6.2950   -3.9290    8.3750 N   0  0  0  0  0  0  0  0  0  0  0  0
    6.6420   -3.1960    9.4420 C   0  0  0  0  0  0  0  0  0  0  0  0
    6.4680   -1.8300    9.2890 N   0  0  0  0  0  0  0  0  0  0  0  0
    7.0800   -3.7700   10.6310 C   0  0  0  0  0  0  0  0  0  0  0  0
    7.6420   -2.6620   12.0760 Br  0  0  0  0  0  0  0  0  0  0  0  0
    6.1580   -1.5630    8.3640 H   0  0  0  0  0  0  0  0  0  0  0  0
    7.1270   -1.2210    9.7550 H   0  0  0  0  0  0  0  0  0  0  0  0
    7.0960  -11.5230   13.4470 C   0  0  0  0  0  2  0  0  0  0  0  0
    6.4530  -12.3030   14.6040 C   0  0  0  0  0  2  0  0  0  0  0  0
    6.6260  -13.7840   14.4640 N   0  0  0  0  0  4  0  0  0  0  0  0
    7.1490  -14.1870   13.1420 C   0  0  0  0  0  2  0  0  0  0  0  0
    8.0990  -15.1470   13.8730 C   0  0  0  0  0  2  0  0  0  0  0  0
    7.8960  -14.2310   15.0870 C   0  0  0  0  0  2  0  0  0  0  0  0
    5.8210  -14.3410   14.7950 H   0  0  0  0  0  0  0  0  0  0  0  0
  1  8  1  0  0  0  0
  2  1  2  0  0  0  0
  3  2  1  0  0  0  0
  4  3  1  0  0  0  0
  4  5  2  0  0  0  0
  5  1  1  0  0  0  0
  6 13  1  0  0  0  0
  6 11  1  0  0  0  0
  7  6  2  0  0  0  0
  8  7  1  0  0  0  0
  8  9  2  0  0  0  0
  9 10  1  0  0  0  0
 10 11  2  0  0  0  0
 12 13  1  0  0  0  0
 13 14  1  0  0  0  0
 15 20  1  0  0  0  0
 15  4  1  1  0  0  0
 16 17  1  0  0  0  0
 16 15  1  0  0  0  0
 17 18  1  0  0  0  0
 18 19  1  0  0  0  0
 20 19  1  0  0  0  0
 21 18  1  0  0  0  0
 22 21  2  0  0  0  0
 23 22  1  0  0  0  0
 24 23  2  0  0  0  0
 24 25  1  0  0  0  0
 25 27  2  0  0  0  0
 26 25  1  0  0  0  0
 26 30  1  0  0  0  0
 27 21  1  0  0  0  0
 27 28  1  0  0  0  0
 29 26  1  0  0  0  0
 31  3  1  0  0  0  0
 31 32  1  0  0  0  0
 33 32  1  0  0  0  0
 33 37  1  0  0  0  0
 33 36  1  0  0  0  0
 34 35  1  0  0  0  0
 34 33  1  0  0  0  0
 35 36  1  0  0  0  0
M  END
>  <minimizedAffinity>
-8.92936134

$$$$

 OpenBabel11232418483D

 37 41  0  0  1  0  0  0  0  0999 V2000
   10.1230  -14.8530   16.2660 C   0  0  0  0  0  0  0  0  0  0  0  0
    9.4960  -15.1370   15.0750 C   0  0  0  0  0  3  0  0  0  0  0  0
    8.7510  -14.0230   14.7800 N   0  0  0  0  0  0  0  0  0  0  0  0
    9.0090  -13.0750   15.7460 C   0  0  0  0  0  0  0  0  0  0  0  0
    9.7450  -13.6070   16.6970 N   0  0  0  0  0  0  0  0  0  0  0  0
   13.1200  -16.9110   17.2050 C   0  0  0  0  0  0  0  0  0  0  0  0
   12.2520  -16.1370   16.4360 C   0  0  0  0  0  3  0  0  0  0  0  0
   11.0490  -15.6970   16.9980 C   0  0  0  0  0  0  0  0  0  0  0  0
   10.7630  -16.0430   18.3180 C   0  0  0  0  0  3  0  0  0  0  0  0
   11.6750  -16.8160   19.0110 C   0  0  0  0  0  3  0  0  0  0  0  0
   12.8370  -17.2530   18.4840 N   0  0  0  0  0  0  0  0  0  0  0  0
   15.1360  -16.1320   15.9560 C   0  0  0  0  0  1  0  0  0  0  0  0
   14.4690  -17.3240   16.6450 C   0  0  0  0  0  3  0  0  0  0  0  0
   15.3860  -17.9050   17.7230 C   0  0  0  0  0  1  0  0  0  0  0  0
    8.5560  -11.6370   15.7150 C   0  0  2  0  0  3  0  0  0  0  0  0
    9.3890  -10.8250   14.7110 C   0  0  0  0  0  2  0  0  0  0  0  0
   10.7550  -10.4190   15.2670 C   0  0  0  0  0  2  0  0  0  0  0  0
   10.6200   -9.7920   16.5780 N   0  0  0  0  0  0  0  0  0  0  0  0
    9.9570  -10.5950   17.6000 C   0  0  0  0  0  2  0  0  0  0  0  0
    8.5610  -11.0030   17.1180 C   0  0  0  0  0  2  0  0  0  0  0  0
   10.4650   -8.4100   16.6380 C   0  0  0  0  0  0  0  0  0  0  0  0
    9.6590   -7.8460   15.7150 N   0  0  0  0  0  0  0  0  0  0  0  0
    9.4870   -6.5190   15.7830 C   0  0  0  0  0  3  0  0  0  0  0  0
   10.0310   -5.6960   16.6830 N   0  0  0  0  0  0  0  0  0  0  0  0
   10.8590   -6.2590   17.5740 C   0  0  0  0  0  0  0  0  0  0  0  0
   11.3930   -5.3830   18.5050 N   0  0  0  0  0  0  0  0  0  0  0  0
   11.1080   -7.6280   17.6010 C   0  0  0  0  0  0  0  0  0  0  0  0
   12.3650   -8.3460   18.8390 Br  0  0  0  0  0  0  0  0  0  0  0  0
   11.1330   -4.4180   18.3470 H   0  0  0  0  0  0  0  0  0  0  0  0
   12.3320   -5.5660   18.8330 H   0  0  0  0  0  0  0  0  0  0  0  0
    7.8180  -13.9430   13.6730 C   0  0  0  0  0  2  0  0  0  0  0  0
    7.6650  -15.2910   12.9510 C   0  0  0  0  0  2  0  0  0  0  0  0
    6.3970  -15.9980   13.3160 N   0  0  0  0  0  4  0  0  0  0  0  0
    5.8050  -16.7530   12.1930 C   0  0  0  0  0  2  0  0  0  0  0  0
    5.5640  -17.9100   13.1720 C   0  0  0  0  0  2  0  0  0  0  0  0
    6.6850  -17.2780   14.0080 C   0  0  0  0  0  2  0  0  0  0  0  0
    5.7240  -15.4190   13.8480 H   0  0  0  0  0  0  0  0  0  0  0  0
  1  5  1  0  0  0  0
  1  8  1  0  0  0  0
  2  1  2  0  0  0  0
  3  2  1  0  0  0  0
  3  4  1  0  0  0  0
  4  5  2  0  0  0  0
  6 11  1  0  0  0  0
  7  8  1  0  0  0  0
  7  6  2  0  0  0  0
  8  9  2  0  0  0  0
  9 10  1  0  0  0  0
 11 10  2  0  0  0  0
 12 13  1  0  0  0  0
 13  6  1  0  0  0  0
 13 14  1  0  0  0  0
 15  4  1  1  0  0  0
 15 20  1  0  0  0  0
 16 17  1  0  0  0  0
 16 15  1  0  0  0  0
 17 18  1  0  0  0  0
 18 21  1  0  0  0  0
 18 19  1  0  0  0  0
 20 19  1  0  0  0  0
 21 27  1  0  0  0  0
 22 23  1  0  0  0  0
 22 21  2  0  0  0  0
 23 24  2  0  0  0  0
 24 25  1  0  0  0  0
 25 27  2  0  0  0  0
 25 26  1  0  0  0  0
 26 30  1  0  0  0  0
 27 28  1  0  0  0  0
 29 26  1  0  0  0  0
 31  3  1  0  0  0  0
 32 33  1  0  0  0  0
 32 31  1  0  0  0  0
 33 37  1  0  0  0  0
 33 36  1  0  0  0  0
 34 35  1  0  0  0  0
 34 33  1  0  0  0  0
 35 36  1  0  0  0  0
M  END
>  <minimizedAffinity>
-8.71452713

$$$$

 OpenBabel11232418483D

 37 41  0  0  1  0  0  0  0  0999 V2000
   10.6880  -14.5920   15.9730 C   0  0  0  0  0  0  0  0  0  0  0  0
    9.6880  -15.3840   15.4580 C   0  0  0  0  0  3  0  0  0  0  0  0
    8.5970  -14.5610   15.3380 N   0  0  0  0  0  0  0  0  0  0  0  0
    8.9850  -13.2890   15.6990 C   0  0  0  0  0  0  0  0  0  0  0  0
   10.2070  -13.3250   16.1860 N   0  0  0  0  0  0  0  0  0  0  0  0
   13.7120  -16.5540   17.0270 C   0  0  0  0  0  0  0  0  0  0  0  0
   12.3740  -16.2250   16.8100 C   0  0  0  0  0  3  0  0  0  0  0  0
   12.0570  -14.9780   16.2640 C   0  0  0  0  0  0  0  0  0  0  0  0
   13.0960  -14.1030   15.9490 C   0  0  0  0  0  3  0  0  0  0  0  0
   14.3950  -14.5030   16.2000 C   0  0  0  0  0  3  0  0  0  0  0  0
   14.7190  -15.7010   16.7280 N   0  0  0  0  0  0  0  0  0  0  0  0
   15.5940  -18.1450   17.4240 C   0  0  0  0  0  1  0  0  0  0  0  0
   14.0820  -17.9350   17.5340 C   0  0  0  0  0  3  0  0  0  0  0  0
   13.6100  -18.1660   18.9720 C   0  0  0  0  0  1  0  0  0  0  0  0
    8.1640  -12.0350   15.5380 C   0  0  2  0  0  3  0  0  0  0  0  0
    8.2310  -11.5220   14.0910 C   0  0  0  0  0  2  0  0  0  0  0  0
    9.5220  -10.7560   13.7950 C   0  0  0  0  0  2  0  0  0  0  0  0
    9.7650   -9.7310   14.8050 N   0  0  0  0  0  0  0  0  0  0  0  0
    9.8480  -10.2050   16.1830 C   0  0  0  0  0  2  0  0  0  0  0  0
    8.5630  -10.9510   16.5550 C   0  0  0  0  0  2  0  0  0  0  0  0
    9.2540   -8.4550   14.5880 C   0  0  0  0  0  0  0  0  0  0  0  0
    8.2110   -8.3510   13.7390 N   0  0  0  0  0  0  0  0  0  0  0  0
    7.6990   -7.1280   13.5460 C   0  0  0  0  0  3  0  0  0  0  0  0
    8.1170   -5.9960   14.1190 N   0  0  0  0  0  0  0  0  0  0  0  0
    9.1770   -6.1030   14.9330 C   0  0  0  0  0  0  0  0  0  0  0  0
    9.5740   -4.9160   15.5260 N   0  0  0  0  0  0  0  0  0  0  0  0
    9.7840   -7.3230   15.2110 C   0  0  0  0  0  0  0  0  0  0  0  0
   11.3410   -7.3860   16.3080 Br  0  0  0  0  0  0  0  0  0  0  0  0
    9.0460   -4.1110   15.2140 H   0  0  0  0  0  0  0  0  0  0  0  0
   10.5630   -4.7880   15.6970 H   0  0  0  0  0  0  0  0  0  0  0  0
    7.2750  -15.0200   14.9610 C   0  0  0  0  0  2  0  0  0  0  0  0
    7.2000  -16.5530   14.8780 C   0  0  0  0  0  2  0  0  0  0  0  0
    7.0730  -17.0450   13.4700 N   0  0  0  0  0  4  0  0  0  0  0  0
    5.7370  -17.5970   13.1620 C   0  0  0  0  0  2  0  0  0  0  0  0
    5.7850  -16.8260   11.8360 C   0  0  0  0  0  2  0  0  0  0  0  0
    6.8090  -15.9220   12.5370 C   0  0  0  0  0  2  0  0  0  0  0  0
    7.8630  -17.6300   13.1490 H   0  0  0  0  0  0  0  0  0  0  0  0
  1  5  1  0  0  0  0
  1  8  1  0  0  0  0
  2  1  2  0  0  0  0
  3  2  1  0  0  0  0
  3  4  1  0  0  0  0
  4  5  2  0  0  0  0
  6 13  1  0  0  0  0
  7  6  1  0  0  0  0
  8  7  2  0  0  0  0
  9 10  2  0  0  0  0
  9  8  1  0  0  0  0
 10 11  1  0  0  0  0
 11  6  2  0  0  0  0
 12 13  1  0  0  0  0
 13 14  1  0  0  0  0
 15  4  1  6  0  0  0
 15 20  1  0  0  0  0
 16 15  1  0  0  0  0
 17 16  1  0  0  0  0
 17 18  1  0  0  0  0
 18 19  1  0  0  0  0
 19 20  1  0  0  0  0
 21 18  1  0  0  0  0
 21 27  1  0  0  0  0
 22 21  2  0  0  0  0
 23 22  1  0  0  0  0
 23 24  2  0  0  0  0
 24 25  1  0  0  0  0
 25 27  2  0  0  0  0
 25 26  1  0  0  0  0
 26 30  1  0  0  0  0
 27 28  1  0  0  0  0
 29 26  1  0  0  0  0
 31  3  1  0  0  0  0
 32 31  1  0  0  0  0
 33 32  1  0  0  0  0
 34 33  1  0  0  0  0
 35 36  1  0  0  0  0
 35 34  1  0  0  0  0
 36 33  1  0  0  0  0
 37 33  1  0  0  0  0
M  END
>  <minimizedAffinity>
-8.58116436

$$$$
