
 OpenBabel11232418483D

 37 41  0  0  1  0  0  0  0  0999 V2000
    6.7850   -4.8610    9.3810 C   0  0  0  0  0  0  0  0  0  0  0  0
    6.4980   -3.5990    9.8460 C   0  0  0  0  0  3  0  0  0  0  0  0
    7.0230   -3.5490   11.1130 N   0  0  0  0  0  0  0  0  0  0  0  0
    7.6790   -4.7380   11.3450 C   0  0  0  0  0  0  0  0  0  0  0  0
    7.4450   -5.5700   10.3530 N   0  0  0  0  0  0  0  0  0  0  0  0
    6.5350   -7.1740    6.4330 C   0  0  0  0  0  0  0  0  0  0  0  0
    6.9080   -6.6810    7.6820 C   0  0  0  0  0  3  0  0  0  0  0  0
    6.4680   -5.4140    8.0770 C   0  0  0  0  0  0  0  0  0  0  0  0
    5.6590   -4.6870    7.2040 C   0  0  0  0  0  3  0  0  0  0  0  0
    5.3370   -5.2450    5.9810 C   0  0  0  0  0  3  0  0  0  0  0  0
    5.7560   -6.4640    5.5840 N   0  0  0  0  0  0  0  0  0  0  0  0
    8.3410   -8.5800    5.4360 C   0  0  0  0  0  1  0  0  0  0  0  0
    6.9280   -8.5810    6.0230 C   0  0  0  0  0  3  0  0  0  0  0  0
    6.8300   -9.5680    7.1880 C   0  0  0  0  0  1  0  0  0  0  0  0
    8.5600   -5.0440   12.5290 C   0  0  2  0  0  3  0  0  0  0  0  0
    9.7430   -5.9320   12.1140 C   0  0  0  0  0  2  0  0  0  0  0  0
    9.3560   -7.4060   11.9780 C   0  0  0  0  0  2  0  0  0  0  0  0
    8.6460   -7.8720   13.1640 N   0  0  0  0  0  0  0  0  0  0  0  0
    7.4340   -7.1360   13.5080 C   0  0  0  0  0  2  0  0  0  0  0  0
    7.7620   -5.6520   13.6980 C   0  0  0  0  0  2  0  0  0  0  0  0
    9.3870   -8.4230   14.2050 C   0  0  0  0  0  0  0  0  0  0  0  0
   10.2830   -7.6160   14.8090 N   0  0  0  0  0  0  0  0  0  0  0  0
   10.9820   -8.1330   15.8280 C   0  0  0  0  0  3  0  0  0  0  0  0
   10.8750   -9.3740   16.3130 N   0  0  0  0  0  0  0  0  0  0  0  0
   10.0080  -10.1800   15.6840 C   0  0  0  0  0  0  0  0  0  0  0  0
    9.9050  -11.4520   16.2210 N   0  0  0  0  0  0  0  0  0  0  0  0
    9.2250   -9.7480   14.6180 C   0  0  0  0  0  0  0  0  0  0  0  0
    8.0790  -10.9740   13.7160 Br  0  0  0  0  0  0  0  0  0  0  0  0
   10.5490  -11.6230   16.9830 H   0  0  0  0  0  0  0  0  0  0  0  0
    9.7250  -12.2150   15.5820 H   0  0  0  0  0  0  0  0  0  0  0  0
    6.8280   -2.4410   12.0270 C   0  0  0  0  0  2  0  0  0  0  0  0
    7.8550   -1.3210   11.8010 C   0  0  0  0  0  2  0  0  0  0  0  0
    8.5930   -0.9580   13.0520 N   0  0  0  0  0  4  0  0  0  0  0  0
    8.1020    0.2870   13.6790 C   0  0  0  0  0  2  0  0  0  0  0  0
    8.1700   -0.4350   15.0320 C   0  0  0  0  0  2  0  0  0  0  0  0
    8.0810   -1.7290   14.2120 C   0  0  0  0  0  2  0  0  0  0  0  0
    9.6220   -1.0230   12.9750 H   0  0  0  0  0  0  0  0  0  0  0  0
  1  2  2  0  0  0  0
  1  5  1  0  0  0  0
  2  3  1  0  0  0  0
  3  4  1  0  0  0  0
  3 31  1  0  0  0  0
  5  4  2  0  0  0  0
  6  7  1  0  0  0  0
  7  8  2  0  0  0  0
  8  1  1  0  0  0  0
  9  8  1  0  0  0  0
 10  9  2  0  0  0  0
 11 10  1  0  0  0  0
 11  6  2  0  0  0  0
 12 13  1  0  0  0  0
 13  6  1  0  0  0  0
 13 14  1  0  0  0  0
 15  4  1  6  0  0  0
 15 20  1  0  0  0  0
 16 15  1  0  0  0  0
 17 16  1  0  0  0  0
 17 18  1  0  0  0  0
 18 19  1  0  0  0  0
 18 21  1  0  0  0  0
 19 20  1  0  0  0  0
 21 27  2  0  0  0  0
 21 22  1  0  0  0  0
 22 23  2  0  0  0  0
 23 24  1  0  0  0  0
 25 26  1  0  0  0  0
 25 24  2  0  0  0  0
 26 29  1  0  0  0  0
 27 25  1  0  0  0  0
 28 27  1  0  0  0  0
 30 26  1  0  0  0  0
 32 31  1  0  0  0  0
 32 33  1  0  0  0  0
 33 34  1  0  0  0  0
 33 36  1  0  0  0  0
 34 35  1  0  0  0  0
 36 35  1  0  0  0  0
 37 33  1  0  0  0  0
M  END
>  <minimizedAffinity>
-10.9572268

$$$$
