
 OpenBabel11232418483D

 37 41  0  0  1  0  0  0  0  0999 V2000
    7.0770   -4.4940   10.4410 C   0  0  0  0  0  0  0  0  0  0  0  0
    6.7950   -5.2600    9.3350 C   0  0  0  0  0  3  0  0  0  0  0  0
    7.0430   -6.5550    9.7150 N   0  0  0  0  0  0  0  0  0  0  0  0
    7.3840   -6.5450   11.0510 C   0  0  0  0  0  0  0  0  0  0  0  0
    7.5130   -5.3020   11.4610 N   0  0  0  0  0  0  0  0  0  0  0  0
    6.9890   -1.0170   11.8590 C   0  0  0  0  0  0  0  0  0  0  0  0
    7.0770   -2.4080   11.8050 C   0  0  0  0  0  3  0  0  0  0  0  0
    6.9520   -3.0540   10.5710 C   0  0  0  0  0  0  0  0  0  0  0  0
    6.7500   -2.2790    9.4300 C   0  0  0  0  0  3  0  0  0  0  0  0
    6.6700   -0.9060    9.5690 C   0  0  0  0  0  3  0  0  0  0  0  0
    6.7850   -0.2670   10.7510 N   0  0  0  0  0  0  0  0  0  0  0  0
    6.8210   -1.1980   14.3430 C   0  0  0  0  0  1  0  0  0  0  0  0
    7.2110   -0.2920   13.1730 C   0  0  0  0  0  3  0  0  0  0  0  0
    8.6540    0.1930   13.3260 C   0  0  0  0  0  1  0  0  0  0  0  0
    7.5520   -7.7590   11.9290 C   0  0  2  0  0  3  0  0  0  0  0  0
    7.0410   -7.4780   13.3510 C   0  0  0  0  0  2  0  0  0  0  0  0
    8.0430   -6.6870   14.1930 C   0  0  0  0  0  2  0  0  0  0  0  0
    9.3670   -7.2990   14.1440 N   0  0  0  0  0  0  0  0  0  0  0  0
    9.9450   -7.4530   12.8120 C   0  0  0  0  0  2  0  0  0  0  0  0
    9.0030   -8.2730   11.9260 C   0  0  0  0  0  2  0  0  0  0  0  0
    9.6920   -8.2520   15.1050 C   0  0  0  0  0  0  0  0  0  0  0  0
    9.3650   -9.5320   14.8300 N   0  0  0  0  0  0  0  0  0  0  0  0
    9.6980  -10.4560   15.7410 C   0  0  0  0  0  3  0  0  0  0  0  0
   10.3310  -10.2360   16.8970 N   0  0  0  0  0  0  0  0  0  0  0  0
   10.6200   -8.9580   17.1780 C   0  0  0  0  0  0  0  0  0  0  0  0
   11.2920   -8.7640   18.3740 N   0  0  0  0  0  0  0  0  0  0  0  0
   10.3260   -7.9170   16.3040 C   0  0  0  0  0  0  0  0  0  0  0  0
   10.6860   -6.1150   16.8090 Br  0  0  0  0  0  0  0  0  0  0  0  0
   11.4200   -9.6140   18.9080 H   0  0  0  0  0  0  0  0  0  0  0  0
   11.0960   -7.9160   18.8870 H   0  0  0  0  0  0  0  0  0  0  0  0
    7.0080   -7.6860    8.8100 C   0  0  0  0  0  2  0  0  0  0  0  0
    7.4070   -7.2910    7.3790 C   0  0  0  0  0  2  0  0  0  0  0  0
    7.0150   -8.3230    6.3680 N   0  0  0  0  0  4  0  0  0  0  0  0
    8.1590   -8.8370    5.5850 C   0  0  0  0  0  2  0  0  0  0  0  0
    7.5870  -10.2480    5.7820 C   0  0  0  0  0  2  0  0  0  0  0  0
    6.8680   -9.6570    7.0020 C   0  0  0  0  0  2  0  0  0  0  0  0
    6.1860   -8.0740    5.8040 H   0  0  0  0  0  0  0  0  0  0  0  0
  1  8  1  0  0  0  0
  1  5  1  0  0  0  0
  2  3  1  0  0  0  0
  2  1  2  0  0  0  0
  3  4  1  0  0  0  0
  4  5  2  0  0  0  0
  6 13  1  0  0  0  0
  7  6  1  0  0  0  0
  8  7  2  0  0  0  0
  9 10  2  0  0  0  0
  9  8  1  0  0  0  0
 10 11  1  0  0  0  0
 11  6  2  0  0  0  0
 13 14  1  0  0  0  0
 13 12  1  0  0  0  0
 15  4  1  6  0  0  0
 15 16  1  0  0  0  0
 16 17  1  0  0  0  0
 18 17  1  0  0  0  0
 18 21  1  0  0  0  0
 19 18  1  0  0  0  0
 20 15  1  0  0  0  0
 20 19  1  0  0  0  0
 21 27  1  0  0  0  0
 22 21  2  0  0  0  0
 22 23  1  0  0  0  0
 23 24  2  0  0  0  0
 24 25  1  0  0  0  0
 25 26  1  0  0  0  0
 26 30  1  0  0  0  0
 26 29  1  0  0  0  0
 27 28  1  0  0  0  0
 27 25  2  0  0  0  0
 31  3  1  0  0  0  0
 32 31  1  0  0  0  0
 33 36  1  0  0  0  0
 33 32  1  0  0  0  0
 34 35  1  0  0  0  0
 34 33  1  0  0  0  0
 35 36  1  0  0  0  0
 37 33  1  0  0  0  0
M  END
>  <minimizedAffinity>
-11.1272001

$$$$
