
 OpenBabel10152419263D

 36 39  0  0  0  0  0  0  0  0999 V2000
    6.5990  -10.4180   13.9250 C   0  0  0  0  0  2  0  0  0  0  0  0
    5.8550  -10.2470    7.8510 C   0  0  0  0  0  0  0  0  0  0  0  0
    4.6480  -10.9550    7.7440 C   0  0  0  0  0  3  0  0  0  0  0  0
    4.0430  -11.4480    8.8880 C   0  0  0  0  0  3  0  0  0  0  0  0
    4.6450  -11.2160   10.1220 C   0  0  0  0  0  3  0  0  0  0  0  0
    5.8600  -10.4840   10.2340 C   0  0  0  0  0  0  0  0  0  0  0  0
    6.4990  -10.1930   11.4590 C   0  0  0  0  0  0  0  0  0  0  0  0
    5.9190  -10.5960   12.6550 N   0  0  0  0  0  0  0  0  0  0  0  0
    7.6720   -9.5450   11.5110 N   0  0  0  0  0  0  0  0  0  0  0  0
    8.1860   -9.1350   10.3500 C   0  0  0  0  0  3  0  0  0  0  0  0
    7.6390   -9.3070    9.1450 N   0  0  0  0  0  0  0  0  0  0  0  0
    6.4890   -9.9990    9.0750 C   0  0  0  0  0  0  0  0  0  0  0  0
    4.9110  -10.5190   12.6950 H   0  0  0  0  0  0  0  0  0  0  0  0
    7.4630  -10.5610    6.0930 N   0  0  0  0  0  0  0  0  0  0  0  0
    6.4650   -9.7720    6.5950 C   0  0  0  0  0  0  0  0  0  0  0  0
    6.1480   -8.7130    6.0740 O   0  0  0  0  0  0  0  0  0  0  0  0
    7.9050  -10.2620    5.2340 H   0  0  0  0  0  0  0  0  0  0  0  0
    7.7250  -11.4490    6.4970 H   0  0  0  0  0  0  0  0  0  0  0  0
    8.0880  -10.3930   13.6560 C   0  0  0  0  0  0  0  0  0  0  0  0
    8.8160   -9.2040   13.7680 C   0  0  0  0  0  3  0  0  0  0  0  0
   10.1580   -9.1750   13.4010 C   0  0  0  0  0  3  0  0  0  0  0  0
   10.7880  -10.3300   12.9220 C   0  0  0  0  0  3  0  0  0  0  0  0
   10.0930  -11.5350   12.8310 C   0  0  0  0  0  0  0  0  0  0  0  0
    8.7360  -11.5480   13.1860 C   0  0  0  0  0  3  0  0  0  0  0  0
   10.6190  -12.7490   12.3530 N   0  0  0  0  0  0  0  0  0  0  0  0
   10.0620  -13.9410   11.9620 C   0  0  0  0  0  0  0  0  0  0  0  0
   10.7840  -14.9210   11.7760 O   0  0  0  0  0  0  0  0  0  0  0  0
   11.6310  -12.8000   12.2960 H   0  0  0  0  0  0  0  0  0  0  0  0
    8.6250  -14.1130   11.7430 C   0  0  0  0  0  0  0  0  0  0  0  0
    8.0660  -13.6600   10.5420 C   0  0  0  0  0  3  0  0  0  0  0  0
    6.6920  -13.7880   10.3350 C   0  0  0  0  0  3  0  0  0  0  0  0
    5.8950  -14.3430   11.3340 C   0  0  0  0  0  0  0  0  0  0  0  0
    4.5780  -14.4660   11.1290 F   0  0  0  0  0  0  0  0  0  0  0  0
    6.4400  -14.7660   12.5420 C   0  0  0  0  0  3  0  0  0  0  0  0
    7.8100  -14.6380   12.7470 C   0  0  0  0  0  0  0  0  0  0  0  0
    8.3270  -15.0330   13.9180 F   0  0  0  0  0  0  0  0  0  0  0  0
  2 12  1  0  0  0  0
  3  2  2  0  0  0  0
  3  4  1  0  0  0  0
  4  5  2  0  0  0  0
  5  6  1  0  0  0  0
  6  7  1  0  0  0  0
  7  9  2  0  0  0  0
  7  8  1  0  0  0  0
  8 13  1  0  0  0  0
  8  1  1  0  0  0  0
 10  9  1  0  0  0  0
 11 10  2  0  0  0  0
 12 11  1  0  0  0  0
 12  6  2  0  0  0  0
 14 18  1  0  0  0  0
 14 15  1  0  0  0  0
 15  2  1  0  0  0  0
 16 15  2  0  0  0  0
 17 14  1  0  0  0  0
 19 20  1  0  0  0  0
 19  1  1  0  0  0  0
 21 20  2  0  0  0  0
 22 21  1  0  0  0  0
 23 22  2  0  0  0  0
 23 24  1  0  0  0  0
 24 19  2  0  0  0  0
 25 23  1  0  0  0  0
 26 25  1  0  0  0  0
 27 26  2  0  0  0  0
 28 25  1  0  0  0  0
 29 26  1  0  0  0  0
 29 35  1  0  0  0  0
 30 29  2  0  0  0  0
 31 30  1  0  0  0  0
 31 32  2  0  0  0  0
 32 34  1  0  0  0  0
 33 32  1  0  0  0  0
 34 35  2  0  0  0  0
 35 36  1  0  0  0  0
M  END
>  <minimizedAffinity>
9.01196098

$$$$
