
 OpenBabel10152419363D

 32 35  0  0  1  0  0  0  0  0999 V2000
   -1.0250   -7.7700  -24.7810 C   0  0  2  0  0  0  0  0  0  0  0  0
   -2.0710   -8.8220  -24.3630 C   0  0  0  0  0  2  0  0  0  0  0  0
   -1.6330   -9.8100  -23.2790 C   0  0  0  0  0  2  0  0  0  0  0  0
   -0.2310  -10.3970  -23.4640 C   0  0  2  0  0  3  0  0  0  0  0  0
    0.8120   -9.3450  -23.8470 C   0  0  0  0  0  2  0  0  0  0  0  0
    0.3780   -8.3980  -24.9640 C   0  0  0  0  0  2  0  0  0  0  0  0
   -1.7770   -6.4190  -22.9510 O   0  0  0  0  0  1  0  0  0  0  0  0
   -0.8190   -6.6300  -23.7460 C   0  0  0  0  0  0  0  0  0  0  0  0
    0.2910   -6.0250  -23.8010 O   0  0  0  0  0  0  0  0  0  0  0  0
   -1.4310   -7.1290  -26.1450 C   0  0  0  0  0  2  0  0  0  0  0  0
   -0.3810   -6.3170  -26.8750 C   0  0  0  0  0  0  0  0  0  0  0  0
   -0.6000   -4.9780  -27.1680 C   0  0  0  0  0  3  0  0  0  0  0  0
    0.3930   -4.2650  -27.8210 C   0  0  0  0  0  3  0  0  0  0  0  0
    1.5860   -4.9060  -28.1360 C   0  0  0  0  0  3  0  0  0  0  0  0
    1.7700   -6.2460  -27.7840 C   0  0  0  0  0  0  0  0  0  0  0  0
    0.7940   -6.9480  -27.1740 N   0  0  0  0  0  0  0  0  0  0  0  0
    3.0410   -6.8010  -28.0390 N   0  0  0  0  0  0  0  0  0  0  0  0
    3.4230   -7.5100  -29.1210 C   0  0  0  0  0  0  0  0  0  0  0  0
    2.9970   -7.4050  -30.3620 N   0  0  0  0  0  0  0  0  0  0  0  0
    3.6800   -8.2740  -31.1870 C   0  0  0  0  0  3  0  0  0  0  0  0
    4.6410   -9.0460  -30.5790 C   0  0  0  0  0  3  0  0  0  0  0  0
    4.7190   -8.6510  -28.9190 S   0  0  0  0  0  0  0  0  0  0  0  0
    3.5620   -6.9470  -27.1900 H   0  0  0  0  0  0  0  0  0  0  0  0
   -0.1470  -11.6350  -24.2130 O   0  0  0  0  0  0  0  0  0  0  0  0
    1.0890  -12.0180  -24.6430 C   0  0  0  0  0  0  0  0  0  0  0  0
    2.0170  -12.4920  -23.7180 C   0  0  0  0  0  3  0  0  0  0  0  0
    3.2730  -12.9210  -24.1460 C   0  0  0  0  0  3  0  0  0  0  0  0
    3.6250  -12.8230  -25.4920 C   0  0  0  0  0  3  0  0  0  0  0  0
    2.7290  -12.2580  -26.4010 C   0  0  0  0  0  0  0  0  0  0  0  0
    3.1940  -12.1000  -28.0530 Cl  0  0  0  0  0  0  0  0  0  0  0  0
    1.4720  -11.8350  -25.9710 C   0  0  0  0  0  0  0  0  0  0  0  0
    0.6160  -11.2740  -26.8410 F   0  0  0  0  0  0  0  0  0  0  0  0
  1 10  1  6  0  0  0
  1  2  1  0  0  0  0
  1  8  1  0  0  0  0
  2  3  1  0  0  0  0
  4 24  1  6  0  0  0
  4  3  1  0  0  0  0
  5  4  1  0  0  0  0
  6  1  1  0  0  0  0
  6  5  1  0  0  0  0
  8  7  1  0  0  0  0
  9  8  2  0  0  0  0
 11 10  1  0  0  0  0
 12 11  1  0  0  0  0
 13 12  2  0  0  0  0
 14 13  1  0  0  0  0
 14 15  2  0  0  0  0
 15 16  1  0  0  0  0
 16 11  2  0  0  0  0
 17 15  1  0  0  0  0
 17 23  1  0  0  0  0
 18 22  1  0  0  0  0
 18 17  1  0  0  0  0
 19 18  2  0  0  0  0
 20 21  2  0  0  0  0
 20 19  1  0  0  0  0
 21 22  1  0  0  0  0
 25 24  1  0  0  0  0
 25 26  1  0  0  0  0
 27 26  2  0  0  0  0
 28 27  1  0  0  0  0
 29 31  1  0  0  0  0
 29 28  2  0  0  0  0
 30 29  1  0  0  0  0
 31 25  2  0  0  0  0
 32 31  1  0  0  0  0
M  END
>  <minimizedAffinity>
-8.75046635

$$$$
