
 OpenBabel10152419363D

 32 35  0  0  1  0  0  0  0  0999 V2000
    0.2070   -5.9950  -26.9080 C   0  0  2  0  0  0  0  0  0  0  0  0
   -0.9830   -6.9660  -27.0270 C   0  0  0  0  0  2  0  0  0  0  0  0
   -1.8520   -7.1190  -25.7750 C   0  0  0  0  0  2  0  0  0  0  0  0
   -1.0790   -7.2740  -24.4630 C   0  0  2  0  0  3  0  0  0  0  0  0
    0.0830   -6.2870  -24.3340 C   0  0  0  0  0  2  0  0  0  0  0  0
    0.9690   -6.1820  -25.5740 C   0  0  0  0  0  2  0  0  0  0  0  0
    0.6510   -3.7010  -27.4400 O   0  0  0  0  0  0  0  0  0  0  0  0
   -0.1910   -4.4920  -26.9310 C   0  0  0  0  0  0  0  0  0  0  0  0
   -1.3220   -4.2110  -26.4390 O   0  0  0  0  0  1  0  0  0  0  0  0
    1.2220   -6.2530  -28.0650 C   0  0  0  0  0  2  0  0  0  0  0  0
    2.4130   -7.1390  -27.7640 C   0  0  0  0  0  0  0  0  0  0  0  0
    3.6520   -6.8750  -28.3350 C   0  0  0  0  0  3  0  0  0  0  0  0
    4.7210   -7.6980  -28.0200 C   0  0  0  0  0  3  0  0  0  0  0  0
    4.5270   -8.7420  -27.1230 C   0  0  0  0  0  3  0  0  0  0  0  0
    3.2690   -8.9400  -26.5470 C   0  0  0  0  0  0  0  0  0  0  0  0
    2.2210   -8.1580  -26.8750 N   0  0  0  0  0  0  0  0  0  0  0  0
    3.1700   -9.9500  -25.5690 N   0  0  0  0  0  0  0  0  0  0  0  0
    2.3660  -11.0330  -25.5870 C   0  0  0  0  0  0  0  0  0  0  0  0
    1.9370  -11.7180  -26.6250 N   0  0  0  0  0  0  0  0  0  0  0  0
    1.1780  -12.7950  -26.2190 C   0  0  0  0  0  3  0  0  0  0  0  0
    1.0280  -12.9440  -24.8600 C   0  0  0  0  0  3  0  0  0  0  0  0
    1.8940  -11.7090  -24.0570 S   0  0  0  0  0  0  0  0  0  0  0  0
    3.4820   -9.6270  -24.6660 H   0  0  0  0  0  0  0  0  0  0  0  0
   -0.7690   -8.6300  -24.0560 O   0  0  0  0  0  0  0  0  0  0  0  0
   -1.2230   -9.0320  -22.8360 C   0  0  0  0  0  0  0  0  0  0  0  0
   -1.3210   -8.1010  -21.8030 C   0  0  0  0  0  3  0  0  0  0  0  0
   -1.8160   -8.4890  -20.5590 C   0  0  0  0  0  3  0  0  0  0  0  0
   -2.1590   -9.8210  -20.3250 C   0  0  0  0  0  3  0  0  0  0  0  0
   -1.9690  -10.7690  -21.3310 C   0  0  0  0  0  0  0  0  0  0  0  0
   -2.3530  -12.4190  -21.0140 Cl  0  0  0  0  0  0  0  0  0  0  0  0
   -1.4780  -10.3780  -22.5760 C   0  0  0  0  0  0  0  0  0  0  0  0
   -1.2770  -11.2930  -23.5380 F   0  0  0  0  0  0  0  0  0  0  0  0
  1 10  1  6  0  0  0
  1  6  1  0  0  0  0
  2  1  1  0  0  0  0
  2  3  1  0  0  0  0
  3  4  1  0  0  0  0
  4  5  1  0  0  0  0
  4 24  1  6  0  0  0
  6  5  1  0  0  0  0
  7  8  2  0  0  0  0
  8  1  1  0  0  0  0
  8  9  1  0  0  0  0
 10 11  1  0  0  0  0
 11 16  1  0  0  0  0
 12 13  1  0  0  0  0
 12 11  2  0  0  0  0
 13 14  2  0  0  0  0
 14 15  1  0  0  0  0
 15 17  1  0  0  0  0
 16 15  2  0  0  0  0
 17 23  1  0  0  0  0
 18 17  1  0  0  0  0
 18 22  1  0  0  0  0
 19 20  1  0  0  0  0
 19 18  2  0  0  0  0
 20 21  2  0  0  0  0
 21 22  1  0  0  0  0
 24 25  1  0  0  0  0
 25 31  2  0  0  0  0
 25 26  1  0  0  0  0
 26 27  2  0  0  0  0
 27 28  1  0  0  0  0
 29 30  1  0  0  0  0
 29 28  2  0  0  0  0
 31 29  1  0  0  0  0
 32 31  1  0  0  0  0
M  END
>  <minimizedAffinity>
-8.74844837

$$$$
