
 OpenBabel10152419363D

 32 35  0  0  1  0  0  0  0  0999 V2000
   -1.1520   -7.7160  -24.6200 C   0  0  2  0  0  0  0  0  0  0  0  0
    0.3150   -8.1580  -24.7890 C   0  0  0  0  0  2  0  0  0  0  0  0
    1.3140   -7.0510  -25.1350 C   0  0  0  0  0  2  0  0  0  0  0  0
    0.8510   -6.0750  -26.2200 C   0  0  2  0  0  3  0  0  0  0  0  0
   -0.5950   -5.6130  -26.0320 C   0  0  0  0  0  2  0  0  0  0  0  0
   -1.5870   -6.7350  -25.7350 C   0  0  0  0  0  2  0  0  0  0  0  0
   -0.9070   -5.8230  -23.1700 O   0  0  0  0  0  0  0  0  0  0  0  0
   -1.4410   -6.9610  -23.2920 C   0  0  0  0  0  0  0  0  0  0  0  0
   -2.1830   -7.5630  -22.4630 O   0  0  0  0  0  1  0  0  0  0  0  0
   -2.0940   -8.9570  -24.6950 C   0  0  0  0  0  2  0  0  0  0  0  0
   -1.4500  -10.3270  -24.6490 C   0  0  0  0  0  0  0  0  0  0  0  0
   -0.9710  -10.9230  -25.8100 C   0  0  0  0  0  3  0  0  0  0  0  0
   -0.3720  -12.1690  -25.7230 C   0  0  0  0  0  3  0  0  0  0  0  0
   -0.2430  -12.7690  -24.4760 C   0  0  0  0  0  3  0  0  0  0  0  0
   -0.7070  -12.1090  -23.3340 C   0  0  0  0  0  0  0  0  0  0  0  0
   -1.3160  -10.9100  -23.4210 N   0  0  0  0  0  0  0  0  0  0  0  0
   -0.4490  -12.7280  -22.0940 N   0  0  0  0  0  0  0  0  0  0  0  0
   -1.2560  -12.7680  -21.0140 C   0  0  0  0  0  0  0  0  0  0  0  0
   -2.5720  -12.7800  -20.9740 N   0  0  0  0  0  0  0  0  0  0  0  0
   -3.0190  -12.8820  -19.6740 C   0  0  0  0  0  3  0  0  0  0  0  0
   -2.0430  -12.9560  -18.7090 C   0  0  0  0  0  3  0  0  0  0  0  0
   -0.5060  -12.9290  -19.4540 S   0  0  0  0  0  0  0  0  0  0  0  0
    0.5390  -12.8390  -21.9300 H   0  0  0  0  0  0  0  0  0  0  0  0
    1.2050   -6.4170  -27.5840 O   0  0  0  0  0  0  0  0  0  0  0  0
    2.3590   -7.1180  -27.7710 C   0  0  0  0  0  0  0  0  0  0  0  0
    3.0760   -7.5600  -26.6610 C   0  0  0  0  0  3  0  0  0  0  0  0
    4.2400   -8.3080  -26.8350 C   0  0  0  0  0  3  0  0  0  0  0  0
    4.7210   -8.5660  -28.1190 C   0  0  0  0  0  3  0  0  0  0  0  0
    4.0530   -8.0400  -29.2250 C   0  0  0  0  0  0  0  0  0  0  0  0
    4.6840   -8.3280  -30.8030 Cl  0  0  0  0  0  0  0  0  0  0  0  0
    2.8870   -7.2970  -29.0490 C   0  0  0  0  0  0  0  0  0  0  0  0
    2.2540   -6.7740  -30.1120 F   0  0  0  0  0  0  0  0  0  0  0  0
  1 10  1  6  0  0  0
  1  8  1  0  0  0  0
  2  1  1  0  0  0  0
  3  2  1  0  0  0  0
  4 24  1  6  0  0  0
  4  5  1  0  0  0  0
  4  3  1  0  0  0  0
  5  6  1  0  0  0  0
  6  1  1  0  0  0  0
  8  7  2  0  0  0  0
  8  9  1  0  0  0  0
 10 11  1  0  0  0  0
 11 16  1  0  0  0  0
 12 13  1  0  0  0  0
 12 11  2  0  0  0  0
 13 14  2  0  0  0  0
 14 15  1  0  0  0  0
 15 17  1  0  0  0  0
 16 15  2  0  0  0  0
 17 23  1  0  0  0  0
 17 18  1  0  0  0  0
 18 19  2  0  0  0  0
 18 22  1  0  0  0  0
 19 20  1  0  0  0  0
 20 21  2  0  0  0  0
 22 21  1  0  0  0  0
 25 24  1  0  0  0  0
 25 26  1  0  0  0  0
 27 26  2  0  0  0  0
 28 27  1  0  0  0  0
 29 31  1  0  0  0  0
 29 28  2  0  0  0  0
 30 29  1  0  0  0  0
 31 25  2  0  0  0  0
 32 31  1  0  0  0  0
M  END
>  <minimizedAffinity>
-7.72982407

$$$$
