
 OpenBabel10152419363D

 32 35  0  0  1  0  0  0  0  0999 V2000
    3.1370   -8.2520  -28.0370 C   0  0  2  0  0  0  0  0  0  0  0  0
    3.2050   -8.8000  -26.5990 C   0  0  0  0  0  2  0  0  0  0  0  0
    4.3280   -9.8010  -26.3140 C   0  0  0  0  0  2  0  0  0  0  0  0
    4.5170  -10.8840  -27.3800 C   0  0  2  0  0  3  0  0  0  0  0  0
    4.4810  -10.3320  -28.8060 C   0  0  0  0  0  2  0  0  0  0  0  0
    3.3270   -9.3720  -29.0880 C   0  0  0  0  0  2  0  0  0  0  0  0
    4.7190   -6.5710  -27.3920 O   0  0  0  0  0  1  0  0  0  0  0  0
    4.2340   -7.2030  -28.3720 C   0  0  0  0  0  0  0  0  0  0  0  0
    4.5350   -7.0860  -29.5950 O   0  0  0  0  0  0  0  0  0  0  0  0
    1.7420   -7.6030  -28.2940 C   0  0  0  0  0  2  0  0  0  0  0  0
    1.0770   -6.8910  -27.1330 C   0  0  0  0  0  0  0  0  0  0  0  0
    0.7890   -5.5350  -27.2070 C   0  0  0  0  0  3  0  0  0  0  0  0
    0.1640   -4.9250  -26.1310 C   0  0  0  0  0  3  0  0  0  0  0  0
   -0.1790   -5.6960  -25.0260 C   0  0  0  0  0  3  0  0  0  0  0  0
    0.1000   -7.0650  -25.0190 C   0  0  0  0  0  0  0  0  0  0  0  0
    0.7340   -7.6530  -26.0530 N   0  0  0  0  0  0  0  0  0  0  0  0
   -0.3690   -7.8030  -23.9120 N   0  0  0  0  0  0  0  0  0  0  0  0
   -1.6200   -7.8200  -23.4090 C   0  0  0  0  0  0  0  0  0  0  0  0
   -2.7620   -7.6670  -24.0460 N   0  0  0  0  0  0  0  0  0  0  0  0
   -3.8260   -7.8080  -23.1800 C   0  0  0  0  0  3  0  0  0  0  0  0
   -3.5020   -8.0770  -21.8720 C   0  0  0  0  0  3  0  0  0  0  0  0
   -1.8040   -8.1900  -21.7210 S   0  0  0  0  0  0  0  0  0  0  0  0
    0.3790   -8.0500  -23.2840 H   0  0  0  0  0  0  0  0  0  0  0  0
    3.7710  -12.1120  -27.1870 O   0  0  0  0  0  0  0  0  0  0  0  0
    3.0990  -12.2530  -26.0100 C   0  0  0  0  0  0  0  0  0  0  0  0
    3.7800  -12.7160  -24.8850 C   0  0  0  0  0  3  0  0  0  0  0  0
    3.1150  -12.8330  -23.6660 C   0  0  0  0  0  3  0  0  0  0  0  0
    1.7530  -12.5430  -23.5800 C   0  0  0  0  0  3  0  0  0  0  0  0
    1.0520  -12.1720  -24.7280 C   0  0  0  0  0  0  0  0  0  0  0  0
   -0.6390  -11.8610  -24.6170 Cl  0  0  0  0  0  0  0  0  0  0  0  0
    1.7210  -12.0510  -25.9460 C   0  0  0  0  0  0  0  0  0  0  0  0
    1.0440  -11.7130  -27.0550 F   0  0  0  0  0  0  0  0  0  0  0  0
  1 10  1  6  0  0  0
  1  2  1  0  0  0  0
  2  3  1  0  0  0  0
  4 24  1  6  0  0  0
  4  3  1  0  0  0  0
  5  4  1  0  0  0  0
  6  5  1  0  0  0  0
  6  1  1  0  0  0  0
  8  1  1  0  0  0  0
  8  7  1  0  0  0  0
  9  8  2  0  0  0  0
 10 11  1  0  0  0  0
 11 16  1  0  0  0  0
 12 11  2  0  0  0  0
 12 13  1  0  0  0  0
 13 14  2  0  0  0  0
 14 15  1  0  0  0  0
 15 17  1  0  0  0  0
 16 15  2  0  0  0  0
 17 18  1  0  0  0  0
 17 23  1  0  0  0  0
 18 22  1  0  0  0  0
 19 18  2  0  0  0  0
 19 20  1  0  0  0  0
 20 21  2  0  0  0  0
 21 22  1  0  0  0  0
 24 25  1  0  0  0  0
 25 31  2  0  0  0  0
 25 26  1  0  0  0  0
 26 27  2  0  0  0  0
 27 28  1  0  0  0  0
 29 30  1  0  0  0  0
 29 28  2  0  0  0  0
 31 29  1  0  0  0  0
 32 31  1  0  0  0  0
M  END
>  <minimizedAffinity>
-7.7303071

$$$$
