
 OpenBabel10152418373D

 38 41  0  0  1  0  0  0  0  0999 V2000
   -1.7630   -8.9400  -22.9870 C   0  0  0  0  0  0  0  0  0  0  0  0
   -1.5440   -9.7600  -21.8790 C   0  0  0  0  0  3  0  0  0  0  0  0
   -1.2200  -11.1050  -22.0520 C   0  0  0  0  0  3  0  0  0  0  0  0
   -1.0280  -11.6180  -23.3360 C   0  0  0  0  0  3  0  0  0  0  0  0
   -1.1700  -10.7960  -24.4660 C   0  0  0  0  0  0  0  0  0  0  0  0
   -1.6090   -9.4650  -24.2790 C   0  0  0  0  0  3  0  0  0  0  0  0
   -1.1640   -6.5070  -23.1100 C   0  0  0  0  0  0  0  0  0  0  0  0
   -1.0080   -5.5410  -22.3680 O   0  0  0  0  0  0  0  0  0  0  0  0
   -1.9540   -7.5680  -22.7440 N   0  0  0  0  0  0  0  0  0  0  0  0
   -2.6700   -7.3240  -22.0680 H   0  0  0  0  0  0  0  0  0  0  0  0
    0.2680   -5.8980  -27.0880 C   0  0  0  0  0  0  0  0  0  0  0  0
    1.1580   -6.2480  -26.0690 C   0  0  0  0  0  3  0  0  0  0  0  0
    0.6840   -6.5060  -24.7790 C   0  0  0  0  0  3  0  0  0  0  0  0
   -0.6860   -6.4240  -24.5110 C   0  0  0  0  0  0  0  0  0  0  0  0
   -1.5760   -6.0450  -25.5220 C   0  0  0  0  0  3  0  0  0  0  0  0
   -1.0930   -5.7760  -26.7980 C   0  0  0  0  0  0  0  0  0  0  0  0
   -1.9590   -5.3200  -27.7150 F   0  0  0  0  0  0  0  0  0  0  0  0
    1.4850   -4.3450  -28.3220 C   0  0  0  0  0  1  0  0  0  0  0  0
    0.8290   -5.6140  -28.3030 O   0  0  0  0  0  0  0  0  0  0  0  0
   -0.7350  -11.2730  -25.8580 C   0  0  1  0  0  3  0  0  0  0  0  0
   -0.6300  -10.0840  -26.8170 C   0  0  0  0  0  1  0  0  0  0  0  0
    0.5480  -11.9740  -25.8260 N   0  0  0  0  0  0  0  0  0  0  0  0
    0.6500  -12.8190  -26.3660 H   0  0  0  0  0  0  0  0  0  0  0  0
    1.6640  -11.1620  -25.6140 C   0  0  0  0  0  0  0  0  0  0  0  0
    1.5900  -10.3010  -24.5850 N   0  0  0  0  0  0  0  0  0  0  0  0
    2.3370   -9.2060  -24.6770 C   0  0  0  0  0  3  0  0  0  0  0  0
    3.0450   -8.8520  -25.7470 N   0  0  0  0  0  0  0  0  0  0  0  0
    3.1740   -9.7610  -26.7350 C   0  0  0  0  0  0  0  0  0  0  0  0
    3.7920   -9.4700  -27.9530 C   0  0  0  0  0  0  0  0  0  0  0  0
    4.1120  -10.4480  -28.9110 C   0  0  0  0  0  3  0  0  0  0  0  0
    3.7280  -11.7590  -28.6970 C   0  0  0  0  0  3  0  0  0  0  0  0
    2.9230  -12.0390  -27.5990 C   0  0  0  0  0  3  0  0  0  0  0  0
    2.6120  -11.0330  -26.6390 C   0  0  0  0  0  0  0  0  0  0  0  0
    3.7970   -8.0670  -28.4050 C   0  0  0  0  0  0  0  0  0  0  0  0
    4.5770   -7.2490  -27.6260 N   0  0  0  0  0  0  0  0  0  0  0  0
    3.1720   -7.6670  -29.3740 O   0  0  0  0  0  0  0  0  0  0  0  0
    4.6870   -6.2830  -27.9030 H   0  0  0  0  0  0  0  0  0  0  0  0
    5.1130   -7.5930  -26.8380 H   0  0  0  0  0  0  0  0  0  0  0  0
  1  9  1  0  0  0  0
  1  2  1  0  0  0  0
  3  2  2  0  0  0  0
  4  3  1  0  0  0  0
  5  6  1  0  0  0  0
  5  4  2  0  0  0  0
  6  1  2  0  0  0  0
  7  9  1  0  0  0  0
  7  8  2  0  0  0  0
  9 10  1  0  0  0  0
 11 16  2  0  0  0  0
 11 12  1  0  0  0  0
 12 13  2  0  0  0  0
 13 14  1  0  0  0  0
 14  7  1  0  0  0  0
 15 14  2  0  0  0  0
 16 15  1  0  0  0  0
 17 16  1  0  0  0  0
 18 19  1  0  0  0  0
 19 11  1  0  0  0  0
 20 21  1  6  0  0  0
 20 22  1  0  0  0  0
 20  5  1  0  0  0  0
 22 24  1  0  0  0  0
 23 22  1  0  0  0  0
 24 25  1  0  0  0  0
 26 25  2  0  0  0  0
 27 26  1  0  0  0  0
 28 33  1  0  0  0  0
 28 27  2  0  0  0  0
 29 28  1  0  0  0  0
 30 31  1  0  0  0  0
 30 29  2  0  0  0  0
 31 32  2  0  0  0  0
 32 33  1  0  0  0  0
 33 24  2  0  0  0  0
 34 29  1  0  0  0  0
 34 35  1  0  0  0  0
 35 38  1  0  0  0  0
 36 34  2  0  0  0  0
 37 35  1  0  0  0  0
M  END
>  <minimizedAffinity>
-7.19995499

$$$$
