
 OpenBabel10152418373D

 38 41  0  0  1  0  0  0  0  0999 V2000
    3.4020   -7.9570  -28.0520 C   0  0  0  0  0  0  0  0  0  0  0  0
    4.6880   -8.0610  -27.5190 C   0  0  0  0  0  3  0  0  0  0  0  0
    4.9740   -9.0290  -26.5570 C   0  0  0  0  0  3  0  0  0  0  0  0
    3.9990   -9.9560  -26.1850 C   0  0  0  0  0  3  0  0  0  0  0  0
    2.7190   -9.9180  -26.7600 C   0  0  0  0  0  0  0  0  0  0  0  0
    2.4090   -8.8620  -27.6480 C   0  0  0  0  0  3  0  0  0  0  0  0
    2.0710   -6.4010  -29.5010 C   0  0  0  0  0  0  0  0  0  0  0  0
    1.8190   -6.2100  -30.6870 O   0  0  0  0  0  0  0  0  0  0  0  0
    3.2160   -7.0500  -29.1100 N   0  0  0  0  0  0  0  0  0  0  0  0
    3.9680   -6.9840  -29.7870 H   0  0  0  0  0  0  0  0  0  0  0  0
   -0.5360   -4.3520  -26.8090 C   0  0  0  0  0  0  0  0  0  0  0  0
   -0.6880   -5.7240  -27.0230 C   0  0  0  0  0  3  0  0  0  0  0  0
    0.2010   -6.4090  -27.8570 C   0  0  0  0  0  3  0  0  0  0  0  0
    1.2510   -5.7190  -28.4710 C   0  0  0  0  0  0  0  0  0  0  0  0
    1.3890   -4.3400  -28.2820 C   0  0  0  0  0  3  0  0  0  0  0  0
    0.4900   -3.6650  -27.4620 C   0  0  0  0  0  0  0  0  0  0  0  0
    0.5910   -2.3300  -27.3840 F   0  0  0  0  0  0  0  0  0  0  0  0
   -1.1260   -2.4280  -25.6390 C   0  0  0  0  0  1  0  0  0  0  0  0
   -1.4830   -3.7580  -26.0190 O   0  0  0  0  0  0  0  0  0  0  0  0
    1.7150  -11.0600  -26.5450 C   0  0  1  0  0  3  0  0  0  0  0  0
    2.2120  -12.0010  -25.4430 C   0  0  0  0  0  1  0  0  0  0  0  0
    0.3860  -10.5670  -26.1870 N   0  0  0  0  0  0  0  0  0  0  0  0
   -0.3830  -10.7590  -26.8080 H   0  0  0  0  0  0  0  0  0  0  0  0
    0.1430  -10.4540  -24.8160 C   0  0  0  0  0  0  0  0  0  0  0  0
   -0.3190  -11.5540  -24.1980 N   0  0  0  0  0  0  0  0  0  0  0  0
   -1.0400  -11.3540  -23.1000 C   0  0  0  0  0  3  0  0  0  0  0  0
   -1.4300  -10.1640  -22.6470 N   0  0  0  0  0  0  0  0  0  0  0  0
   -0.8920   -9.0730  -23.2290 C   0  0  0  0  0  0  0  0  0  0  0  0
   -1.3050   -7.7740  -22.9230 C   0  0  0  0  0  0  0  0  0  0  0  0
   -0.6280   -6.6230  -23.3650 C   0  0  0  0  0  3  0  0  0  0  0  0
    0.4510   -6.7570  -24.2180 C   0  0  0  0  0  3  0  0  0  0  0  0
    0.7490   -8.0210  -24.7120 C   0  0  0  0  0  3  0  0  0  0  0  0
    0.0520   -9.1750  -24.2480 C   0  0  0  0  0  0  0  0  0  0  0  0
   -2.6770   -7.5880  -22.4170 C   0  0  0  0  0  0  0  0  0  0  0  0
   -2.7470   -7.5360  -21.0470 N   0  0  0  0  0  0  0  0  0  0  0  0
   -3.6560   -7.4900  -23.1380 O   0  0  0  0  0  0  0  0  0  0  0  0
   -3.6430   -7.3470  -20.6180 H   0  0  0  0  0  0  0  0  0  0  0  0
   -1.9270   -7.5920  -20.4550 H   0  0  0  0  0  0  0  0  0  0  0  0
  1  6  2  0  0  0  0
  1  2  1  0  0  0  0
  2  3  2  0  0  0  0
  3  4  1  0  0  0  0
  5 20  1  0  0  0  0
  5  4  2  0  0  0  0
  6  5  1  0  0  0  0
  7  9  1  0  0  0  0
  7 14  1  0  0  0  0
  8  7  2  0  0  0  0
  9  1  1  0  0  0  0
 10  9  1  0  0  0  0
 11 19  1  0  0  0  0
 12 11  1  0  0  0  0
 13 12  2  0  0  0  0
 14 15  2  0  0  0  0
 14 13  1  0  0  0  0
 15 16  1  0  0  0  0
 16 17  1  0  0  0  0
 16 11  2  0  0  0  0
 19 18  1  0  0  0  0
 20 22  1  0  0  0  0
 20 21  1  1  0  0  0
 22 24  1  0  0  0  0
 23 22  1  0  0  0  0
 24 33  2  0  0  0  0
 24 25  1  0  0  0  0
 25 26  2  0  0  0  0
 26 27  1  0  0  0  0
 28 29  1  0  0  0  0
 28 27  2  0  0  0  0
 29 34  1  0  0  0  0
 30 29  2  0  0  0  0
 31 30  1  0  0  0  0
 32 33  1  0  0  0  0
 32 31  2  0  0  0  0
 33 28  1  0  0  0  0
 34 35  1  0  0  0  0
 35 37  1  0  0  0  0
 35 38  1  0  0  0  0
 36 34  2  0  0  0  0
M  END
>  <minimizedAffinity>
-5.58733988

$$$$
