
 OpenBabel10152418373D

 38 41  0  0  1  0  0  0  0  0999 V2000
    1.4730   -6.4690  -27.8180 C   0  0  0  0  0  0  0  0  0  0  0  0
    0.4790   -5.5510  -27.4710 C   0  0  0  0  0  3  0  0  0  0  0  0
   -0.7710   -5.9960  -27.0450 C   0  0  0  0  0  3  0  0  0  0  0  0
   -1.0090   -7.3620  -26.8800 C   0  0  0  0  0  3  0  0  0  0  0  0
   -0.0020   -8.3030  -27.1520 C   0  0  0  0  0  0  0  0  0  0  0  0
    1.2210   -7.8430  -27.6910 C   0  0  0  0  0  3  0  0  0  0  0  0
    3.9670   -6.5860  -28.0600 C   0  0  0  0  0  0  0  0  0  0  0  0
    4.9740   -5.9980  -27.6770 O   0  0  0  0  0  0  0  0  0  0  0  0
    2.7490   -5.9550  -28.1100 N   0  0  0  0  0  0  0  0  0  0  0  0
    2.8190   -4.9480  -28.2080 H   0  0  0  0  0  0  0  0  0  0  0  0
    3.9990  -10.4650  -29.8450 C   0  0  0  0  0  0  0  0  0  0  0  0
    3.8200   -9.3300  -30.6400 C   0  0  0  0  0  3  0  0  0  0  0  0
    3.8690   -8.0560  -30.0670 C   0  0  0  0  0  3  0  0  0  0  0  0
    4.1070   -7.9170  -28.6960 C   0  0  0  0  0  0  0  0  0  0  0  0
    4.2570   -9.0530  -27.8920 C   0  0  0  0  0  3  0  0  0  0  0  0
    4.1910  -10.3170  -28.4700 C   0  0  0  0  0  0  0  0  0  0  0  0
    4.2390  -11.3820  -27.6570 F   0  0  0  0  0  0  0  0  0  0  0  0
    3.0540  -11.5980  -31.6450 C   0  0  0  0  0  1  0  0  0  0  0  0
    3.8830  -11.6700  -30.4840 O   0  0  0  0  0  0  0  0  0  0  0  0
   -0.1620   -9.7770  -26.7560 C   0  0  1  0  0  3  0  0  0  0  0  0
    1.1640  -10.3290  -26.2240 C   0  0  0  0  0  1  0  0  0  0  0  0
   -1.1980   -9.9670  -25.7410 N   0  0  0  0  0  0  0  0  0  0  0  0
   -2.0730  -10.3820  -26.0170 H   0  0  0  0  0  0  0  0  0  0  0  0
   -0.7280  -10.1680  -24.4410 C   0  0  0  0  0  0  0  0  0  0  0  0
   -0.5730  -11.4440  -24.0520 N   0  0  0  0  0  0  0  0  0  0  0  0
   -0.6580  -11.6780  -22.7470 C   0  0  0  0  0  3  0  0  0  0  0  0
   -0.9990  -10.7740  -21.8300 N   0  0  0  0  0  0  0  0  0  0  0  0
   -1.0700   -9.4870  -22.2240 C   0  0  0  0  0  0  0  0  0  0  0  0
   -1.5270   -8.4650  -21.3880 C   0  0  0  0  0  0  0  0  0  0  0  0
   -1.4230   -7.1000  -21.7060 C   0  0  0  0  0  3  0  0  0  0  0  0
   -0.9270   -6.7280  -22.9420 C   0  0  0  0  0  3  0  0  0  0  0  0
   -0.6690   -7.7240  -23.8760 C   0  0  0  0  0  3  0  0  0  0  0  0
   -0.7780   -9.1020  -23.5310 C   0  0  0  0  0  0  0  0  0  0  0  0
   -2.4550   -8.8280  -20.3010 C   0  0  0  0  0  0  0  0  0  0  0  0
   -2.8430   -7.7540  -19.5380 N   0  0  0  0  0  0  0  0  0  0  0  0
   -2.8420   -9.9660  -20.0950 O   0  0  0  0  0  0  0  0  0  0  0  0
   -3.5290   -7.9040  -18.8110 H   0  0  0  0  0  0  0  0  0  0  0  0
   -2.5380   -6.8080  -19.7310 H   0  0  0  0  0  0  0  0  0  0  0  0
  1  6  2  0  0  0  0
  1  2  1  0  0  0  0
  2  3  2  0  0  0  0
  3  4  1  0  0  0  0
  5  4  2  0  0  0  0
  5 20  1  0  0  0  0
  6  5  1  0  0  0  0
  7  8  2  0  0  0  0
  9  7  1  0  0  0  0
  9  1  1  0  0  0  0
 10  9  1  0  0  0  0
 11 16  1  0  0  0  0
 12 13  1  0  0  0  0
 12 11  2  0  0  0  0
 13 14  2  0  0  0  0
 14  7  1  0  0  0  0
 14 15  1  0  0  0  0
 16 15  2  0  0  0  0
 16 17  1  0  0  0  0
 18 19  1  0  0  0  0
 19 11  1  0  0  0  0
 20 21  1  1  0  0  0
 20 22  1  0  0  0  0
 22 24  1  0  0  0  0
 23 22  1  0  0  0  0
 24 25  2  0  0  0  0
 24 33  1  0  0  0  0
 25 26  1  0  0  0  0
 26 27  2  0  0  0  0
 28 27  1  0  0  0  0
 28 29  1  0  0  0  0
 29 34  1  0  0  0  0
 30 29  2  0  0  0  0
 31 30  1  0  0  0  0
 32 33  1  0  0  0  0
 32 31  2  0  0  0  0
 33 28  2  0  0  0  0
 34 36  2  0  0  0  0
 34 35  1  0  0  0  0
 35 37  1  0  0  0  0
 38 35  1  0  0  0  0
M  END
>  <minimizedAffinity>
-4.75853443

$$$$
