
 OpenBabel10152418373D

 38 41  0  0  1  0  0  0  0  0999 V2000
    1.7360   -6.1600  -28.7400 C   0  0  0  0  0  0  0  0  0  0  0  0
    1.4170   -4.8060  -28.6220 C   0  0  0  0  0  3  0  0  0  0  0  0
    0.6540   -4.3550  -27.5470 C   0  0  0  0  0  3  0  0  0  0  0  0
    0.2770   -5.2410  -26.5360 C   0  0  0  0  0  3  0  0  0  0  0  0
    0.6480   -6.5940  -26.5940 C   0  0  0  0  0  0  0  0  0  0  0  0
    1.3230   -7.0590  -27.7460 C   0  0  0  0  0  3  0  0  0  0  0  0
    3.8410   -7.1400  -29.6890 C   0  0  0  0  0  0  0  0  0  0  0  0
    4.7640   -6.8320  -30.4390 O   0  0  0  0  0  0  0  0  0  0  0  0
    2.6170   -6.5250  -29.7740 N   0  0  0  0  0  0  0  0  0  0  0  0
    2.4210   -6.1420  -30.6920 H   0  0  0  0  0  0  0  0  0  0  0  0
    4.6020  -10.5830  -27.2780 C   0  0  0  0  0  0  0  0  0  0  0  0
    4.4830   -9.3240  -26.6840 C   0  0  0  0  0  3  0  0  0  0  0  0
    4.1750   -8.2040  -27.4630 C   0  0  0  0  0  3  0  0  0  0  0  0
    3.9750   -8.3480  -28.8400 C   0  0  0  0  0  0  0  0  0  0  0  0
    4.1240   -9.6010  -29.4430 C   0  0  0  0  0  3  0  0  0  0  0  0
    4.4460  -10.7060  -28.6610 C   0  0  0  0  0  0  0  0  0  0  0  0
    4.6780  -11.8700  -29.2840 F   0  0  0  0  0  0  0  0  0  0  0  0
    3.8780  -12.0380  -25.6120 C   0  0  0  0  0  1  0  0  0  0  0  0
    4.9570  -11.6090  -26.4460 O   0  0  0  0  0  0  0  0  0  0  0  0
    0.4510   -7.5260  -25.3900 C   0  0  1  0  0  3  0  0  0  0  0  0
    1.7920   -7.7910  -24.7000 C   0  0  0  0  0  1  0  0  0  0  0  0
   -0.4860   -6.9750  -24.4120 N   0  0  0  0  0  0  0  0  0  0  0  0
   -0.6500   -5.9800  -24.4080 H   0  0  0  0  0  0  0  0  0  0  0  0
   -1.5140   -7.8360  -24.0220 C   0  0  0  0  0  0  0  0  0  0  0  0
   -2.5760   -7.2680  -23.4260 N   0  0  0  0  0  0  0  0  0  0  0  0
   -3.2710   -8.0410  -22.5990 C   0  0  0  0  0  3  0  0  0  0  0  0
   -2.9270   -9.2740  -22.2340 N   0  0  0  0  0  0  0  0  0  0  0  0
   -1.9090   -9.8570  -22.9000 C   0  0  0  0  0  0  0  0  0  0  0  0
   -1.3800  -11.0970  -22.5360 C   0  0  0  0  0  0  0  0  0  0  0  0
   -0.4620  -11.8090  -23.3270 C   0  0  0  0  0  3  0  0  0  0  0  0
    0.0240  -11.2330  -24.4870 C   0  0  0  0  0  3  0  0  0  0  0  0
   -0.3170   -9.9130  -24.7600 C   0  0  0  0  0  3  0  0  0  0  0  0
   -1.2530   -9.2110  -23.9460 C   0  0  0  0  0  0  0  0  0  0  0  0
   -1.5140  -11.5170  -21.1290 C   0  0  0  0  0  0  0  0  0  0  0  0
   -2.7510  -12.0340  -20.8330 N   0  0  0  0  0  0  0  0  0  0  0  0
   -0.6200  -11.4180  -20.3060 O   0  0  0  0  0  0  0  0  0  0  0  0
   -2.9080  -12.4050  -19.9060 H   0  0  0  0  0  0  0  0  0  0  0  0
   -3.4810  -12.1370  -21.5280 H   0  0  0  0  0  0  0  0  0  0  0  0
  1  2  2  0  0  0  0
  1  6  1  0  0  0  0
  2  3  1  0  0  0  0
  3  4  2  0  0  0  0
  5  4  1  0  0  0  0
  5 20  1  0  0  0  0
  6  5  2  0  0  0  0
  7 14  1  0  0  0  0
  8  7  2  0  0  0  0
  9  7  1  0  0  0  0
  9  1  1  0  0  0  0
 10  9  1  0  0  0  0
 11 12  1  0  0  0  0
 11 19  1  0  0  0  0
 13 12  2  0  0  0  0
 14 13  1  0  0  0  0
 15 14  2  0  0  0  0
 15 16  1  0  0  0  0
 16 11  2  0  0  0  0
 17 16  1  0  0  0  0
 19 18  1  0  0  0  0
 20 21  1  1  0  0  0
 20 22  1  0  0  0  0
 22 23  1  0  0  0  0
 22 24  1  0  0  0  0
 24 33  2  0  0  0  0
 24 25  1  0  0  0  0
 25 26  2  0  0  0  0
 26 27  1  0  0  0  0
 28 29  1  0  0  0  0
 28 27  2  0  0  0  0
 29 34  1  0  0  0  0
 30 29  2  0  0  0  0
 31 30  1  0  0  0  0
 32 31  2  0  0  0  0
 32 33  1  0  0  0  0
 33 28  1  0  0  0  0
 34 35  1  0  0  0  0
 34 36  2  0  0  0  0
 35 37  1  0  0  0  0
 38 35  1  0  0  0  0
M  END
>  <minimizedAffinity>
-7.51835537

$$$$
