
 OpenBabel11232418493D

 40 45  0  0  1  0  0  0  0  0999 V2000
    7.8730   -7.7110   10.4200 C   0  0  0  0  0  0  0  0  0  0  0  0
    6.6420   -8.3530   10.5150 C   0  0  0  0  0  3  0  0  0  0  0  0
    6.1550   -8.9020   11.6490 N   0  0  0  0  0  0  0  0  0  0  0  0
    6.9400   -8.8400   12.7480 C   0  0  0  0  0  3  0  0  0  0  0  0
    8.1930   -8.2350   12.7700 C   0  0  0  0  0  0  0  0  0  0  0  0
    8.6580   -7.6710   11.5710 C   0  0  0  0  0  3  0  0  0  0  0  0
    8.9950   -8.1540   13.9920 C   0  0  0  0  0  0  0  0  0  0  0  0
    9.6370   -6.9420   14.3440 C   0  0  0  0  0  3  0  0  0  0  0  0
   10.4580   -6.8510   15.4730 C   0  0  0  0  0  3  0  0  0  0  0  0
   10.6130   -7.9880   16.2350 C   0  0  0  0  0  0  0  0  0  0  0  0
    9.9880   -9.1920   15.9200 C   0  0  0  0  0  0  0  0  0  0  0  0
    9.1700   -9.2890   14.8040 C   0  0  0  0  0  3  0  0  0  0  0  0
   10.3270  -10.2250   16.9680 C   0  0  2  0  0  3  0  0  0  0  0  0
   11.2700   -9.4220   17.8980 C   0  0  0  0  0  0  0  0  0  0  0  0
   11.8280   -9.8100   18.9120 O   0  0  0  0  0  0  0  0  0  0  0  0
   11.3650   -8.1300   17.3870 N   0  0  0  0  0  0  0  0  0  0  0  0
   11.9190   -7.4140   17.8330 H   0  0  0  0  0  0  0  0  0  0  0  0
   11.0180  -11.4590   16.4930 C   0  0  0  0  0  0  0  0  0  0  0  0
   12.3080  -11.6840   16.0470 C   0  0  0  0  0  3  0  0  0  0  0  0
   12.4080  -13.0660   15.7690 C   0  0  0  0  0  3  0  0  0  0  0  0
   11.1800  -13.6050   16.0670 C   0  0  0  0  0  3  0  0  0  0  0  0
   10.3300  -12.6430   16.5100 O   0  0  0  0  0  0  0  0  0  0  0  0
    8.1460   -7.1200    9.2200 O   0  0  0  0  0  0  0  0  0  0  0  0
    7.1010   -6.9850    8.2490 C   0  0  0  0  0  2  0  0  0  0  0  0
    7.1210   -5.5720    7.6270 C   0  0  1  0  0  3  0  0  0  0  0  0
    7.0930   -5.6700    6.1240 N   0  0  0  0  0  4  0  0  0  0  0  0
    6.2080   -6.0440    5.7610 H   0  0  0  0  0  0  0  0  0  0  0  0
    7.8380   -6.3120    5.8170 H   0  0  0  0  0  0  0  0  0  0  0  0
    7.2710   -4.7620    5.6770 H   0  0  0  0  0  0  0  0  0  0  0  0
    5.9510   -4.6930    8.0960 C   0  0  0  0  0  2  0  0  0  0  0  0
    6.3880   -3.6040    9.0150 C   0  0  0  0  0  0  0  0  0  0  0  0
    6.6840   -2.3080    8.6420 C   0  0  0  0  0  3  0  0  0  0  0  0
    7.0420   -1.6060    9.7630 N   0  0  0  0  0  0  0  0  0  0  0  0
    6.9990   -2.4260   10.8650 C   0  0  0  0  0  0  0  0  0  0  0  0
    7.2950   -2.1400   12.2020 C   0  0  0  0  0  3  0  0  0  0  0  0
    7.1510   -3.1710   13.1330 C   0  0  0  0  0  3  0  0  0  0  0  0
    6.7140   -4.4330   12.7410 C   0  0  0  0  0  3  0  0  0  0  0  0
    6.4140   -4.7000   11.3990 C   0  0  0  0  0  3  0  0  0  0  0  0
    6.5710   -3.6820   10.4340 C   0  0  0  0  0  0  0  0  0  0  0  0
    7.2940   -0.6250    9.7900 H   0  0  0  0  0  0  0  0  0  0  0  0
  1  2  2  0  0  0  0
  1  6  1  0  0  0  0
  2  3  1  0  0  0  0
  3  4  2  0  0  0  0
  4  5  1  0  0  0  0
  5  7  1  0  0  0  0
  6  5  2  0  0  0  0
  7  8  2  0  0  0  0
  7 12  1  0  0  0  0
  8  9  1  0  0  0  0
  9 10  2  0  0  0  0
 10 16  1  0  0  0  0
 11 10  1  0  0  0  0
 11 13  1  0  0  0  0
 12 11  2  0  0  0  0
 13 18  1  6  0  0  0
 13 14  1  0  0  0  0
 14 15  2  0  0  0  0
 16 17  1  0  0  0  0
 16 14  1  0  0  0  0
 18 22  1  0  0  0  0
 19 18  2  0  0  0  0
 20 19  1  0  0  0  0
 20 21  2  0  0  0  0
 21 22  1  0  0  0  0
 23  1  1  0  0  0  0
 24 23  1  0  0  0  0
 25 30  1  1  0  0  0
 25 24  1  0  0  0  0
 26 25  1  0  0  0  0
 27 26  1  0  0  0  0
 28 26  1  0  0  0  0
 29 26  1  0  0  0  0
 30 31  1  0  0  0  0
 31 39  1  0  0  0  0
 32 31  2  0  0  0  0
 32 33  1  0  0  0  0
 33 40  1  0  0  0  0
 33 34  1  0  0  0  0
 34 35  1  0  0  0  0
 35 36  2  0  0  0  0
 37 36  1  0  0  0  0
 38 37  2  0  0  0  0
 39 34  2  0  0  0  0
 39 38  1  0  0  0  0
M  END
>  <minimizedAffinity>
-11.5112019

$$$$
