
 OpenBabel11232418493D

 40 45  0  0  1  0  0  0  0  0999 V2000
    6.8370   -4.9520   10.1990 C   0  0  0  0  0  0  0  0  0  0  0  0
    6.7970   -5.5100    8.9260 C   0  0  0  0  0  3  0  0  0  0  0  0
    7.0680   -6.8060    8.6540 N   0  0  0  0  0  0  0  0  0  0  0  0
    7.4280   -7.5900    9.6950 C   0  0  0  0  0  3  0  0  0  0  0  0
    7.5150   -7.1400   11.0080 C   0  0  0  0  0  0  0  0  0  0  0  0
    7.2170   -5.7880   11.2480 C   0  0  0  0  0  3  0  0  0  0  0  0
    7.8700   -8.0320   12.1140 C   0  0  0  0  0  0  0  0  0  0  0  0
    7.0710   -9.1670   12.3990 C   0  0  0  0  0  3  0  0  0  0  0  0
    7.3520  -10.0030   13.4840 C   0  0  0  0  0  3  0  0  0  0  0  0
    8.4410   -9.6820   14.2640 C   0  0  0  0  0  0  0  0  0  0  0  0
    9.2500   -8.5780   14.0040 C   0  0  0  0  0  0  0  0  0  0  0  0
    8.9800   -7.7470   12.9270 C   0  0  0  0  0  3  0  0  0  0  0  0
   10.3740   -8.5290   15.0120 C   0  0  2  0  0  3  0  0  0  0  0  0
   10.0470   -9.7560   15.8990 C   0  0  0  0  0  0  0  0  0  0  0  0
   10.6620  -10.1600   16.8720 O   0  0  0  0  0  0  0  0  0  0  0  0
    8.9070  -10.3620   15.3740 N   0  0  0  0  0  0  0  0  0  0  0  0
    8.5050  -11.1950   15.7800 H   0  0  0  0  0  0  0  0  0  0  0  0
   10.4610   -7.3050   15.8580 C   0  0  0  0  0  0  0  0  0  0  0  0
    9.4990   -6.5720   16.5300 C   0  0  0  0  0  3  0  0  0  0  0  0
   10.1760   -5.5310   17.2040 C   0  0  0  0  0  3  0  0  0  0  0  0
   11.5080   -5.6900   16.9130 C   0  0  0  0  0  3  0  0  0  0  0  0
   11.6950   -6.7620   16.1010 O   0  0  0  0  0  0  0  0  0  0  0  0
    6.4230   -3.6540   10.2950 O   0  0  0  0  0  0  0  0  0  0  0  0
    5.7780   -3.0380    9.1720 C   0  0  0  0  0  2  0  0  0  0  0  0
    6.5010   -1.7290    8.7870 C   0  0  1  0  0  3  0  0  0  0  0  0
    6.3780   -1.4900    7.3050 N   0  0  0  0  0  4  0  0  0  0  0  0
    5.4150   -1.2910    7.0070 H   0  0  0  0  0  0  0  0  0  0  0  0
    6.6760   -2.3400    6.8020 H   0  0  0  0  0  0  0  0  0  0  0  0
    6.9820   -0.7220    6.9870 H   0  0  0  0  0  0  0  0  0  0  0  0
    5.9650   -0.5030    9.5400 C   0  0  0  0  0  2  0  0  0  0  0  0
    6.9440    0.0330   10.5280 C   0  0  0  0  0  0  0  0  0  0  0  0
    7.9070    0.9890   10.2690 C   0  0  0  0  0  3  0  0  0  0  0  0
    8.6080    1.2220   11.4230 N   0  0  0  0  0  0  0  0  0  0  0  0
    8.1290    0.4220   12.4330 C   0  0  0  0  0  0  0  0  0  0  0  0
    8.5500    0.3160   13.7640 C   0  0  0  0  0  3  0  0  0  0  0  0
    7.8680   -0.5790   14.5910 C   0  0  0  0  0  3  0  0  0  0  0  0
    6.7990   -1.3270   14.1070 C   0  0  0  0  0  3  0  0  0  0  0  0
    6.3850   -1.2040   12.7740 C   0  0  0  0  0  3  0  0  0  0  0  0
    7.0700   -0.3220   11.9110 C   0  0  0  0  0  0  0  0  0  0  0  0
    9.3620    1.8880   11.5320 H   0  0  0  0  0  0  0  0  0  0  0  0
  1 23  1  0  0  0  0
  1  6  1  0  0  0  0
  2  1  2  0  0  0  0
  3  2  1  0  0  0  0
  3  4  2  0  0  0  0
  4  5  1  0  0  0  0
  5  6  2  0  0  0  0
  5  7  1  0  0  0  0
  7  8  2  0  0  0  0
  7 12  1  0  0  0  0
  8  9  1  0  0  0  0
  9 10  2  0  0  0  0
 10 16  1  0  0  0  0
 11 10  1  0  0  0  0
 11 13  1  0  0  0  0
 12 11  2  0  0  0  0
 13 18  1  1  0  0  0
 13 14  1  0  0  0  0
 14 15  2  0  0  0  0
 16 17  1  0  0  0  0
 16 14  1  0  0  0  0
 18 22  1  0  0  0  0
 18 19  2  0  0  0  0
 19 20  1  0  0  0  0
 21 20  2  0  0  0  0
 22 21  1  0  0  0  0
 24 23  1  0  0  0  0
 25 24  1  1  0  0  0
 25 30  1  0  0  0  0
 26 25  1  0  0  0  0
 27 26  1  0  0  0  0
 28 26  1  0  0  0  0
 29 26  1  0  0  0  0
 30 31  1  0  0  0  0
 31 39  1  0  0  0  0
 32 31  2  0  0  0  0
 32 33  1  0  0  0  0
 33 40  1  0  0  0  0
 33 34  1  0  0  0  0
 34 35  1  0  0  0  0
 35 36  2  0  0  0  0
 37 36  1  0  0  0  0
 38 37  2  0  0  0  0
 39 34  2  0  0  0  0
 39 38  1  0  0  0  0
M  END
>  <minimizedAffinity>
-12.0129232

$$$$
