
 OpenBabel11232418493D

 40 45  0  0  1  0  0  0  0  0999 V2000
   10.3900   -7.9290   15.2750 C   0  0  0  0  0  0  0  0  0  0  0  0
   10.7890   -7.3960   16.4970 C   0  0  0  0  0  3  0  0  0  0  0  0
   11.2000   -8.1340   17.5510 N   0  0  0  0  0  0  0  0  0  0  0  0
   11.1880   -9.4780   17.4030 C   0  0  0  0  0  3  0  0  0  0  0  0
   10.7970  -10.1230   16.2340 C   0  0  0  0  0  0  0  0  0  0  0  0
   10.3850   -9.3180   15.1600 C   0  0  0  0  0  3  0  0  0  0  0  0
   10.8360  -11.5810   16.1010 C   0  0  0  0  0  0  0  0  0  0  0  0
   12.0700  -12.2710   16.1860 C   0  0  0  0  0  3  0  0  0  0  0  0
   12.1460  -13.6560   16.0040 C   0  0  0  0  0  3  0  0  0  0  0  0
   10.9710  -14.3240   15.7430 C   0  0  0  0  0  0  0  0  0  0  0  0
    9.7410  -13.6750   15.6620 C   0  0  0  0  0  0  0  0  0  0  0  0
    9.6580  -12.3020   15.8460 C   0  0  0  0  0  3  0  0  0  0  0  0
    8.6510  -14.6890   15.4070 C   0  0  2  0  0  3  0  0  0  0  0  0
    9.4670  -16.0020   15.3190 C   0  0  0  0  0  0  0  0  0  0  0  0
    9.0480  -17.1310   15.1200 O   0  0  0  0  0  0  0  0  0  0  0  0
   10.8060  -15.6810   15.5360 N   0  0  0  0  0  0  0  0  0  0  0  0
   11.5340  -16.3810   15.5380 H   0  0  0  0  0  0  0  0  0  0  0  0
    7.8500  -14.5110   14.1610 C   0  0  0  0  0  0  0  0  0  0  0  0
    7.7600  -13.4660   13.2590 C   0  0  0  0  0  3  0  0  0  0  0  0
    6.8660  -13.8790   12.2450 C   0  0  0  0  0  3  0  0  0  0  0  0
    6.4670  -15.1490   12.5820 C   0  0  0  0  0  3  0  0  0  0  0  0
    7.0580  -15.5450   13.7380 O   0  0  0  0  0  0  0  0  0  0  0  0
   10.1170   -7.0230   14.2900 O   0  0  0  0  0  0  0  0  0  0  0  0
    8.7540   -6.6800   14.0100 C   0  0  0  0  0  2  0  0  0  0  0  0
    8.6860   -5.3970   13.1530 C   0  0  1  0  0  3  0  0  0  0  0  0
    9.8580   -5.3450   12.2100 N   0  0  0  0  0  4  0  0  0  0  0  0
    9.8290   -6.0770   11.4890 H   0  0  0  0  0  0  0  0  0  0  0  0
   10.7270   -5.4870   12.7460 H   0  0  0  0  0  0  0  0  0  0  0  0
    9.9360   -4.4320   11.7430 H   0  0  0  0  0  0  0  0  0  0  0  0
    7.3840   -5.2830   12.3460 C   0  0  0  0  0  2  0  0  0  0  0  0
    7.2560   -3.9690   11.6530 C   0  0  0  0  0  0  0  0  0  0  0  0
    7.4700   -2.7320   12.2290 C   0  0  0  0  0  3  0  0  0  0  0  0
    7.2590   -1.7690   11.2770 N   0  0  0  0  0  0  0  0  0  0  0  0
    6.8950   -2.3540   10.0890 C   0  0  0  0  0  0  0  0  0  0  0  0
    6.5730   -1.7610    8.8630 C   0  0  0  0  0  3  0  0  0  0  0  0
    6.2490   -2.6050    7.7990 C   0  0  0  0  0  3  0  0  0  0  0  0
    6.2610   -3.9880    7.9540 C   0  0  0  0  0  3  0  0  0  0  0  0
    6.5920   -4.5670    9.1850 C   0  0  0  0  0  3  0  0  0  0  0  0
    6.9040   -3.7360   10.2830 C   0  0  0  0  0  0  0  0  0  0  0  0
    7.3610   -0.7710   11.4150 H   0  0  0  0  0  0  0  0  0  0  0  0
  1  2  1  0  0  0  0
  2  3  2  0  0  0  0
  4  3  1  0  0  0  0
  5  4  2  0  0  0  0
  6  1  2  0  0  0  0
  6  5  1  0  0  0  0
  7  8  1  0  0  0  0
  7  5  1  0  0  0  0
  9  8  2  0  0  0  0
 10  9  1  0  0  0  0
 11 10  2  0  0  0  0
 11 12  1  0  0  0  0
 12  7  2  0  0  0  0
 13 18  1  6  0  0  0
 13 11  1  0  0  0  0
 14 13  1  0  0  0  0
 14 16  1  0  0  0  0
 15 14  2  0  0  0  0
 16 17  1  0  0  0  0
 16 10  1  0  0  0  0
 19 18  2  0  0  0  0
 20 21  2  0  0  0  0
 20 19  1  0  0  0  0
 21 22  1  0  0  0  0
 22 18  1  0  0  0  0
 23  1  1  0  0  0  0
 24 23  1  0  0  0  0
 25 30  1  6  0  0  0
 25 24  1  0  0  0  0
 26 28  1  0  0  0  0
 26 25  1  0  0  0  0
 27 26  1  0  0  0  0
 29 26  1  0  0  0  0
 31 32  2  0  0  0  0
 31 30  1  0  0  0  0
 33 40  1  0  0  0  0
 33 32  1  0  0  0  0
 34 39  1  0  0  0  0
 34 33  1  0  0  0  0
 35 34  2  0  0  0  0
 36 37  2  0  0  0  0
 36 35  1  0  0  0  0
 37 38  1  0  0  0  0
 38 39  2  0  0  0  0
 39 31  1  0  0  0  0
M  END
>  <minimizedAffinity>
-11.2790413

$$$$
