
 OpenBabel11232418493D

 40 45  0  0  1  0  0  0  0  0999 V2000
    6.5550   -1.3780    9.5900 C   0  0  0  0  0  0  0  0  0  0  0  0
    6.2290   -0.7550    8.3890 C   0  0  0  0  0  3  0  0  0  0  0  0
    6.0440   -1.4060    7.2200 N   0  0  0  0  0  0  0  0  0  0  0  0
    6.2200   -2.7470    7.2280 C   0  0  0  0  0  3  0  0  0  0  0  0
    6.5580   -3.4750    8.3640 C   0  0  0  0  0  0  0  0  0  0  0  0
    6.7330   -2.7600    9.5600 C   0  0  0  0  0  3  0  0  0  0  0  0
    6.7000   -4.9320    8.3390 C   0  0  0  0  0  0  0  0  0  0  0  0
    6.9480   -5.6440    9.5380 C   0  0  0  0  0  3  0  0  0  0  0  0
    7.1460   -7.0290    9.5380 C   0  0  0  0  0  3  0  0  0  0  0  0
    7.0850   -7.6750    8.3230 C   0  0  0  0  0  0  0  0  0  0  0  0
    6.8340   -7.0040    7.1280 C   0  0  0  0  0  0  0  0  0  0  0  0
    6.6320   -5.6310    7.1220 C   0  0  0  0  0  3  0  0  0  0  0  0
    6.7910   -7.9970    5.9910 C   0  0  2  0  0  3  0  0  0  0  0  0
    7.0950   -9.3240    6.7300 C   0  0  0  0  0  0  0  0  0  0  0  0
    7.1770  -10.4440    6.2520 O   0  0  0  0  0  0  0  0  0  0  0  0
    7.2430   -9.0280    8.0830 N   0  0  0  0  0  0  0  0  0  0  0  0
    7.4360   -9.7400    8.7720 H   0  0  0  0  0  0  0  0  0  0  0  0
    7.7760   -7.7970    4.8900 C   0  0  0  0  0  0  0  0  0  0  0  0
    7.6220   -7.4470    3.5600 C   0  0  0  0  0  3  0  0  0  0  0  0
    8.9190   -7.3660    3.0070 C   0  0  0  0  0  3  0  0  0  0  0  0
    9.7900   -7.6630    4.0270 C   0  0  0  0  0  3  0  0  0  0  0  0
    9.1100   -7.9220    5.1740 O   0  0  0  0  0  0  0  0  0  0  0  0
    6.5900   -0.5700   10.6910 O   0  0  0  0  0  0  0  0  0  0  0  0
    7.8550   -0.1100   11.1830 C   0  0  0  0  0  2  0  0  0  0  0  0
    8.0410   -0.5210   12.6600 C   0  0  1  0  0  3  0  0  0  0  0  0
    8.0300    0.7010   13.5400 N   0  0  0  0  0  4  0  0  0  0  0  0
    7.1160    1.1700   13.5690 H   0  0  0  0  0  0  0  0  0  0  0  0
    8.7070    1.3870   13.1700 H   0  0  0  0  0  0  0  0  0  0  0  0
    8.3150    0.4840   14.5030 H   0  0  0  0  0  0  0  0  0  0  0  0
    6.9660   -1.5030   13.1500 C   0  0  0  0  0  2  0  0  0  0  0  0
    7.5100   -2.8690   13.3960 C   0  0  0  0  0  0  0  0  0  0  0  0
    8.7670   -3.1560   13.8930 C   0  0  0  0  0  3  0  0  0  0  0  0
    8.8960   -4.5170   13.9820 N   0  0  0  0  0  0  0  0  0  0  0  0
    7.7500   -5.1290   13.5350 C   0  0  0  0  0  0  0  0  0  0  0  0
    7.4450   -6.4910   13.4340 C   0  0  0  0  0  3  0  0  0  0  0  0
    6.1810   -6.8400   12.9550 C   0  0  0  0  0  3  0  0  0  0  0  0
    5.2550   -5.8620   12.6040 C   0  0  0  0  0  3  0  0  0  0  0  0
    5.5720   -4.5020   12.7180 C   0  0  0  0  0  3  0  0  0  0  0  0
    6.8500   -4.1220   13.1800 C   0  0  0  0  0  0  0  0  0  0  0  0
    9.7080   -5.0110   14.3300 H   0  0  0  0  0  0  0  0  0  0  0  0
  1 23  1  0  0  0  0
  2  1  2  0  0  0  0
  3  4  2  0  0  0  0
  3  2  1  0  0  0  0
  4  5  1  0  0  0  0
  5  6  2  0  0  0  0
  6  1  1  0  0  0  0
  7  5  1  0  0  0  0
  7  8  1  0  0  0  0
  8  9  2  0  0  0  0
 10  9  1  0  0  0  0
 11 10  2  0  0  0  0
 12 11  1  0  0  0  0
 12  7  2  0  0  0  0
 13 18  1  6  0  0  0
 13 14  1  0  0  0  0
 13 11  1  0  0  0  0
 14 16  1  0  0  0  0
 15 14  2  0  0  0  0
 16 10  1  0  0  0  0
 16 17  1  0  0  0  0
 18 22  1  0  0  0  0
 19 18  2  0  0  0  0
 20 19  1  0  0  0  0
 20 21  2  0  0  0  0
 21 22  1  0  0  0  0
 23 24  1  0  0  0  0
 25 24  1  6  0  0  0
 25 30  1  0  0  0  0
 25 26  1  0  0  0  0
 26 27  1  0  0  0  0
 26 29  1  0  0  0  0
 28 26  1  0  0  0  0
 30 31  1  0  0  0  0
 31 32  2  0  0  0  0
 32 33  1  0  0  0  0
 33 40  1  0  0  0  0
 34 33  1  0  0  0  0
 35 34  1  0  0  0  0
 36 35  2  0  0  0  0
 37 38  2  0  0  0  0
 37 36  1  0  0  0  0
 38 39  1  0  0  0  0
 39 31  1  0  0  0  0
 39 34  2  0  0  0  0
M  END
>  <minimizedAffinity>
-12.016634

$$$$

 OpenBabel11232418493D

 40 45  0  0  1  0  0  0  0  0999 V2000
    6.8370   -4.9520   10.1990 C   0  0  0  0  0  0  0  0  0  0  0  0
    6.7970   -5.5100    8.9260 C   0  0  0  0  0  3  0  0  0  0  0  0
    7.0680   -6.8060    8.6540 N   0  0  0  0  0  0  0  0  0  0  0  0
    7.4280   -7.5900    9.6950 C   0  0  0  0  0  3  0  0  0  0  0  0
    7.5150   -7.1400   11.0080 C   0  0  0  0  0  0  0  0  0  0  0  0
    7.2170   -5.7880   11.2480 C   0  0  0  0  0  3  0  0  0  0  0  0
    7.8700   -8.0320   12.1140 C   0  0  0  0  0  0  0  0  0  0  0  0
    7.0710   -9.1670   12.3990 C   0  0  0  0  0  3  0  0  0  0  0  0
    7.3520  -10.0030   13.4840 C   0  0  0  0  0  3  0  0  0  0  0  0
    8.4410   -9.6820   14.2640 C   0  0  0  0  0  0  0  0  0  0  0  0
    9.2500   -8.5780   14.0040 C   0  0  0  0  0  0  0  0  0  0  0  0
    8.9800   -7.7470   12.9270 C   0  0  0  0  0  3  0  0  0  0  0  0
   10.3740   -8.5290   15.0120 C   0  0  2  0  0  3  0  0  0  0  0  0
   10.0470   -9.7560   15.8990 C   0  0  0  0  0  0  0  0  0  0  0  0
   10.6620  -10.1600   16.8720 O   0  0  0  0  0  0  0  0  0  0  0  0
    8.9070  -10.3620   15.3740 N   0  0  0  0  0  0  0  0  0  0  0  0
    8.5050  -11.1950   15.7800 H   0  0  0  0  0  0  0  0  0  0  0  0
   10.4610   -7.3050   15.8580 C   0  0  0  0  0  0  0  0  0  0  0  0
    9.4990   -6.5720   16.5300 C   0  0  0  0  0  3  0  0  0  0  0  0
   10.1760   -5.5310   17.2040 C   0  0  0  0  0  3  0  0  0  0  0  0
   11.5080   -5.6900   16.9130 C   0  0  0  0  0  3  0  0  0  0  0  0
   11.6950   -6.7620   16.1010 O   0  0  0  0  0  0  0  0  0  0  0  0
    6.4230   -3.6540   10.2950 O   0  0  0  0  0  0  0  0  0  0  0  0
    5.7780   -3.0380    9.1720 C   0  0  0  0  0  2  0  0  0  0  0  0
    6.5010   -1.7290    8.7870 C   0  0  1  0  0  3  0  0  0  0  0  0
    6.3780   -1.4900    7.3050 N   0  0  0  0  0  4  0  0  0  0  0  0
    5.4150   -1.2910    7.0070 H   0  0  0  0  0  0  0  0  0  0  0  0
    6.6760   -2.3400    6.8020 H   0  0  0  0  0  0  0  0  0  0  0  0
    6.9820   -0.7220    6.9870 H   0  0  0  0  0  0  0  0  0  0  0  0
    5.9650   -0.5030    9.5400 C   0  0  0  0  0  2  0  0  0  0  0  0
    6.9440    0.0330   10.5280 C   0  0  0  0  0  0  0  0  0  0  0  0
    7.9070    0.9890   10.2690 C   0  0  0  0  0  3  0  0  0  0  0  0
    8.6080    1.2220   11.4230 N   0  0  0  0  0  0  0  0  0  0  0  0
    8.1290    0.4220   12.4330 C   0  0  0  0  0  0  0  0  0  0  0  0
    8.5500    0.3160   13.7640 C   0  0  0  0  0  3  0  0  0  0  0  0
    7.8680   -0.5790   14.5910 C   0  0  0  0  0  3  0  0  0  0  0  0
    6.7990   -1.3270   14.1070 C   0  0  0  0  0  3  0  0  0  0  0  0
    6.3850   -1.2040   12.7740 C   0  0  0  0  0  3  0  0  0  0  0  0
    7.0700   -0.3220   11.9110 C   0  0  0  0  0  0  0  0  0  0  0  0
    9.3620    1.8880   11.5320 H   0  0  0  0  0  0  0  0  0  0  0  0
  1 23  1  0  0  0  0
  1  6  1  0  0  0  0
  2  1  2  0  0  0  0
  3  2  1  0  0  0  0
  3  4  2  0  0  0  0
  4  5  1  0  0  0  0
  5  6  2  0  0  0  0
  5  7  1  0  0  0  0
  7  8  2  0  0  0  0
  7 12  1  0  0  0  0
  8  9  1  0  0  0  0
  9 10  2  0  0  0  0
 10 16  1  0  0  0  0
 11 10  1  0  0  0  0
 11 13  1  0  0  0  0
 12 11  2  0  0  0  0
 13 18  1  1  0  0  0
 13 14  1  0  0  0  0
 14 15  2  0  0  0  0
 16 17  1  0  0  0  0
 16 14  1  0  0  0  0
 18 22  1  0  0  0  0
 18 19  2  0  0  0  0
 19 20  1  0  0  0  0
 21 20  2  0  0  0  0
 22 21  1  0  0  0  0
 24 23  1  0  0  0  0
 25 24  1  1  0  0  0
 25 30  1  0  0  0  0
 26 25  1  0  0  0  0
 27 26  1  0  0  0  0
 28 26  1  0  0  0  0
 29 26  1  0  0  0  0
 30 31  1  0  0  0  0
 31 39  1  0  0  0  0
 32 31  2  0  0  0  0
 32 33  1  0  0  0  0
 33 40  1  0  0  0  0
 33 34  1  0  0  0  0
 34 35  1  0  0  0  0
 35 36  2  0  0  0  0
 37 36  1  0  0  0  0
 38 37  2  0  0  0  0
 39 34  2  0  0  0  0
 39 38  1  0  0  0  0
M  END
>  <minimizedAffinity>
-12.0129232

$$$$

 OpenBabel11232418493D

 40 45  0  0  1  0  0  0  0  0999 V2000
    6.7460   -4.9150   10.3760 C   0  0  0  0  0  0  0  0  0  0  0  0
    6.7640   -5.6720    9.2090 C   0  0  0  0  0  3  0  0  0  0  0  0
    7.1620   -6.9610    9.1440 N   0  0  0  0  0  0  0  0  0  0  0  0
    7.5960   -7.5290   10.2920 C   0  0  0  0  0  3  0  0  0  0  0  0
    7.6350   -6.8670   11.5150 C   0  0  0  0  0  0  0  0  0  0  0  0
    7.2050   -5.5300   11.5390 C   0  0  0  0  0  3  0  0  0  0  0  0
    8.0750   -7.5300   12.7440 C   0  0  0  0  0  0  0  0  0  0  0  0
    9.2070   -7.0500   13.4470 C   0  0  0  0  0  3  0  0  0  0  0  0
    9.6850   -7.6980   14.5910 C   0  0  0  0  0  3  0  0  0  0  0  0
    9.0070   -8.8210   15.0110 C   0  0  0  0  0  0  0  0  0  0  0  0
    7.8860   -9.3120   14.3460 C   0  0  0  0  0  0  0  0  0  0  0  0
    7.4030   -8.6720   13.2130 C   0  0  0  0  0  3  0  0  0  0  0  0
    7.3550  -10.5230   15.0780 C   0  0  2  0  0  3  0  0  0  0  0  0
    8.3770  -10.6550   16.2340 C   0  0  0  0  0  0  0  0  0  0  0  0
    8.3970  -11.4920   17.1220 O   0  0  0  0  0  0  0  0  0  0  0  0
    9.2930   -9.6130   16.1080 N   0  0  0  0  0  0  0  0  0  0  0  0
   10.0540   -9.4820   16.7590 H   0  0  0  0  0  0  0  0  0  0  0  0
    7.2990  -11.7990   14.3080 C   0  0  0  0  0  0  0  0  0  0  0  0
    8.2130  -12.4220   13.4780 C   0  0  0  0  0  3  0  0  0  0  0  0
    7.6230  -13.6350   13.0580 C   0  0  0  0  0  3  0  0  0  0  0  0
    6.3890  -13.6870   13.6580 C   0  0  0  0  0  3  0  0  0  0  0  0
    6.1810  -12.5830   14.4200 O   0  0  0  0  0  0  0  0  0  0  0  0
    6.2040   -3.6660   10.2680 O   0  0  0  0  0  0  0  0  0  0  0  0
    5.8260   -3.1730    8.9760 C   0  0  0  0  0  2  0  0  0  0  0  0
    6.4870   -1.8040    8.7060 C   0  0  1  0  0  3  0  0  0  0  0  0
    6.3620   -1.4500    7.2480 N   0  0  0  0  0  4  0  0  0  0  0  0
    5.3920   -1.2730    6.9570 H   0  0  0  0  0  0  0  0  0  0  0  0
    6.7050   -2.2400    6.6800 H   0  0  0  0  0  0  0  0  0  0  0  0
    6.9300   -0.6300    7.0000 H   0  0  0  0  0  0  0  0  0  0  0  0
    5.8880   -0.6700    9.5520 C   0  0  0  0  0  2  0  0  0  0  0  0
    6.8780   -0.0790   10.4970 C   0  0  0  0  0  0  0  0  0  0  0  0
    7.8110    0.8890   10.1810 C   0  0  0  0  0  3  0  0  0  0  0  0
    8.5330    1.1780   11.3090 N   0  0  0  0  0  0  0  0  0  0  0  0
    8.0980    0.4040   12.3580 C   0  0  0  0  0  0  0  0  0  0  0  0
    8.5520    0.3550   13.6800 C   0  0  0  0  0  3  0  0  0  0  0  0
    7.9100   -0.5250   14.5540 C   0  0  0  0  0  3  0  0  0  0  0  0
    6.8480   -1.3140   14.1230 C   0  0  0  0  0  3  0  0  0  0  0  0
    6.4000   -1.2470   12.7970 C   0  0  0  0  0  3  0  0  0  0  0  0
    7.0440   -0.3810   11.8880 C   0  0  0  0  0  0  0  0  0  0  0  0
    9.2750    1.8640   11.3760 H   0  0  0  0  0  0  0  0  0  0  0  0
  1  6  1  0  0  0  0
  2  1  2  0  0  0  0
  3  2  1  0  0  0  0
  3  4  2  0  0  0  0
  4  5  1  0  0  0  0
  5  6  2  0  0  0  0
  5  7  1  0  0  0  0
  7 12  2  0  0  0  0
  7  8  1  0  0  0  0
  8  9  2  0  0  0  0
  9 10  1  0  0  0  0
 10 16  1  0  0  0  0
 11 10  2  0  0  0  0
 11 13  1  0  0  0  0
 12 11  1  0  0  0  0
 13 18  1  6  0  0  0
 13 14  1  0  0  0  0
 14 15  2  0  0  0  0
 16 14  1  0  0  0  0
 16 17  1  0  0  0  0
 18 22  1  0  0  0  0
 19 18  2  0  0  0  0
 20 19  1  0  0  0  0
 20 21  2  0  0  0  0
 21 22  1  0  0  0  0
 23  1  1  0  0  0  0
 24 23  1  0  0  0  0
 25 24  1  6  0  0  0
 25 30  1  0  0  0  0
 26 25  1  0  0  0  0
 27 26  1  0  0  0  0
 28 26  1  0  0  0  0
 29 26  1  0  0  0  0
 30 31  1  0  0  0  0
 31 39  1  0  0  0  0
 32 31  2  0  0  0  0
 32 33  1  0  0  0  0
 33 40  1  0  0  0  0
 33 34  1  0  0  0  0
 34 35  1  0  0  0  0
 35 36  2  0  0  0  0
 37 36  1  0  0  0  0
 38 37  2  0  0  0  0
 39 34  2  0  0  0  0
 39 38  1  0  0  0  0
M  END
>  <minimizedAffinity>
-11.8183012

$$$$

 OpenBabel11232418493D

 40 45  0  0  1  0  0  0  0  0999 V2000
    6.0290   -6.1020    6.0750 C   0  0  0  0  0  0  0  0  0  0  0  0
    5.7910   -5.4650    4.8620 C   0  0  0  0  0  3  0  0  0  0  0  0
    5.7270   -4.1250    4.7050 N   0  0  0  0  0  0  0  0  0  0  0  0
    5.8760   -3.3680    5.8150 C   0  0  0  0  0  3  0  0  0  0  0  0
    6.1040   -3.8930    7.0830 C   0  0  0  0  0  0  0  0  0  0  0  0
    6.1720   -5.2910    7.2000 C   0  0  0  0  0  3  0  0  0  0  0  0
    6.3000   -3.0370    8.2550 C   0  0  0  0  0  0  0  0  0  0  0  0
    6.4890   -1.6420    8.0950 C   0  0  0  0  0  3  0  0  0  0  0  0
    6.7360   -0.8090    9.1900 C   0  0  0  0  0  3  0  0  0  0  0  0
    6.7840   -1.3970   10.4350 C   0  0  0  0  0  0  0  0  0  0  0  0
    6.5930   -2.7640   10.6250 C   0  0  0  0  0  0  0  0  0  0  0  0
    6.3430   -3.5960    9.5430 C   0  0  0  0  0  3  0  0  0  0  0  0
    6.6660   -3.0830   12.1000 C   0  0  2  0  0  3  0  0  0  0  0  0
    6.9650   -1.6880   12.7010 C   0  0  0  0  0  0  0  0  0  0  0  0
    7.1210   -1.3980   13.8780 O   0  0  0  0  0  0  0  0  0  0  0  0
    7.0070   -0.7750   11.6490 N   0  0  0  0  0  0  0  0  0  0  0  0
    7.1770    0.2090   11.7960 H   0  0  0  0  0  0  0  0  0  0  0  0
    7.7190   -4.0500   12.5240 C   0  0  0  0  0  0  0  0  0  0  0  0
    8.8020   -4.5920   11.8560 C   0  0  0  0  0  3  0  0  0  0  0  0
    9.4760   -5.4230   12.7800 C   0  0  0  0  0  3  0  0  0  0  0  0
    8.7730   -5.3370   13.9560 C   0  0  0  0  0  3  0  0  0  0  0  0
    7.7080   -4.5060   13.8160 O   0  0  0  0  0  0  0  0  0  0  0  0
    6.1720   -7.4590    6.0200 O   0  0  0  0  0  0  0  0  0  0  0  0
    7.1880   -8.0910    6.8080 C   0  0  0  0  0  2  0  0  0  0  0  0
    6.7320   -8.2120    8.2790 C   0  0  1  0  0  3  0  0  0  0  0  0
    6.3990   -9.6450    8.5980 N   0  0  0  0  0  4  0  0  0  0  0  0
    7.2190  -10.2640    8.5840 H   0  0  0  0  0  0  0  0  0  0  0  0
    5.7420  -10.0030    7.8880 H   0  0  0  0  0  0  0  0  0  0  0  0
    5.9370   -9.7380    9.5120 H   0  0  0  0  0  0  0  0  0  0  0  0
    7.7840   -7.7060    9.2780 C   0  0  0  0  0  2  0  0  0  0  0  0
    7.3520   -7.8720   10.6950 C   0  0  0  0  0  0  0  0  0  0  0  0
    6.1240   -7.5050   11.2090 C   0  0  0  0  0  3  0  0  0  0  0  0
    6.1010   -7.8190   12.5420 N   0  0  0  0  0  0  0  0  0  0  0  0
    7.3020   -8.3720   12.9150 C   0  0  0  0  0  0  0  0  0  0  0  0
    7.7260   -8.8240   14.1700 C   0  0  0  0  0  3  0  0  0  0  0  0
    9.0100   -9.3640   14.2660 C   0  0  0  0  0  3  0  0  0  0  0  0
    9.8310   -9.4580   13.1460 C   0  0  0  0  0  3  0  0  0  0  0  0
    9.3890   -9.0080   11.8950 C   0  0  0  0  0  3  0  0  0  0  0  0
    8.1030   -8.4400   11.7740 C   0  0  0  0  0  0  0  0  0  0  0  0
    5.3190   -7.6770   13.1690 H   0  0  0  0  0  0  0  0  0  0  0  0
  1  6  1  0  0  0  0
  2  1  2  0  0  0  0
  3  2  1  0  0  0  0
  3  4  2  0  0  0  0
  4  5  1  0  0  0  0
  5  6  2  0  0  0  0
  5  7  1  0  0  0  0
  7 12  1  0  0  0  0
  8  7  2  0  0  0  0
  8  9  1  0  0  0  0
  9 10  2  0  0  0  0
 10 11  1  0  0  0  0
 10 16  1  0  0  0  0
 11 13  1  0  0  0  0
 12 11  2  0  0  0  0
 13 18  1  6  0  0  0
 13 14  1  0  0  0  0
 14 15  2  0  0  0  0
 16 17  1  0  0  0  0
 16 14  1  0  0  0  0
 18 22  1  0  0  0  0
 19 18  2  0  0  0  0
 19 20  1  0  0  0  0
 20 21  2  0  0  0  0
 22 21  1  0  0  0  0
 23  1  1  0  0  0  0
 23 24  1  0  0  0  0
 25 24  1  6  0  0  0
 25 26  1  0  0  0  0
 25 30  1  0  0  0  0
 26 29  1  0  0  0  0
 27 26  1  0  0  0  0
 28 26  1  0  0  0  0
 30 31  1  0  0  0  0
 31 32  2  0  0  0  0
 31 39  1  0  0  0  0
 32 33  1  0  0  0  0
 33 34  1  0  0  0  0
 33 40  1  0  0  0  0
 34 35  1  0  0  0  0
 35 36  2  0  0  0  0
 37 36  1  0  0  0  0
 38 37  2  0  0  0  0
 39 38  1  0  0  0  0
 39 34  2  0  0  0  0
M  END
>  <minimizedAffinity>
-11.599205

$$$$

 OpenBabel11232418493D

 40 45  0  0  1  0  0  0  0  0999 V2000
    7.8730   -7.7110   10.4200 C   0  0  0  0  0  0  0  0  0  0  0  0
    6.6420   -8.3530   10.5150 C   0  0  0  0  0  3  0  0  0  0  0  0
    6.1550   -8.9020   11.6490 N   0  0  0  0  0  0  0  0  0  0  0  0
    6.9400   -8.8400   12.7480 C   0  0  0  0  0  3  0  0  0  0  0  0
    8.1930   -8.2350   12.7700 C   0  0  0  0  0  0  0  0  0  0  0  0
    8.6580   -7.6710   11.5710 C   0  0  0  0  0  3  0  0  0  0  0  0
    8.9950   -8.1540   13.9920 C   0  0  0  0  0  0  0  0  0  0  0  0
    9.6370   -6.9420   14.3440 C   0  0  0  0  0  3  0  0  0  0  0  0
   10.4580   -6.8510   15.4730 C   0  0  0  0  0  3  0  0  0  0  0  0
   10.6130   -7.9880   16.2350 C   0  0  0  0  0  0  0  0  0  0  0  0
    9.9880   -9.1920   15.9200 C   0  0  0  0  0  0  0  0  0  0  0  0
    9.1700   -9.2890   14.8040 C   0  0  0  0  0  3  0  0  0  0  0  0
   10.3270  -10.2250   16.9680 C   0  0  2  0  0  3  0  0  0  0  0  0
   11.2700   -9.4220   17.8980 C   0  0  0  0  0  0  0  0  0  0  0  0
   11.8280   -9.8100   18.9120 O   0  0  0  0  0  0  0  0  0  0  0  0
   11.3650   -8.1300   17.3870 N   0  0  0  0  0  0  0  0  0  0  0  0
   11.9190   -7.4140   17.8330 H   0  0  0  0  0  0  0  0  0  0  0  0
   11.0180  -11.4590   16.4930 C   0  0  0  0  0  0  0  0  0  0  0  0
   12.3080  -11.6840   16.0470 C   0  0  0  0  0  3  0  0  0  0  0  0
   12.4080  -13.0660   15.7690 C   0  0  0  0  0  3  0  0  0  0  0  0
   11.1800  -13.6050   16.0670 C   0  0  0  0  0  3  0  0  0  0  0  0
   10.3300  -12.6430   16.5100 O   0  0  0  0  0  0  0  0  0  0  0  0
    8.1460   -7.1200    9.2200 O   0  0  0  0  0  0  0  0  0  0  0  0
    7.1010   -6.9850    8.2490 C   0  0  0  0  0  2  0  0  0  0  0  0
    7.1210   -5.5720    7.6270 C   0  0  1  0  0  3  0  0  0  0  0  0
    7.0930   -5.6700    6.1240 N   0  0  0  0  0  4  0  0  0  0  0  0
    6.2080   -6.0440    5.7610 H   0  0  0  0  0  0  0  0  0  0  0  0
    7.8380   -6.3120    5.8170 H   0  0  0  0  0  0  0  0  0  0  0  0
    7.2710   -4.7620    5.6770 H   0  0  0  0  0  0  0  0  0  0  0  0
    5.9510   -4.6930    8.0960 C   0  0  0  0  0  2  0  0  0  0  0  0
    6.3880   -3.6040    9.0150 C   0  0  0  0  0  0  0  0  0  0  0  0
    6.6840   -2.3080    8.6420 C   0  0  0  0  0  3  0  0  0  0  0  0
    7.0420   -1.6060    9.7630 N   0  0  0  0  0  0  0  0  0  0  0  0
    6.9990   -2.4260   10.8650 C   0  0  0  0  0  0  0  0  0  0  0  0
    7.2950   -2.1400   12.2020 C   0  0  0  0  0  3  0  0  0  0  0  0
    7.1510   -3.1710   13.1330 C   0  0  0  0  0  3  0  0  0  0  0  0
    6.7140   -4.4330   12.7410 C   0  0  0  0  0  3  0  0  0  0  0  0
    6.4140   -4.7000   11.3990 C   0  0  0  0  0  3  0  0  0  0  0  0
    6.5710   -3.6820   10.4340 C   0  0  0  0  0  0  0  0  0  0  0  0
    7.2940   -0.6250    9.7900 H   0  0  0  0  0  0  0  0  0  0  0  0
  1  2  2  0  0  0  0
  1  6  1  0  0  0  0
  2  3  1  0  0  0  0
  3  4  2  0  0  0  0
  4  5  1  0  0  0  0
  5  7  1  0  0  0  0
  6  5  2  0  0  0  0
  7  8  2  0  0  0  0
  7 12  1  0  0  0  0
  8  9  1  0  0  0  0
  9 10  2  0  0  0  0
 10 16  1  0  0  0  0
 11 10  1  0  0  0  0
 11 13  1  0  0  0  0
 12 11  2  0  0  0  0
 13 18  1  6  0  0  0
 13 14  1  0  0  0  0
 14 15  2  0  0  0  0
 16 17  1  0  0  0  0
 16 14  1  0  0  0  0
 18 22  1  0  0  0  0
 19 18  2  0  0  0  0
 20 19  1  0  0  0  0
 20 21  2  0  0  0  0
 21 22  1  0  0  0  0
 23  1  1  0  0  0  0
 24 23  1  0  0  0  0
 25 30  1  1  0  0  0
 25 24  1  0  0  0  0
 26 25  1  0  0  0  0
 27 26  1  0  0  0  0
 28 26  1  0  0  0  0
 29 26  1  0  0  0  0
 30 31  1  0  0  0  0
 31 39  1  0  0  0  0
 32 31  2  0  0  0  0
 32 33  1  0  0  0  0
 33 40  1  0  0  0  0
 33 34  1  0  0  0  0
 34 35  1  0  0  0  0
 35 36  2  0  0  0  0
 37 36  1  0  0  0  0
 38 37  2  0  0  0  0
 39 34  2  0  0  0  0
 39 38  1  0  0  0  0
M  END
>  <minimizedAffinity>
-11.5112019

$$$$

 OpenBabel11232418493D

 40 45  0  0  1  0  0  0  0  0999 V2000
    7.4100   -7.2650   13.6600 C   0  0  0  0  0  0  0  0  0  0  0  0
    7.1050   -8.6180   13.5600 C   0  0  0  0  0  3  0  0  0  0  0  0
    6.7210   -9.2290   12.4170 N   0  0  0  0  0  0  0  0  0  0  0  0
    6.6030   -8.4540   11.3160 C   0  0  0  0  0  3  0  0  0  0  0  0
    6.8690   -7.0880   11.2990 C   0  0  0  0  0  0  0  0  0  0  0  0
    7.2730   -6.4950   12.5060 C   0  0  0  0  0  3  0  0  0  0  0  0
    6.7680   -6.2920   10.0740 C   0  0  0  0  0  0  0  0  0  0  0  0
    7.1790   -6.8370    8.8340 C   0  0  0  0  0  3  0  0  0  0  0  0
    7.1500   -6.0810    7.6580 C   0  0  0  0  0  3  0  0  0  0  0  0
    6.6990   -4.7830    7.7530 C   0  0  0  0  0  0  0  0  0  0  0  0
    6.2800   -4.2210    8.9570 C   0  0  0  0  0  0  0  0  0  0  0  0
    6.3030   -4.9670   10.1260 C   0  0  0  0  0  3  0  0  0  0  0  0
    5.8100   -2.8060    8.7160 C   0  0  2  0  0  3  0  0  0  0  0  0
    6.0670   -2.6500    7.1970 C   0  0  0  0  0  0  0  0  0  0  0  0
    5.8540   -1.6710    6.4990 O   0  0  0  0  0  0  0  0  0  0  0  0
    6.5790   -3.8590    6.7300 N   0  0  0  0  0  0  0  0  0  0  0  0
    6.8150   -4.0050    5.7600 H   0  0  0  0  0  0  0  0  0  0  0  0
    6.5240   -1.7280    9.4600 C   0  0  0  0  0  0  0  0  0  0  0  0
    6.7030   -0.3820    9.1970 C   0  0  0  0  0  3  0  0  0  0  0  0
    7.4330    0.1520   10.2820 C   0  0  0  0  0  3  0  0  0  0  0  0
    7.6520   -0.8920   11.1470 C   0  0  0  0  0  3  0  0  0  0  0  0
    7.1020   -2.0360   10.6630 O   0  0  0  0  0  0  0  0  0  0  0  0
    7.8880   -6.8490   14.8710 O   0  0  0  0  0  0  0  0  0  0  0  0
    9.1870   -6.2490   14.9440 C   0  0  0  0  0  2  0  0  0  0  0  0
   10.2150   -7.2560   15.5050 C   0  0  1  0  0  3  0  0  0  0  0  0
   11.5350   -6.5690   15.7370 N   0  0  0  0  0  4  0  0  0  0  0  0
   11.5000   -5.8690   16.4880 H   0  0  0  0  0  0  0  0  0  0  0  0
   11.8100   -6.0710   14.8770 H   0  0  0  0  0  0  0  0  0  0  0  0
   12.2850   -7.2390   15.9520 H   0  0  0  0  0  0  0  0  0  0  0  0
    9.7560   -7.9170   16.8130 C   0  0  0  0  0  2  0  0  0  0  0  0
   10.5620   -9.1240   17.1570 C   0  0  0  0  0  0  0  0  0  0  0  0
   11.6480   -9.1490   18.0090 C   0  0  0  0  0  3  0  0  0  0  0  0
   12.1180  -10.4340   18.0740 N   0  0  0  0  0  0  0  0  0  0  0  0
   11.3660  -11.2510   17.2640 C   0  0  0  0  0  0  0  0  0  0  0  0
   11.4940  -12.6220   17.0130 C   0  0  0  0  0  3  0  0  0  0  0  0
   10.5710  -13.2120   16.1470 C   0  0  0  0  0  3  0  0  0  0  0  0
    9.5540  -12.4600   15.5660 C   0  0  0  0  0  3  0  0  0  0  0  0
    9.4350  -11.0900   15.8340 C   0  0  0  0  0  3  0  0  0  0  0  0
   10.3670  -10.4640   16.6900 C   0  0  0  0  0  0  0  0  0  0  0  0
   12.8970  -10.7500   18.6380 H   0  0  0  0  0  0  0  0  0  0  0  0
  1 23  1  0  0  0  0
  2  1  1  0  0  0  0
  3  2  2  0  0  0  0
  4  3  1  0  0  0  0
  5  4  2  0  0  0  0
  5  6  1  0  0  0  0
  6  1  2  0  0  0  0
  7 12  1  0  0  0  0
  7  5  1  0  0  0  0
  8  7  2  0  0  0  0
  9 10  2  0  0  0  0
  9  8  1  0  0  0  0
 10 11  1  0  0  0  0
 11 12  2  0  0  0  0
 13 11  1  0  0  0  0
 13 18  1  1  0  0  0
 14 13  1  0  0  0  0
 15 14  2  0  0  0  0
 16 14  1  0  0  0  0
 16 10  1  0  0  0  0
 17 16  1  0  0  0  0
 18 22  1  0  0  0  0
 19 18  2  0  0  0  0
 19 20  1  0  0  0  0
 20 21  2  0  0  0  0
 22 21  1  0  0  0  0
 23 24  1  0  0  0  0
 25 24  1  1  0  0  0
 25 26  1  0  0  0  0
 25 30  1  0  0  0  0
 26 29  1  0  0  0  0
 26 27  1  0  0  0  0
 28 26  1  0  0  0  0
 30 31  1  0  0  0  0
 31 32  2  0  0  0  0
 32 33  1  0  0  0  0
 33 40  1  0  0  0  0
 34 33  1  0  0  0  0
 35 34  1  0  0  0  0
 36 35  2  0  0  0  0
 37 38  2  0  0  0  0
 37 36  1  0  0  0  0
 38 39  1  0  0  0  0
 39 31  1  0  0  0  0
 39 34  2  0  0  0  0
M  END
>  <minimizedAffinity>
-11.508503

$$$$

 OpenBabel11232418493D

 40 45  0  0  1  0  0  0  0  0999 V2000
   10.3900   -7.9290   15.2750 C   0  0  0  0  0  0  0  0  0  0  0  0
   10.7890   -7.3960   16.4970 C   0  0  0  0  0  3  0  0  0  0  0  0
   11.2000   -8.1340   17.5510 N   0  0  0  0  0  0  0  0  0  0  0  0
   11.1880   -9.4780   17.4030 C   0  0  0  0  0  3  0  0  0  0  0  0
   10.7970  -10.1230   16.2340 C   0  0  0  0  0  0  0  0  0  0  0  0
   10.3850   -9.3180   15.1600 C   0  0  0  0  0  3  0  0  0  0  0  0
   10.8360  -11.5810   16.1010 C   0  0  0  0  0  0  0  0  0  0  0  0
   12.0700  -12.2710   16.1860 C   0  0  0  0  0  3  0  0  0  0  0  0
   12.1460  -13.6560   16.0040 C   0  0  0  0  0  3  0  0  0  0  0  0
   10.9710  -14.3240   15.7430 C   0  0  0  0  0  0  0  0  0  0  0  0
    9.7410  -13.6750   15.6620 C   0  0  0  0  0  0  0  0  0  0  0  0
    9.6580  -12.3020   15.8460 C   0  0  0  0  0  3  0  0  0  0  0  0
    8.6510  -14.6890   15.4070 C   0  0  2  0  0  3  0  0  0  0  0  0
    9.4670  -16.0020   15.3190 C   0  0  0  0  0  0  0  0  0  0  0  0
    9.0480  -17.1310   15.1200 O   0  0  0  0  0  0  0  0  0  0  0  0
   10.8060  -15.6810   15.5360 N   0  0  0  0  0  0  0  0  0  0  0  0
   11.5340  -16.3810   15.5380 H   0  0  0  0  0  0  0  0  0  0  0  0
    7.8500  -14.5110   14.1610 C   0  0  0  0  0  0  0  0  0  0  0  0
    7.7600  -13.4660   13.2590 C   0  0  0  0  0  3  0  0  0  0  0  0
    6.8660  -13.8790   12.2450 C   0  0  0  0  0  3  0  0  0  0  0  0
    6.4670  -15.1490   12.5820 C   0  0  0  0  0  3  0  0  0  0  0  0
    7.0580  -15.5450   13.7380 O   0  0  0  0  0  0  0  0  0  0  0  0
   10.1170   -7.0230   14.2900 O   0  0  0  0  0  0  0  0  0  0  0  0
    8.7540   -6.6800   14.0100 C   0  0  0  0  0  2  0  0  0  0  0  0
    8.6860   -5.3970   13.1530 C   0  0  1  0  0  3  0  0  0  0  0  0
    9.8580   -5.3450   12.2100 N   0  0  0  0  0  4  0  0  0  0  0  0
    9.8290   -6.0770   11.4890 H   0  0  0  0  0  0  0  0  0  0  0  0
   10.7270   -5.4870   12.7460 H   0  0  0  0  0  0  0  0  0  0  0  0
    9.9360   -4.4320   11.7430 H   0  0  0  0  0  0  0  0  0  0  0  0
    7.3840   -5.2830   12.3460 C   0  0  0  0  0  2  0  0  0  0  0  0
    7.2560   -3.9690   11.6530 C   0  0  0  0  0  0  0  0  0  0  0  0
    7.4700   -2.7320   12.2290 C   0  0  0  0  0  3  0  0  0  0  0  0
    7.2590   -1.7690   11.2770 N   0  0  0  0  0  0  0  0  0  0  0  0
    6.8950   -2.3540   10.0890 C   0  0  0  0  0  0  0  0  0  0  0  0
    6.5730   -1.7610    8.8630 C   0  0  0  0  0  3  0  0  0  0  0  0
    6.2490   -2.6050    7.7990 C   0  0  0  0  0  3  0  0  0  0  0  0
    6.2610   -3.9880    7.9540 C   0  0  0  0  0  3  0  0  0  0  0  0
    6.5920   -4.5670    9.1850 C   0  0  0  0  0  3  0  0  0  0  0  0
    6.9040   -3.7360   10.2830 C   0  0  0  0  0  0  0  0  0  0  0  0
    7.3610   -0.7710   11.4150 H   0  0  0  0  0  0  0  0  0  0  0  0
  1  2  1  0  0  0  0
  2  3  2  0  0  0  0
  4  3  1  0  0  0  0
  5  4  2  0  0  0  0
  6  1  2  0  0  0  0
  6  5  1  0  0  0  0
  7  8  1  0  0  0  0
  7  5  1  0  0  0  0
  9  8  2  0  0  0  0
 10  9  1  0  0  0  0
 11 10  2  0  0  0  0
 11 12  1  0  0  0  0
 12  7  2  0  0  0  0
 13 18  1  6  0  0  0
 13 11  1  0  0  0  0
 14 13  1  0  0  0  0
 14 16  1  0  0  0  0
 15 14  2  0  0  0  0
 16 17  1  0  0  0  0
 16 10  1  0  0  0  0
 19 18  2  0  0  0  0
 20 21  2  0  0  0  0
 20 19  1  0  0  0  0
 21 22  1  0  0  0  0
 22 18  1  0  0  0  0
 23  1  1  0  0  0  0
 24 23  1  0  0  0  0
 25 30  1  6  0  0  0
 25 24  1  0  0  0  0
 26 28  1  0  0  0  0
 26 25  1  0  0  0  0
 27 26  1  0  0  0  0
 29 26  1  0  0  0  0
 31 32  2  0  0  0  0
 31 30  1  0  0  0  0
 33 40  1  0  0  0  0
 33 32  1  0  0  0  0
 34 39  1  0  0  0  0
 34 33  1  0  0  0  0
 35 34  2  0  0  0  0
 36 37  2  0  0  0  0
 36 35  1  0  0  0  0
 37 38  1  0  0  0  0
 38 39  2  0  0  0  0
 39 31  1  0  0  0  0
M  END
>  <minimizedAffinity>
-11.2790413

$$$$

 OpenBabel11232418493D

 40 45  0  0  1  0  0  0  0  0999 V2000
    7.8530   -7.6580   11.0380 C   0  0  0  0  0  0  0  0  0  0  0  0
    6.6950   -8.4280   11.0780 C   0  0  0  0  0  3  0  0  0  0  0  0
    6.3090   -9.1670   12.1410 N   0  0  0  0  0  0  0  0  0  0  0  0
    7.1280   -9.1700   13.2170 C   0  0  0  0  0  3  0  0  0  0  0  0
    8.3160   -8.4500   13.2870 C   0  0  0  0  0  0  0  0  0  0  0  0
    8.6760   -7.6890   12.1620 C   0  0  0  0  0  3  0  0  0  0  0  0
    9.1560   -8.4490   14.4860 C   0  0  0  0  0  0  0  0  0  0  0  0
    9.8990   -7.2950   14.8340 C   0  0  0  0  0  3  0  0  0  0  0  0
   10.7550   -7.2830   15.9410 C   0  0  0  0  0  3  0  0  0  0  0  0
   10.8410   -8.4400   16.6840 C   0  0  0  0  0  0  0  0  0  0  0  0
   10.1160   -9.5880   16.3720 C   0  0  0  0  0  0  0  0  0  0  0  0
    9.2630   -9.6040   15.2790 C   0  0  0  0  0  3  0  0  0  0  0  0
   10.4020  -10.6590   17.3980 C   0  0  2  0  0  3  0  0  0  0  0  0
   11.4290   -9.9450   18.3110 C   0  0  0  0  0  0  0  0  0  0  0  0
   11.9830  -10.3890   19.3040 O   0  0  0  0  0  0  0  0  0  0  0  0
   11.6110   -8.6560   17.8130 N   0  0  0  0  0  0  0  0  0  0  0  0
   12.2310   -7.9920   18.2510 H   0  0  0  0  0  0  0  0  0  0  0  0
   10.9820  -11.9350   16.8890 C   0  0  0  0  0  0  0  0  0  0  0  0
   12.1530  -12.2130   16.2070 C   0  0  0  0  0  3  0  0  0  0  0  0
   12.1950  -13.6140   16.0230 C   0  0  0  0  0  3  0  0  0  0  0  0
   11.0550  -14.1100   16.6070 C   0  0  0  0  0  3  0  0  0  0  0  0
   10.3130  -13.1040   17.1380 O   0  0  0  0  0  0  0  0  0  0  0  0
    8.0200   -6.8890    9.9210 O   0  0  0  0  0  0  0  0  0  0  0  0
    6.8760   -6.2770    9.3130 C   0  0  0  0  0  2  0  0  0  0  0  0
    6.9870   -4.7380    9.3820 C   0  0  1  0  0  3  0  0  0  0  0  0
    6.4710   -4.1260    8.1060 N   0  0  0  0  0  4  0  0  0  0  0  0
    5.4600   -4.2550    7.9770 H   0  0  0  0  0  0  0  0  0  0  0  0
    6.9360   -4.5800    7.3050 H   0  0  0  0  0  0  0  0  0  0  0  0
    6.6810   -3.1220    8.0490 H   0  0  0  0  0  0  0  0  0  0  0  0
    6.2280   -4.1330   10.5720 C   0  0  0  0  0  2  0  0  0  0  0  0
    7.0300   -3.1080   11.3000 C   0  0  0  0  0  0  0  0  0  0  0  0
    7.7600   -3.3270   12.4510 C   0  0  0  0  0  3  0  0  0  0  0  0
    8.3600   -2.1500   12.8140 N   0  0  0  0  0  0  0  0  0  0  0  0
    8.0220   -1.1570   11.9260 C   0  0  0  0  0  0  0  0  0  0  0  0
    8.3900    0.1930   11.9140 C   0  0  0  0  0  3  0  0  0  0  0  0
    7.9090    0.9870   10.8710 C   0  0  0  0  0  3  0  0  0  0  0  0
    7.1020    0.4470    9.8740 C   0  0  0  0  0  3  0  0  0  0  0  0
    6.7490   -0.9090    9.8970 C   0  0  0  0  0  3  0  0  0  0  0  0
    7.2050   -1.7290   10.9500 C   0  0  0  0  0  0  0  0  0  0  0  0
    8.9700   -2.0190   13.6110 H   0  0  0  0  0  0  0  0  0  0  0  0
  1  2  2  0  0  0  0
  1  6  1  0  0  0  0
  2  3  1  0  0  0  0
  3  4  2  0  0  0  0
  4  5  1  0  0  0  0
  5  7  1  0  0  0  0
  6  5  2  0  0  0  0
  7  8  2  0  0  0  0
  7 12  1  0  0  0  0
  8  9  1  0  0  0  0
  9 10  2  0  0  0  0
 10 16  1  0  0  0  0
 11 10  1  0  0  0  0
 11 13  1  0  0  0  0
 12 11  2  0  0  0  0
 13 18  1  6  0  0  0
 13 14  1  0  0  0  0
 14 15  2  0  0  0  0
 16 17  1  0  0  0  0
 16 14  1  0  0  0  0
 18 22  1  0  0  0  0
 19 18  2  0  0  0  0
 20 19  1  0  0  0  0
 20 21  2  0  0  0  0
 21 22  1  0  0  0  0
 23  1  1  0  0  0  0
 24 23  1  0  0  0  0
 25 24  1  6  0  0  0
 25 30  1  0  0  0  0
 26 25  1  0  0  0  0
 27 26  1  0  0  0  0
 28 26  1  0  0  0  0
 29 26  1  0  0  0  0
 30 31  1  0  0  0  0
 31 32  2  0  0  0  0
 32 33  1  0  0  0  0
 33 40  1  0  0  0  0
 34 33  1  0  0  0  0
 35 34  1  0  0  0  0
 36 35  2  0  0  0  0
 37 38  2  0  0  0  0
 37 36  1  0  0  0  0
 38 39  1  0  0  0  0
 39 31  1  0  0  0  0
 39 34  2  0  0  0  0
M  END
>  <minimizedAffinity>
-11.2768755

$$$$

 OpenBabel11232418493D

 40 45  0  0  1  0  0  0  0  0999 V2000
    8.6000   -8.9830   14.7460 C   0  0  0  0  0  0  0  0  0  0  0  0
    9.2980   -7.9060   15.2830 C   0  0  0  0  0  3  0  0  0  0  0  0
   10.4560   -8.0160   15.9710 N   0  0  0  0  0  0  0  0  0  0  0  0
   10.9370   -9.2640   16.1680 C   0  0  0  0  0  3  0  0  0  0  0  0
   10.3200  -10.4150   15.6910 C   0  0  0  0  0  0  0  0  0  0  0  0
    9.1230  -10.2550   14.9730 C   0  0  0  0  0  3  0  0  0  0  0  0
   10.8950  -11.7460   15.8910 C   0  0  0  0  0  0  0  0  0  0  0  0
   12.2960  -11.9370   15.8050 C   0  0  0  0  0  3  0  0  0  0  0  0
   12.8690  -13.2070   15.9340 C   0  0  0  0  0  3  0  0  0  0  0  0
   12.0170  -14.2660   16.1540 C   0  0  0  0  0  0  0  0  0  0  0  0
   10.6360  -14.1090   16.2520 C   0  0  0  0  0  0  0  0  0  0  0  0
   10.0610  -12.8520   16.1290 C   0  0  0  0  0  3  0  0  0  0  0  0
    9.9950  -15.4470   16.5340 C   0  0  2  0  0  3  0  0  0  0  0  0
   11.2280  -16.3840   16.5400 C   0  0  0  0  0  0  0  0  0  0  0  0
   11.2500  -17.5910   16.7250 O   0  0  0  0  0  0  0  0  0  0  0  0
   12.3560  -15.5970   16.3160 N   0  0  0  0  0  0  0  0  0  0  0  0
   13.2870  -15.9850   16.2880 H   0  0  0  0  0  0  0  0  0  0  0  0
    8.9980  -15.9340   15.5380 C   0  0  0  0  0  0  0  0  0  0  0  0
    8.9640  -15.8770   14.1560 C   0  0  0  0  0  3  0  0  0  0  0  0
    7.7860  -16.5430   13.7490 C   0  0  0  0  0  3  0  0  0  0  0  0
    7.1730  -16.9740   14.9000 C   0  0  0  0  0  3  0  0  0  0  0  0
    7.8990  -16.6150   15.9900 O   0  0  0  0  0  0  0  0  0  0  0  0
    7.5110   -8.6680   13.9850 O   0  0  0  0  0  0  0  0  0  0  0  0
    7.6020   -8.7570   12.5580 C   0  0  0  0  0  2  0  0  0  0  0  0
    8.0520   -7.4060   11.9610 C   0  0  1  0  0  3  0  0  0  0  0  0
    9.4900   -7.4900   11.5230 N   0  0  0  0  0  4  0  0  0  0  0  0
    9.6340   -8.1260   10.7290 H   0  0  0  0  0  0  0  0  0  0  0  0
   10.0580   -7.8540   12.3040 H   0  0  0  0  0  0  0  0  0  0  0  0
    9.8710   -6.5680   11.2750 H   0  0  0  0  0  0  0  0  0  0  0  0
    7.1890   -6.9580   10.7710 C   0  0  0  0  0  2  0  0  0  0  0  0
    7.1150   -5.4750   10.6460 C   0  0  0  0  0  0  0  0  0  0  0  0
    7.3710   -4.5690   11.6570 C   0  0  0  0  0  3  0  0  0  0  0  0
    7.2030   -3.3040   11.1580 N   0  0  0  0  0  0  0  0  0  0  0  0
    6.8250   -3.3660    9.8380 C   0  0  0  0  0  0  0  0  0  0  0  0
    6.5330   -2.3300    8.9440 C   0  0  0  0  0  3  0  0  0  0  0  0
    6.1850   -2.6790    7.6380 C   0  0  0  0  0  3  0  0  0  0  0  0
    6.1440   -4.0130    7.2410 C   0  0  0  0  0  3  0  0  0  0  0  0
    6.4450   -5.0380    8.1470 C   0  0  0  0  0  3  0  0  0  0  0  0
    6.7810   -4.7140    9.4790 C   0  0  0  0  0  0  0  0  0  0  0  0
    7.3420   -2.4430   11.6720 H   0  0  0  0  0  0  0  0  0  0  0  0
  1  6  2  0  0  0  0
  1  2  1  0  0  0  0
  2  3  2  0  0  0  0
  3  4  1  0  0  0  0
  5  7  1  0  0  0  0
  5  4  2  0  0  0  0
  6  5  1  0  0  0  0
  7 12  1  0  0  0  0
  8  7  2  0  0  0  0
  8  9  1  0  0  0  0
  9 10  2  0  0  0  0
 10 11  1  0  0  0  0
 10 16  1  0  0  0  0
 11 13  1  0  0  0  0
 12 11  2  0  0  0  0
 13 18  1  6  0  0  0
 13 14  1  0  0  0  0
 14 15  2  0  0  0  0
 16 14  1  0  0  0  0
 17 16  1  0  0  0  0
 18 22  1  0  0  0  0
 19 18  2  0  0  0  0
 20 19  1  0  0  0  0
 20 21  2  0  0  0  0
 21 22  1  0  0  0  0
 23  1  1  0  0  0  0
 24 23  1  0  0  0  0
 25 30  1  6  0  0  0
 25 24  1  0  0  0  0
 26 25  1  0  0  0  0
 26 28  1  0  0  0  0
 27 26  1  0  0  0  0
 29 26  1  0  0  0  0
 31 30  1  0  0  0  0
 31 32  2  0  0  0  0
 33 32  1  0  0  0  0
 33 40  1  0  0  0  0
 34 33  1  0  0  0  0
 35 34  2  0  0  0  0
 36 35  1  0  0  0  0
 37 36  2  0  0  0  0
 37 38  1  0  0  0  0
 38 39  2  0  0  0  0
 39 34  1  0  0  0  0
 39 31  1  0  0  0  0
M  END
>  <minimizedAffinity>
-11.2375793

$$$$
