
 OpenBabel11232418493D

 40 45  0  0  1  0  0  0  0  0999 V2000
    6.7460   -4.9150   10.3760 C   0  0  0  0  0  0  0  0  0  0  0  0
    6.7640   -5.6720    9.2090 C   0  0  0  0  0  3  0  0  0  0  0  0
    7.1620   -6.9610    9.1440 N   0  0  0  0  0  0  0  0  0  0  0  0
    7.5960   -7.5290   10.2920 C   0  0  0  0  0  3  0  0  0  0  0  0
    7.6350   -6.8670   11.5150 C   0  0  0  0  0  0  0  0  0  0  0  0
    7.2050   -5.5300   11.5390 C   0  0  0  0  0  3  0  0  0  0  0  0
    8.0750   -7.5300   12.7440 C   0  0  0  0  0  0  0  0  0  0  0  0
    9.2070   -7.0500   13.4470 C   0  0  0  0  0  3  0  0  0  0  0  0
    9.6850   -7.6980   14.5910 C   0  0  0  0  0  3  0  0  0  0  0  0
    9.0070   -8.8210   15.0110 C   0  0  0  0  0  0  0  0  0  0  0  0
    7.8860   -9.3120   14.3460 C   0  0  0  0  0  0  0  0  0  0  0  0
    7.4030   -8.6720   13.2130 C   0  0  0  0  0  3  0  0  0  0  0  0
    7.3550  -10.5230   15.0780 C   0  0  2  0  0  3  0  0  0  0  0  0
    8.3770  -10.6550   16.2340 C   0  0  0  0  0  0  0  0  0  0  0  0
    8.3970  -11.4920   17.1220 O   0  0  0  0  0  0  0  0  0  0  0  0
    9.2930   -9.6130   16.1080 N   0  0  0  0  0  0  0  0  0  0  0  0
   10.0540   -9.4820   16.7590 H   0  0  0  0  0  0  0  0  0  0  0  0
    7.2990  -11.7990   14.3080 C   0  0  0  0  0  0  0  0  0  0  0  0
    8.2130  -12.4220   13.4780 C   0  0  0  0  0  3  0  0  0  0  0  0
    7.6230  -13.6350   13.0580 C   0  0  0  0  0  3  0  0  0  0  0  0
    6.3890  -13.6870   13.6580 C   0  0  0  0  0  3  0  0  0  0  0  0
    6.1810  -12.5830   14.4200 O   0  0  0  0  0  0  0  0  0  0  0  0
    6.2040   -3.6660   10.2680 O   0  0  0  0  0  0  0  0  0  0  0  0
    5.8260   -3.1730    8.9760 C   0  0  0  0  0  2  0  0  0  0  0  0
    6.4870   -1.8040    8.7060 C   0  0  1  0  0  3  0  0  0  0  0  0
    6.3620   -1.4500    7.2480 N   0  0  0  0  0  4  0  0  0  0  0  0
    5.3920   -1.2730    6.9570 H   0  0  0  0  0  0  0  0  0  0  0  0
    6.7050   -2.2400    6.6800 H   0  0  0  0  0  0  0  0  0  0  0  0
    6.9300   -0.6300    7.0000 H   0  0  0  0  0  0  0  0  0  0  0  0
    5.8880   -0.6700    9.5520 C   0  0  0  0  0  2  0  0  0  0  0  0
    6.8780   -0.0790   10.4970 C   0  0  0  0  0  0  0  0  0  0  0  0
    7.8110    0.8890   10.1810 C   0  0  0  0  0  3  0  0  0  0  0  0
    8.5330    1.1780   11.3090 N   0  0  0  0  0  0  0  0  0  0  0  0
    8.0980    0.4040   12.3580 C   0  0  0  0  0  0  0  0  0  0  0  0
    8.5520    0.3550   13.6800 C   0  0  0  0  0  3  0  0  0  0  0  0
    7.9100   -0.5250   14.5540 C   0  0  0  0  0  3  0  0  0  0  0  0
    6.8480   -1.3140   14.1230 C   0  0  0  0  0  3  0  0  0  0  0  0
    6.4000   -1.2470   12.7970 C   0  0  0  0  0  3  0  0  0  0  0  0
    7.0440   -0.3810   11.8880 C   0  0  0  0  0  0  0  0  0  0  0  0
    9.2750    1.8640   11.3760 H   0  0  0  0  0  0  0  0  0  0  0  0
  1  6  1  0  0  0  0
  2  1  2  0  0  0  0
  3  2  1  0  0  0  0
  3  4  2  0  0  0  0
  4  5  1  0  0  0  0
  5  6  2  0  0  0  0
  5  7  1  0  0  0  0
  7 12  2  0  0  0  0
  7  8  1  0  0  0  0
  8  9  2  0  0  0  0
  9 10  1  0  0  0  0
 10 16  1  0  0  0  0
 11 10  2  0  0  0  0
 11 13  1  0  0  0  0
 12 11  1  0  0  0  0
 13 18  1  6  0  0  0
 13 14  1  0  0  0  0
 14 15  2  0  0  0  0
 16 14  1  0  0  0  0
 16 17  1  0  0  0  0
 18 22  1  0  0  0  0
 19 18  2  0  0  0  0
 20 19  1  0  0  0  0
 20 21  2  0  0  0  0
 21 22  1  0  0  0  0
 23  1  1  0  0  0  0
 24 23  1  0  0  0  0
 25 24  1  6  0  0  0
 25 30  1  0  0  0  0
 26 25  1  0  0  0  0
 27 26  1  0  0  0  0
 28 26  1  0  0  0  0
 29 26  1  0  0  0  0
 30 31  1  0  0  0  0
 31 39  1  0  0  0  0
 32 31  2  0  0  0  0
 32 33  1  0  0  0  0
 33 40  1  0  0  0  0
 33 34  1  0  0  0  0
 34 35  1  0  0  0  0
 35 36  2  0  0  0  0
 37 36  1  0  0  0  0
 38 37  2  0  0  0  0
 39 34  2  0  0  0  0
 39 38  1  0  0  0  0
M  END
>  <minimizedAffinity>
-11.8183012

$$$$
