
 OpenBabel11232420103D

 39 45  0  0  1  0  0  0  0  0999 V2000
   -3.4720   -0.7380  -19.4810 C   0  0  0  0  0  0  0  0  0  0  0  0
   -3.0260   -0.6780  -20.7840 N   0  0  0  0  0  0  0  0  0  0  0  0
   -2.1420    0.2920  -20.8260 C   0  0  0  0  0  0  0  0  0  0  0  0
   -1.9980    0.8510  -19.5850 N   0  0  0  0  0  0  0  0  0  0  0  0
   -2.8230    0.2030  -18.6930 C   0  0  0  0  0  0  0  0  0  0  0  0
   -0.9930    1.8620  -19.3360 C   0  0  0  0  0  2  0  0  0  0  0  0
   -0.7570    2.6920  -20.4890 O   0  0  0  0  0  0  0  0  0  0  0  0
   -0.6990    2.0360  -21.6970 C   0  0  0  0  0  0  0  0  0  0  0  0
    0.0120    2.6780  -22.7100 C   0  0  0  0  0  3  0  0  0  0  0  0
    0.0960    2.0970  -23.9730 C   0  0  0  0  0  3  0  0  0  0  0  0
   -0.5410    0.8810  -24.2190 C   0  0  0  0  0  3  0  0  0  0  0  0
   -1.2770    0.2440  -23.2110 C   0  0  0  0  0  0  0  0  0  0  0  0
   -2.0190   -1.2630  -23.6230 Cl  0  0  0  0  0  0  0  0  0  0  0  0
   -1.3710    0.8240  -21.9380 C   0  0  0  0  0  0  0  0  0  0  0  0
   -2.8530    0.4870  -17.2650 C   0  0  0  0  0  0  0  0  0  0  0  0
   -3.4270    1.6720  -16.7890 C   0  0  0  0  0  3  0  0  0  0  0  0
   -3.4440    1.9440  -15.4200 C   0  0  0  0  0  3  0  0  0  0  0  0
   -2.8880    1.0350  -14.5210 C   0  0  0  0  0  3  0  0  0  0  0  0
   -2.3180   -0.1490  -14.9880 C   0  0  0  0  0  3  0  0  0  0  0  0
   -2.3020   -0.4240  -16.3570 C   0  0  0  0  0  3  0  0  0  0  0  0
   -6.3180   -3.7700  -18.3140 C   0  0  0  0  0  0  0  0  0  0  0  0
   -5.1730   -3.4690  -17.5500 C   0  0  0  0  0  3  0  0  0  0  0  0
   -4.2700   -2.4690  -17.9310 C   0  0  0  0  0  3  0  0  0  0  0  0
   -4.4780   -1.7140  -19.0880 C   0  0  0  0  0  0  0  0  0  0  0  0
   -5.6120   -1.9820  -19.8560 C   0  0  0  0  0  3  0  0  0  0  0  0
   -6.5120   -2.9850  -19.4710 C   0  0  0  0  0  3  0  0  0  0  0  0
   -7.3200   -4.9150  -17.9000 C   0  0  2  0  0  0  0  0  0  0  0  0
   -7.9020   -4.9420  -16.4570 C   0  0  0  0  0  2  0  0  0  0  0  0
   -7.9440   -6.5070  -16.5720 C   0  0  1  0  0  0  0  0  0  0  0  0
   -6.7620   -6.3370  -17.5920 C   0  0  0  0  0  2  0  0  0  0  0  0
   -8.4040   -4.9570  -18.9140 N   0  0  0  0  0  4  0  0  0  0  0  0
   -8.0500   -5.1670  -19.8520 H   0  0  0  0  0  0  0  0  0  0  0  0
   -8.9150   -4.0690  -18.9620 H   0  0  0  0  0  0  0  0  0  0  0  0
   -9.0900   -5.6970  -18.6600 H   0  0  0  0  0  0  0  0  0  0  0  0
   -7.7140   -7.2650  -15.2800 C   0  0  0  0  0  3  0  0  0  0  0  0
   -6.5680   -6.9770  -14.3500 C   0  0  0  0  0  2  0  0  0  0  0  0
   -7.9840   -6.7500  -13.8940 C   0  0  0  0  0  2  0  0  0  0  0  0
   -9.1500   -6.9540  -17.2660 O   0  0  0  0  0  0  0  0  0  0  0  0
   -9.2730   -7.8810  -16.9690 H   0  0  0  0  0  0  0  0  0  0  0  0
  1 24  1  0  0  0  0
  1  5  2  0  0  0  0
  2  1  1  0  0  0  0
  3  2  2  0  0  0  0
  3  4  1  0  0  0  0
  4  6  1  0  0  0  0
  4  5  1  0  0  0  0
  5 15  1  0  0  0  0
  7  6  1  0  0  0  0
  8  7  1  0  0  0  0
  9  8  2  0  0  0  0
 10  9  1  0  0  0  0
 11 10  2  0  0  0  0
 11 12  1  0  0  0  0
 12 14  2  0  0  0  0
 13 12  1  0  0  0  0
 14  8  1  0  0  0  0
 14  3  1  0  0  0  0
 15 16  2  0  0  0  0
 15 20  1  0  0  0  0
 16 17  1  0  0  0  0
 17 18  2  0  0  0  0
 19 18  1  0  0  0  0
 20 19  2  0  0  0  0
 21 27  1  0  0  0  0
 21 22  1  0  0  0  0
 23 22  2  0  0  0  0
 24 23  1  0  0  0  0
 25 26  1  0  0  0  0
 25 24  2  0  0  0  0
 26 21  2  0  0  0  0
 27 31  1  6  0  0  0
 27 30  1  0  0  0  0
 27 28  1  0  0  0  0
 29 38  1  6  0  0  0
 29 28  1  0  0  0  0
 29 35  1  0  0  0  0
 30 29  1  0  0  0  0
 31 34  1  0  0  0  0
 32 31  1  0  0  0  0
 33 31  1  0  0  0  0
 35 36  1  0  0  0  0
 35 37  1  0  0  0  0
 36 37  1  0  0  0  0
 38 39  1  0  0  0  0
M  END
>  <minimizedAffinity>
4.0249033

$$$$
