
 OpenBabel11232420143D

 42 47  0  0  1  0  0  0  0  0999 V2000
    4.0330   10.0550   -3.8420 C   0  0  0  0  0  0  0  0  0  0  0  0
    5.1800   10.3130   -4.6040 C   0  0  0  0  0  3  0  0  0  0  0  0
    5.3980    9.6120   -5.7920 C   0  0  0  0  0  3  0  0  0  0  0  0
    4.4890    8.6360   -6.1960 C   0  0  0  0  0  0  0  0  0  0  0  0
    3.3500    8.3690   -5.4280 C   0  0  0  0  0  0  0  0  0  0  0  0
    3.1220    9.0720   -4.2440 C   0  0  0  0  0  3  0  0  0  0  0  0
    2.4350    7.3700   -5.9220 C   0  0  0  0  0  0  0  0  0  0  0  0
    1.2280    7.0530   -5.5110 N   0  0  0  0  0  0  0  0  0  0  0  0
    0.8070    6.0360   -6.3450 C   0  0  0  0  0  0  0  0  0  0  0  0
    1.7850    5.7260   -7.2840 C   0  0  0  0  0  0  0  0  0  0  0  0
    2.8030    6.6040   -6.9900 N   0  0  0  0  0  0  0  0  0  0  0  0
    4.1150    6.7210   -7.5960 C   0  0  0  0  0  2  0  0  0  0  0  0
    4.7350    8.0090   -7.3920 O   0  0  0  0  0  0  0  0  0  0  0  0
    1.8300    4.7800   -8.3920 C   0  0  0  0  0  0  0  0  0  0  0  0
    3.0590    4.3210   -8.8830 C   0  0  0  0  0  3  0  0  0  0  0  0
    3.0970    3.4210   -9.9500 C   0  0  0  0  0  3  0  0  0  0  0  0
    1.9110    2.9760  -10.5290 C   0  0  0  0  0  3  0  0  0  0  0  0
    0.6840    3.4260  -10.0430 C   0  0  0  0  0  3  0  0  0  0  0  0
    0.6430    4.3250   -8.9760 C   0  0  0  0  0  3  0  0  0  0  0  0
   -0.5100    5.4380   -6.1790 C   0  0  0  0  0  0  0  0  0  0  0  0
   -0.6980    4.0950   -5.8530 C   0  0  0  0  0  3  0  0  0  0  0  0
   -1.9870    3.5810   -5.6600 C   0  0  0  0  0  3  0  0  0  0  0  0
   -3.1430    4.3830   -5.7780 C   0  0  0  0  0  0  0  0  0  0  0  0
   -2.9250    5.7340   -6.1100 C   0  0  0  0  0  3  0  0  0  0  0  0
   -1.6400    6.2520   -6.3030 C   0  0  0  0  0  3  0  0  0  0  0  0
   -4.5870    3.8180   -5.5020 C   0  0  1  0  0  0  0  0  0  0  0  0
   -5.1140    3.7210   -4.0370 C   0  0  0  0  0  2  0  0  0  0  0  0
   -6.5410    3.9430   -4.6220 C   0  0  1  0  0  0  0  0  0  0  0  0
   -7.4810    4.7460   -3.7440 C   0  0  0  0  0  1  0  0  0  0  0  0
   -5.8360    4.7130   -5.7770 C   0  0  0  0  0  2  0  0  0  0  0  0
   -4.6950    2.5050   -6.1920 N   0  0  0  0  0  4  0  0  0  0  0  0
   -4.5750    2.5900   -7.2080 H   0  0  0  0  0  0  0  0  0  0  0  0
   -3.9930    1.8360   -5.8530 H   0  0  0  0  0  0  0  0  0  0  0  0
   -5.6300    2.0890   -6.0150 H   0  0  0  0  0  0  0  0  0  0  0  0
   -7.1650    2.7080   -5.0690 O   0  0  0  0  0  0  0  0  0  0  0  0
   -8.1320    2.8570   -5.0110 H   0  0  0  0  0  0  0  0  0  0  0  0
    4.4840   10.4110   -1.4410 N   0  0  0  0  0  0  0  0  0  0  0  0
    3.7830   10.7600   -2.5670 C   0  0  0  0  0  0  0  0  0  0  0  0
    2.9610   11.6700   -2.5340 O   0  0  0  0  0  0  0  0  0  0  0  0
    4.1760   10.9130   -0.6140 H   0  0  0  0  0  0  0  0  0  0  0  0
    6.6470   10.0140   -0.3620 C   0  0  0  0  0  1  0  0  0  0  0  0
    5.5910    9.4830   -1.3120 C   0  0  0  0  0  2  0  0  0  0  0  0
  1 38  1  0  0  0  0
  2  1  2  0  0  0  0
  3  2  1  0  0  0  0
  4  3  2  0  0  0  0
  4  5  1  0  0  0  0
  5  6  2  0  0  0  0
  6  1  1  0  0  0  0
  7  8  2  0  0  0  0
  7  5  1  0  0  0  0
  9 20  1  0  0  0  0
  9  8  1  0  0  0  0
 10 11  1  0  0  0  0
 10  9  2  0  0  0  0
 11  7  1  0  0  0  0
 12 13  1  0  0  0  0
 12 11  1  0  0  0  0
 13  4  1  0  0  0  0
 14 10  1  0  0  0  0
 15 14  1  0  0  0  0
 16 15  2  0  0  0  0
 17 18  2  0  0  0  0
 17 16  1  0  0  0  0
 18 19  1  0  0  0  0
 19 14  2  0  0  0  0
 20 21  1  0  0  0  0
 21 22  2  0  0  0  0
 23 22  1  0  0  0  0
 23 26  1  0  0  0  0
 24 23  2  0  0  0  0
 25 20  2  0  0  0  0
 25 24  1  0  0  0  0
 26 31  1  6  0  0  0
 26 27  1  0  0  0  0
 28 27  1  0  0  0  0
 28 29  1  1  0  0  0
 30 26  1  0  0  0  0
 30 28  1  0  0  0  0
 31 34  1  0  0  0  0
 31 33  1  0  0  0  0
 32 31  1  0  0  0  0
 35 36  1  0  0  0  0
 35 28  1  0  0  0  0
 37 42  1  0  0  0  0
 37 40  1  0  0  0  0
 38 39  2  0  0  0  0
 38 37  1  0  0  0  0
 42 41  1  0  0  0  0
M  END
>  <minimizedAffinity>
-10.1897078

$$$$
