
 OpenBabel11232420143D

 42 47  0  0  1  0  0  0  0  0999 V2000
    5.8210    5.8640   -8.2050 C   0  0  0  0  0  0  0  0  0  0  0  0
    6.6380    6.7580   -7.5020 C   0  0  0  0  0  3  0  0  0  0  0  0
    6.0770    7.6110   -6.5470 C   0  0  0  0  0  3  0  0  0  0  0  0
    4.7020    7.5890   -6.3230 C   0  0  0  0  0  0  0  0  0  0  0  0
    3.8840    6.7040   -7.0360 C   0  0  0  0  0  0  0  0  0  0  0  0
    4.4390    5.8450   -7.9850 C   0  0  0  0  0  3  0  0  0  0  0  0
    2.4740    6.7110   -6.7310 C   0  0  0  0  0  0  0  0  0  0  0  0
    1.5250    5.8840   -7.1050 N   0  0  0  0  0  0  0  0  0  0  0  0
    0.3680    6.3570   -6.5180 C   0  0  0  0  0  0  0  0  0  0  0  0
    0.6210    7.5020   -5.7700 C   0  0  0  0  0  0  0  0  0  0  0  0
    1.9770    7.6900   -5.9200 N   0  0  0  0  0  0  0  0  0  0  0  0
    2.8130    8.7620   -5.4160 C   0  0  0  0  0  2  0  0  0  0  0  0
    4.2140    8.4190   -5.3460 O   0  0  0  0  0  0  0  0  0  0  0  0
   -0.2240    8.3500   -4.9390 C   0  0  0  0  0  0  0  0  0  0  0  0
   -1.2160    9.1490   -5.5220 C   0  0  0  0  0  3  0  0  0  0  0  0
   -2.0180    9.9660   -4.7230 C   0  0  0  0  0  3  0  0  0  0  0  0
   -1.8340    9.9880   -3.3420 C   0  0  0  0  0  3  0  0  0  0  0  0
   -0.8500    9.1930   -2.7550 C   0  0  0  0  0  3  0  0  0  0  0  0
   -0.0470    8.3750   -3.5520 C   0  0  0  0  0  3  0  0  0  0  0  0
   -0.8990    5.6680   -6.7160 C   0  0  0  0  0  0  0  0  0  0  0  0
   -1.7840    5.9900   -7.7440 C   0  0  0  0  0  3  0  0  0  0  0  0
   -2.9710    5.2640   -7.9180 C   0  0  0  0  0  3  0  0  0  0  0  0
   -3.3230    4.1840   -7.0800 C   0  0  0  0  0  0  0  0  0  0  0  0
   -2.4120    3.8820   -6.0480 C   0  0  0  0  0  3  0  0  0  0  0  0
   -1.2270    4.6030   -5.8710 C   0  0  0  0  0  3  0  0  0  0  0  0
   -4.6260    3.3320   -7.3130 C   0  0  1  0  0  0  0  0  0  0  0  0
   -4.6730    1.8440   -6.8490 C   0  0  0  0  0  2  0  0  0  0  0  0
   -6.2030    2.0430   -6.6330 C   0  0  1  0  0  0  0  0  0  0  0  0
   -6.7940    1.2820   -5.4620 C   0  0  0  0  0  1  0  0  0  0  0  0
   -5.8680    3.5450   -6.3920 C   0  0  0  0  0  2  0  0  0  0  0  0
   -4.9880    3.4500   -8.7510 N   0  0  0  0  0  4  0  0  0  0  0  0
   -5.1890    4.4200   -9.0210 H   0  0  0  0  0  0  0  0  0  0  0  0
   -4.2390    3.1080   -9.3630 H   0  0  0  0  0  0  0  0  0  0  0  0
   -5.8350    2.8830   -8.9490 H   0  0  0  0  0  0  0  0  0  0  0  0
   -6.9760    1.8280   -7.8450 O   0  0  0  0  0  0  0  0  0  0  0  0
   -7.8710    1.5580   -7.5500 H   0  0  0  0  0  0  0  0  0  0  0  0
    6.7110    3.6760   -8.9210 N   0  0  0  0  0  0  0  0  0  0  0  0
    6.3760    4.9670   -9.2400 C   0  0  0  0  0  0  0  0  0  0  0  0
    6.5140    5.3820  -10.3860 O   0  0  0  0  0  0  0  0  0  0  0  0
    7.1480    3.1810   -9.6910 H   0  0  0  0  0  0  0  0  0  0  0  0
    5.1760    2.1910   -7.7210 C   0  0  0  0  0  1  0  0  0  0  0  0
    6.4830    2.9590   -7.6800 C   0  0  0  0  0  2  0  0  0  0  0  0
  1  6  2  0  0  0  0
  1  2  1  0  0  0  0
  2  3  2  0  0  0  0
  3  4  1  0  0  0  0
  4 13  1  0  0  0  0
  5  7  1  0  0  0  0
  5  4  2  0  0  0  0
  6  5  1  0  0  0  0
  7 11  1  0  0  0  0
  8  7  2  0  0  0  0
  8  9  1  0  0  0  0
  9 10  2  0  0  0  0
 10 14  1  0  0  0  0
 11 10  1  0  0  0  0
 11 12  1  0  0  0  0
 12 13  1  0  0  0  0
 14 19  1  0  0  0  0
 15 14  2  0  0  0  0
 15 16  1  0  0  0  0
 16 17  2  0  0  0  0
 17 18  1  0  0  0  0
 19 18  2  0  0  0  0
 20  9  1  0  0  0  0
 20 25  1  0  0  0  0
 21 20  2  0  0  0  0
 22 21  1  0  0  0  0
 22 23  2  0  0  0  0
 23 24  1  0  0  0  0
 24 25  2  0  0  0  0
 26 31  1  6  0  0  0
 26 23  1  0  0  0  0
 26 27  1  0  0  0  0
 26 30  1  0  0  0  0
 27 28  1  0  0  0  0
 28 30  1  0  0  0  0
 28 29  1  1  0  0  0
 32 31  1  0  0  0  0
 33 31  1  0  0  0  0
 34 31  1  0  0  0  0
 35 36  1  0  0  0  0
 35 28  1  0  0  0  0
 37 42  1  0  0  0  0
 38 37  1  0  0  0  0
 38  1  1  0  0  0  0
 39 38  2  0  0  0  0
 40 37  1  0  0  0  0
 41 42  1  0  0  0  0
M  END
>  <minimizedAffinity>
-12.6397972

$$$$
