
 OpenBabel11232419563D

 37 41  0  0  1  0  0  0  0  0999 V2000
   -5.8560  -14.0800   11.7020 C   0  0  0  0  0  0  0  0  0  0  0  0
   -6.3870  -14.7750   10.6400 C   0  0  0  0  0  3  0  0  0  0  0  0
   -7.2180  -13.8850   10.0040 N   0  0  0  0  0  0  0  0  0  0  0  0
   -7.1070  -12.6710   10.6470 C   0  0  0  0  0  0  0  0  0  0  0  0
   -6.3800  -12.8140   11.7340 N   0  0  0  0  0  0  0  0  0  0  0  0
   -2.6150  -15.0990   13.2970 C   0  0  0  0  0  0  0  0  0  0  0  0
   -3.5290  -14.7170   12.3140 C   0  0  0  0  0  3  0  0  0  0  0  0
   -4.8720  -14.5490   12.6600 C   0  0  0  0  0  0  0  0  0  0  0  0
   -5.2560  -14.7730   13.9820 C   0  0  0  0  0  3  0  0  0  0  0  0
   -4.2920  -15.1590   14.8920 C   0  0  0  0  0  3  0  0  0  0  0  0
   -2.9900  -15.3230   14.5780 N   0  0  0  0  0  0  0  0  0  0  0  0
   -0.5210  -13.7800   12.9600 C   0  0  0  0  0  1  0  0  0  0  0  0
   -1.1350  -15.1800   12.9620 C   0  0  0  0  0  3  0  0  0  0  0  0
   -0.3640  -16.0960   13.9180 C   0  0  0  0  0  1  0  0  0  0  0  0
   -7.6760  -11.3590   10.1710 C   0  0  2  0  0  3  0  0  0  0  0  0
   -6.9830  -10.9010    8.8790 C   0  0  0  0  0  2  0  0  0  0  0  0
   -5.6140  -10.2670    9.1340 C   0  0  0  0  0  2  0  0  0  0  0  0
   -5.7020   -9.2370   10.1650 N   0  0  0  0  0  0  0  0  0  0  0  0
   -6.2310   -9.6660   11.4540 C   0  0  0  0  0  2  0  0  0  0  0  0
   -7.6220  -10.2800   11.2670 C   0  0  0  0  0  2  0  0  0  0  0  0
   -5.9370   -7.9250    9.7690 C   0  0  0  0  0  0  0  0  0  0  0  0
   -6.6840   -7.7480    8.6580 N   0  0  0  0  0  0  0  0  0  0  0  0
   -6.9300   -6.4850    8.2830 C   0  0  0  0  0  3  0  0  0  0  0  0
   -6.5160   -5.3790    8.9070 N   0  0  0  0  0  0  0  0  0  0  0  0
   -5.7480   -5.5640    9.9890 C   0  0  0  0  0  0  0  0  0  0  0  0
   -5.3490   -4.3990   10.6250 N   0  0  0  0  0  0  0  0  0  0  0  0
   -5.4300   -6.8290   10.4730 C   0  0  0  0  0  0  0  0  0  0  0  0
   -4.2610   -7.0180   11.9650 Br  0  0  0  0  0  0  0  0  0  0  0  0
   -5.6420   -3.5570   10.1460 H   0  0  0  0  0  0  0  0  0  0  0  0
   -4.4360   -4.3950   11.0600 H   0  0  0  0  0  0  0  0  0  0  0  0
   -8.0690  -14.2320    8.8830 C   0  0  0  0  0  2  0  0  0  0  0  0
   -7.4250  -15.2880    7.9740 C   0  0  0  0  0  2  0  0  0  0  0  0
   -7.2120  -14.7890    6.5780 N   0  0  0  0  0  4  0  0  0  0  0  0
   -6.3410  -13.5970    6.5120 C   0  0  0  0  0  2  0  0  0  0  0  0
   -5.6250  -14.2550    5.3250 C   0  0  0  0  0  2  0  0  0  0  0  0
   -6.1610  -15.5770    5.8880 C   0  0  0  0  0  2  0  0  0  0  0  0
   -8.0740  -14.7260    6.0120 H   0  0  0  0  0  0  0  0  0  0  0  0
  1  5  1  0  0  0  0
  1  8  1  0  0  0  0
  2  1  2  0  0  0  0
  3  2  1  0  0  0  0
  3  4  1  0  0  0  0
  4  5  2  0  0  0  0
  6 11  1  0  0  0  0
  7  8  1  0  0  0  0
  7  6  2  0  0  0  0
  8  9  2  0  0  0  0
  9 10  1  0  0  0  0
 11 10  2  0  0  0  0
 12 13  1  0  0  0  0
 13  6  1  0  0  0  0
 13 14  1  0  0  0  0
 15  4  1  1  0  0  0
 15 20  1  0  0  0  0
 16 17  1  0  0  0  0
 16 15  1  0  0  0  0
 17 18  1  0  0  0  0
 18 19  1  0  0  0  0
 20 19  1  0  0  0  0
 21 18  1  0  0  0  0
 21 27  1  0  0  0  0
 22 21  2  0  0  0  0
 23 22  1  0  0  0  0
 23 24  2  0  0  0  0
 24 25  1  0  0  0  0
 25 27  2  0  0  0  0
 25 26  1  0  0  0  0
 26 30  1  0  0  0  0
 27 28  1  0  0  0  0
 29 26  1  0  0  0  0
 31  3  1  0  0  0  0
 32 31  1  0  0  0  0
 33 32  1  0  0  0  0
 34 33  1  0  0  0  0
 35 36  1  0  0  0  0
 35 34  1  0  0  0  0
 36 33  1  0  0  0  0
 37 33  1  0  0  0  0
M  END
>  <minimizedAffinity>
-4.63981199

$$$$
