
 OpenBabel11232419563D

 37 41  0  0  1  0  0  0  0  0999 V2000
   -7.7480   -5.5310   12.8310 C   0  0  0  0  0  0  0  0  0  0  0  0
   -6.6430   -4.7140   12.8840 C   0  0  0  0  0  3  0  0  0  0  0  0
   -5.5950   -5.4950   12.4640 N   0  0  0  0  0  0  0  0  0  0  0  0
   -6.1030   -6.7230   12.1010 C   0  0  0  0  0  0  0  0  0  0  0  0
   -7.3750   -6.7860   12.4280 N   0  0  0  0  0  0  0  0  0  0  0  0
  -11.4580   -5.7180   13.3730 C   0  0  0  0  0  0  0  0  0  0  0  0
  -10.1660   -6.0990   13.0110 C   0  0  0  0  0  3  0  0  0  0  0  0
   -9.1250   -5.1730   13.1200 C   0  0  0  0  0  0  0  0  0  0  0  0
   -9.4160   -3.8920   13.5870 C   0  0  0  0  0  3  0  0  0  0  0  0
  -10.7230   -3.5910   13.9150 C   0  0  0  0  0  3  0  0  0  0  0  0
  -11.7400   -4.4720   13.8200 N   0  0  0  0  0  0  0  0  0  0  0  0
  -12.4990   -7.5950   12.0960 C   0  0  0  0  0  1  0  0  0  0  0  0
  -12.5790   -6.7430   13.3640 C   0  0  0  0  0  3  0  0  0  0  0  0
  -12.5680   -7.6390   14.6060 C   0  0  0  0  0  1  0  0  0  0  0  0
   -5.3520   -7.8210   11.3920 C   0  0  2  0  0  3  0  0  0  0  0  0
   -5.5620   -7.7310    9.8730 C   0  0  0  0  0  2  0  0  0  0  0  0
   -6.9090   -8.3020    9.4270 C   0  0  0  0  0  2  0  0  0  0  0  0
   -7.1200   -9.6350    9.9830 N   0  0  0  0  0  0  0  0  0  0  0  0
   -7.0620   -9.7380   11.4370 C   0  0  0  0  0  2  0  0  0  0  0  0
   -5.7150   -9.2110   11.9420 C   0  0  0  0  0  2  0  0  0  0  0  0
   -6.7100  -10.7350    9.2360 C   0  0  0  0  0  0  0  0  0  0  0  0
   -5.4120  -10.7690    8.8630 N   0  0  0  0  0  0  0  0  0  0  0  0
   -5.0090  -11.8360    8.1610 C   0  0  0  0  0  3  0  0  0  0  0  0
   -5.7620  -12.8770    7.7980 N   0  0  0  0  0  0  0  0  0  0  0  0
   -7.0560  -12.8180    8.1420 C   0  0  0  0  0  0  0  0  0  0  0  0
   -7.8080  -13.9200    7.7680 N   0  0  0  0  0  0  0  0  0  0  0  0
   -7.5860  -11.7620    8.8760 C   0  0  0  0  0  0  0  0  0  0  0  0
   -9.4520  -11.7010    9.2550 Br  0  0  0  0  0  0  0  0  0  0  0  0
   -7.2880  -14.5980    7.2250 H   0  0  0  0  0  0  0  0  0  0  0  0
   -8.7740  -13.7600    7.5140 H   0  0  0  0  0  0  0  0  0  0  0  0
   -4.2110   -5.0610   12.4650 C   0  0  0  0  0  2  0  0  0  0  0  0
   -3.6440   -4.9420   13.8870 C   0  0  0  0  0  2  0  0  0  0  0  0
   -2.6820   -6.0420   14.2140 N   0  0  0  0  0  4  0  0  0  0  0  0
   -3.3480   -7.2980   14.6160 C   0  0  0  0  0  2  0  0  0  0  0  0
   -2.3580   -8.0470   13.7140 C   0  0  0  0  0  2  0  0  0  0  0  0
   -2.2010   -6.7100   12.9790 C   0  0  0  0  0  2  0  0  0  0  0  0
   -1.8970   -5.7550   14.8230 H   0  0  0  0  0  0  0  0  0  0  0  0
  1  2  2  0  0  0  0
  1  8  1  0  0  0  0
  3 31  1  0  0  0  0
  3  2  1  0  0  0  0
  4  5  2  0  0  0  0
  4  3  1  0  0  0  0
  5  1  1  0  0  0  0
  6 11  1  0  0  0  0
  7  8  1  0  0  0  0
  7  6  2  0  0  0  0
  8  9  2  0  0  0  0
  9 10  1  0  0  0  0
 11 10  2  0  0  0  0
 12 13  1  0  0  0  0
 13  6  1  0  0  0  0
 13 14  1  0  0  0  0
 15 20  1  0  0  0  0
 15  4  1  1  0  0  0
 16 15  1  0  0  0  0
 17 16  1  0  0  0  0
 17 18  1  0  0  0  0
 18 19  1  0  0  0  0
 19 20  1  0  0  0  0
 21 18  1  0  0  0  0
 22 21  2  0  0  0  0
 23 22  1  0  0  0  0
 24 25  1  0  0  0  0
 24 23  2  0  0  0  0
 25 27  2  0  0  0  0
 26 25  1  0  0  0  0
 27 21  1  0  0  0  0
 27 28  1  0  0  0  0
 29 26  1  0  0  0  0
 30 26  1  0  0  0  0
 31 32  1  0  0  0  0
 32 33  1  0  0  0  0
 33 34  1  0  0  0  0
 33 37  1  0  0  0  0
 35 34  1  0  0  0  0
 36 35  1  0  0  0  0
 36 33  1  0  0  0  0
M  END
>  <minimizedAffinity>
-4.89175463

$$$$
