
 OpenBabel11232419563D

 37 41  0  0  1  0  0  0  0  0999 V2000
   -7.7290   -8.7680   10.1530 C   0  0  0  0  0  0  0  0  0  0  0  0
   -7.1080   -9.9760   10.3690 C   0  0  0  0  0  3  0  0  0  0  0  0
   -8.1210  -10.9030   10.4030 N   0  0  0  0  0  0  0  0  0  0  0  0
   -9.3020  -10.2470   10.1330 C   0  0  0  0  0  0  0  0  0  0  0  0
   -9.0860   -8.9500   10.0970 N   0  0  0  0  0  0  0  0  0  0  0  0
   -6.0320   -5.4900   10.8360 C   0  0  0  0  0  0  0  0  0  0  0  0
   -6.6980   -6.6940   11.0670 C   0  0  0  0  0  3  0  0  0  0  0  0
   -7.1010   -7.4710    9.9780 C   0  0  0  0  0  0  0  0  0  0  0  0
   -6.8260   -7.0120    8.6900 C   0  0  0  0  0  3  0  0  0  0  0  0
   -6.1720   -5.8040    8.5470 C   0  0  0  0  0  3  0  0  0  0  0  0
   -5.7720   -5.0430    9.5850 N   0  0  0  0  0  0  0  0  0  0  0  0
   -6.4750   -4.7430   13.1770 C   0  0  0  0  0  1  0  0  0  0  0  0
   -5.4920   -4.6880   12.0070 C   0  0  0  0  0  3  0  0  0  0  0  0
   -4.1060   -5.1630   12.4560 C   0  0  0  0  0  1  0  0  0  0  0  0
  -10.6360  -10.8950    9.8660 C   0  0  2  0  0  3  0  0  0  0  0  0
  -10.9090  -10.9780    8.3570 C   0  0  0  0  0  2  0  0  0  0  0  0
  -11.3850   -9.6500    7.7670 C   0  0  0  0  0  2  0  0  0  0  0  0
  -12.4900   -9.1000    8.5460 N   0  0  0  0  0  0  0  0  0  0  0  0
  -12.2250   -8.8790    9.9630 C   0  0  0  0  0  2  0  0  0  0  0  0
  -11.7770  -10.1880   10.6200 C   0  0  0  0  0  2  0  0  0  0  0  0
  -13.7890   -9.4240    8.1690 C   0  0  0  0  0  0  0  0  0  0  0  0
  -14.2640  -10.6180    8.5840 N   0  0  0  0  0  0  0  0  0  0  0  0
  -15.5220  -10.9260    8.2400 C   0  0  0  0  0  3  0  0  0  0  0  0
  -16.3590  -10.1640    7.5330 N   0  0  0  0  0  0  0  0  0  0  0  0
  -15.8680   -8.9960    7.0970 C   0  0  0  0  0  0  0  0  0  0  0  0
  -16.7650   -8.2190    6.3810 N   0  0  0  0  0  0  0  0  0  0  0  0
  -14.5780   -8.5690    7.3960 C   0  0  0  0  0  0  0  0  0  0  0  0
  -13.9170   -6.9370    6.6690 Br  0  0  0  0  0  0  0  0  0  0  0  0
  -17.6590   -8.6700    6.2290 H   0  0  0  0  0  0  0  0  0  0  0  0
  -16.3950   -7.6520    5.6300 H   0  0  0  0  0  0  0  0  0  0  0  0
   -7.9230  -12.3050   10.7150 C   0  0  0  0  0  2  0  0  0  0  0  0
   -6.7980  -12.9310    9.8780 C   0  0  0  0  0  2  0  0  0  0  0  0
   -7.0250  -12.7740    8.4060 N   0  0  0  0  0  4  0  0  0  0  0  0
   -5.8480  -12.2420    7.6890 C   0  0  0  0  0  2  0  0  0  0  0  0
   -6.0970  -13.3030    6.6080 C   0  0  0  0  0  2  0  0  0  0  0  0
   -6.8510  -14.0690    7.7020 C   0  0  0  0  0  2  0  0  0  0  0  0
   -7.9210  -12.3230    8.1580 H   0  0  0  0  0  0  0  0  0  0  0  0
  1  2  2  0  0  0  0
  2  3  1  0  0  0  0
  3 31  1  0  0  0  0
  4  3  1  0  0  0  0
  5  4  2  0  0  0  0
  5  1  1  0  0  0  0
  6  7  1  0  0  0  0
  6 13  1  0  0  0  0
  8  1  1  0  0  0  0
  8  7  2  0  0  0  0
  9  8  1  0  0  0  0
 10  9  2  0  0  0  0
 10 11  1  0  0  0  0
 11  6  2  0  0  0  0
 13 14  1  0  0  0  0
 13 12  1  0  0  0  0
 15  4  1  6  0  0  0
 15 20  1  0  0  0  0
 16 15  1  0  0  0  0
 17 16  1  0  0  0  0
 17 18  1  0  0  0  0
 18 19  1  0  0  0  0
 19 20  1  0  0  0  0
 21 18  1  0  0  0  0
 21 22  1  0  0  0  0
 23 22  2  0  0  0  0
 24 23  1  0  0  0  0
 25 27  1  0  0  0  0
 25 24  2  0  0  0  0
 26 25  1  0  0  0  0
 27 21  2  0  0  0  0
 28 27  1  0  0  0  0
 29 26  1  0  0  0  0
 30 26  1  0  0  0  0
 32 31  1  0  0  0  0
 33 32  1  0  0  0  0
 34 33  1  0  0  0  0
 35 34  1  0  0  0  0
 35 36  1  0  0  0  0
 36 33  1  0  0  0  0
 37 33  1  0  0  0  0
M  END
>  <minimizedAffinity>
-4.91492605

$$$$
