
 OpenBabel11232419563D

 37 41  0  0  1  0  0  0  0  0999 V2000
   -6.5640   -8.5120   10.1210 C   0  0  0  0  0  0  0  0  0  0  0  0
   -5.7810   -9.5280    9.6240 C   0  0  0  0  0  3  0  0  0  0  0  0
   -6.5690  -10.6520    9.6810 N   0  0  0  0  0  0  0  0  0  0  0  0
   -7.8140  -10.2730   10.1320 C   0  0  0  0  0  0  0  0  0  0  0  0
   -7.7810   -9.0120   10.5060 N   0  0  0  0  0  0  0  0  0  0  0  0
   -5.4690   -5.1830   11.4650 C   0  0  0  0  0  0  0  0  0  0  0  0
   -5.8580   -6.5220   11.4400 C   0  0  0  0  0  3  0  0  0  0  0  0
   -6.2230   -7.1050   10.2240 C   0  0  0  0  0  0  0  0  0  0  0  0
   -6.1890   -6.3230    9.0700 C   0  0  0  0  0  3  0  0  0  0  0  0
   -5.8020   -5.0020    9.1810 C   0  0  0  0  0  3  0  0  0  0  0  0
   -5.4420   -4.4230   10.3450 N   0  0  0  0  0  0  0  0  0  0  0  0
   -5.9960   -4.7660   13.8700 C   0  0  0  0  0  1  0  0  0  0  0  0
   -4.9660   -4.5660   12.7580 C   0  0  0  0  0  3  0  0  0  0  0  0
   -3.6060   -5.1250   13.1880 C   0  0  0  0  0  1  0  0  0  0  0  0
   -9.0500  -11.1350   10.1550 C   0  0  2  0  0  3  0  0  0  0  0  0
   -9.6950  -11.1990    8.7630 C   0  0  0  0  0  2  0  0  0  0  0  0
  -10.5160   -9.9510    8.4310 C   0  0  0  0  0  2  0  0  0  0  0  0
  -11.4490   -9.6400    9.5100 N   0  0  0  0  0  0  0  0  0  0  0  0
  -10.8580   -9.4370   10.8280 C   0  0  0  0  0  2  0  0  0  0  0  0
  -10.0490  -10.6740   11.2320 C   0  0  0  0  0  2  0  0  0  0  0  0
  -12.7320  -10.1720    9.4470 C   0  0  0  0  0  0  0  0  0  0  0  0
  -12.8680  -11.4770    9.7690 N   0  0  0  0  0  0  0  0  0  0  0  0
  -14.1050  -11.9890    9.7290 C   0  0  0  0  0  3  0  0  0  0  0  0
  -15.2240  -11.3330    9.4100 N   0  0  0  0  0  0  0  0  0  0  0  0
  -15.0760  -10.0480    9.0590 C   0  0  0  0  0  0  0  0  0  0  0  0
  -16.2550   -9.3900    8.7500 N   0  0  0  0  0  0  0  0  0  0  0  0
  -13.8400   -9.4090    9.0680 C   0  0  0  0  0  0  0  0  0  0  0  0
  -13.6900   -7.6060    8.4730 Br  0  0  0  0  0  0  0  0  0  0  0  0
  -17.0700   -9.9900    8.7710 H   0  0  0  0  0  0  0  0  0  0  0  0
  -16.2180   -8.6780    8.0330 H   0  0  0  0  0  0  0  0  0  0  0  0
   -6.1010  -11.9850    9.3510 C   0  0  0  0  0  2  0  0  0  0  0  0
   -5.9950  -12.2000    7.8340 C   0  0  0  0  0  2  0  0  0  0  0  0
   -6.9170  -13.2730    7.3420 N   0  0  0  0  0  4  0  0  0  0  0  0
   -6.2320  -14.3070    6.5400 C   0  0  0  0  0  2  0  0  0  0  0  0
   -7.0270  -15.3610    7.3210 C   0  0  0  0  0  2  0  0  0  0  0  0
   -7.1680  -14.2820    8.4010 C   0  0  0  0  0  2  0  0  0  0  0  0
   -7.7990  -12.9230    6.9330 H   0  0  0  0  0  0  0  0  0  0  0  0
  1  8  1  0  0  0  0
  1  5  1  0  0  0  0
  2  3  1  0  0  0  0
  2  1  2  0  0  0  0
  3  4  1  0  0  0  0
  4  5  2  0  0  0  0
  6 13  1  0  0  0  0
  7  6  1  0  0  0  0
  8  7  2  0  0  0  0
  9 10  2  0  0  0  0
  9  8  1  0  0  0  0
 10 11  1  0  0  0  0
 11  6  2  0  0  0  0
 13 14  1  0  0  0  0
 13 12  1  0  0  0  0
 15  4  1  6  0  0  0
 15 20  1  0  0  0  0
 16 15  1  0  0  0  0
 17 16  1  0  0  0  0
 17 18  1  0  0  0  0
 18 19  1  0  0  0  0
 19 20  1  0  0  0  0
 21 18  1  0  0  0  0
 21 22  1  0  0  0  0
 23 22  2  0  0  0  0
 24 23  1  0  0  0  0
 25 27  1  0  0  0  0
 25 24  2  0  0  0  0
 26 29  1  0  0  0  0
 26 25  1  0  0  0  0
 27 21  2  0  0  0  0
 28 27  1  0  0  0  0
 30 26  1  0  0  0  0
 31  3  1  0  0  0  0
 32 31  1  0  0  0  0
 33 32  1  0  0  0  0
 33 36  1  0  0  0  0
 34 35  1  0  0  0  0
 34 33  1  0  0  0  0
 35 36  1  0  0  0  0
 37 33  1  0  0  0  0
M  END
>  <minimizedAffinity>
-4.82038689

$$$$
