
 OpenBabel11232419563D

 37 41  0  0  1  0  0  0  0  0999 V2000
   -7.6290   -6.1380   12.2140 C   0  0  0  0  0  0  0  0  0  0  0  0
   -7.8220   -6.9510   11.1210 C   0  0  0  0  0  3  0  0  0  0  0  0
   -6.5760   -7.4350   10.8050 N   0  0  0  0  0  0  0  0  0  0  0  0
   -5.6900   -6.9680   11.7510 C   0  0  0  0  0  0  0  0  0  0  0  0
   -6.2960   -6.0990   12.5300 N   0  0  0  0  0  0  0  0  0  0  0  0
  -10.8290   -5.2540   13.9660 C   0  0  0  0  0  0  0  0  0  0  0  0
   -9.9220   -5.9480   13.1640 C   0  0  0  0  0  3  0  0  0  0  0  0
   -8.6390   -5.4270   12.9740 C   0  0  0  0  0  0  0  0  0  0  0  0
   -8.3080   -4.2230   13.5950 C   0  0  0  0  0  3  0  0  0  0  0  0
   -9.2660   -3.5930   14.3650 C   0  0  0  0  0  3  0  0  0  0  0  0
  -10.5070   -4.0820   14.5620 N   0  0  0  0  0  0  0  0  0  0  0  0
  -13.2970   -4.9450   13.7520 C   0  0  0  0  0  1  0  0  0  0  0  0
  -12.1870   -5.8610   14.2700 C   0  0  0  0  0  3  0  0  0  0  0  0
  -12.3470   -7.2690   13.6880 C   0  0  0  0  0  1  0  0  0  0  0  0
   -4.2580   -7.4090   11.9210 C   0  0  2  0  0  3  0  0  0  0  0  0
   -4.1160   -8.3410   13.1340 C   0  0  0  0  0  2  0  0  0  0  0  0
   -4.0880   -7.5830   14.4630 C   0  0  0  0  0  2  0  0  0  0  0  0
   -3.1130   -6.4970   14.4230 N   0  0  0  0  0  0  0  0  0  0  0  0
   -3.2950   -5.5130   13.3630 C   0  0  0  0  0  2  0  0  0  0  0  0
   -3.2960   -6.2100   11.9990 C   0  0  0  0  0  2  0  0  0  0  0  0
   -1.8160   -6.7590   14.8530 C   0  0  0  0  0  0  0  0  0  0  0  0
   -1.1790   -7.7990   14.2730 N   0  0  0  0  0  0  0  0  0  0  0  0
    0.0770   -8.0420   14.6700 C   0  0  0  0  0  3  0  0  0  0  0  0
    0.7690   -7.3490   15.5790 N   0  0  0  0  0  0  0  0  0  0  0  0
    0.1180   -6.3410   16.1740 C   0  0  0  0  0  0  0  0  0  0  0  0
    0.8660   -5.6310   17.0990 N   0  0  0  0  0  0  0  0  0  0  0  0
   -1.1880   -5.9940   15.8390 C   0  0  0  0  0  0  0  0  0  0  0  0
   -2.0810   -4.6040   16.7870 Br  0  0  0  0  0  0  0  0  0  0  0  0
    1.7920   -6.0120   17.2480 H   0  0  0  0  0  0  0  0  0  0  0  0
    0.3800   -5.2580   17.9030 H   0  0  0  0  0  0  0  0  0  0  0  0
   -6.2980   -8.2550    9.6420 C   0  0  0  0  0  2  0  0  0  0  0  0
   -6.3350   -9.7550    9.9710 C   0  0  0  0  0  2  0  0  0  0  0  0
   -6.4620  -10.6070    8.7460 N   0  0  0  0  0  4  0  0  0  0  0  0
   -5.2420  -11.3860    8.4500 C   0  0  0  0  0  2  0  0  0  0  0  0
   -6.1490  -12.5940    8.1740 C   0  0  0  0  0  2  0  0  0  0  0  0
   -7.1780  -11.8700    9.0510 C   0  0  0  0  0  2  0  0  0  0  0  0
   -6.8730  -10.1220    7.9310 H   0  0  0  0  0  0  0  0  0  0  0  0
  1  5  1  0  0  0  0
  1  8  1  0  0  0  0
  2  1  2  0  0  0  0
  3  2  1  0  0  0  0
  3  4  1  0  0  0  0
  4  5  2  0  0  0  0
  6 13  1  0  0  0  0
  6 11  1  0  0  0  0
  7  6  2  0  0  0  0
  8  7  1  0  0  0  0
  8  9  2  0  0  0  0
  9 10  1  0  0  0  0
 10 11  2  0  0  0  0
 12 13  1  0  0  0  0
 14 13  1  0  0  0  0
 15  4  1  1  0  0  0
 15 20  1  0  0  0  0
 15 16  1  0  0  0  0
 16 17  1  0  0  0  0
 18 17  1  0  0  0  0
 18 21  1  0  0  0  0
 19 18  1  0  0  0  0
 20 19  1  0  0  0  0
 21 27  1  0  0  0  0
 22 23  1  0  0  0  0
 22 21  2  0  0  0  0
 23 24  2  0  0  0  0
 24 25  1  0  0  0  0
 25 26  1  0  0  0  0
 26 29  1  0  0  0  0
 26 30  1  0  0  0  0
 27 25  2  0  0  0  0
 27 28  1  0  0  0  0
 31 32  1  0  0  0  0
 31  3  1  0  0  0  0
 33 36  1  0  0  0  0
 33 32  1  0  0  0  0
 34 33  1  0  0  0  0
 35 34  1  0  0  0  0
 35 36  1  0  0  0  0
 37 33  1  0  0  0  0
M  END
>  <minimizedAffinity>
-4.46042919

$$$$
