
 OpenBabel11232419563D

 37 41  0  0  1  0  0  0  0  0999 V2000
   -9.7540  -10.2230    8.4790 C   0  0  0  0  0  0  0  0  0  0  0  0
   -9.4340  -11.5350    8.7380 C   0  0  0  0  0  3  0  0  0  0  0  0
   -8.0890  -11.5310    9.0200 N   0  0  0  0  0  0  0  0  0  0  0  0
   -7.6580  -10.2230    8.9990 C   0  0  0  0  0  0  0  0  0  0  0  0
   -8.6270   -9.4480    8.5630 N   0  0  0  0  0  0  0  0  0  0  0  0
  -12.5270   -8.1760    6.9910 C   0  0  0  0  0  0  0  0  0  0  0  0
  -11.2360   -8.6110    7.2940 C   0  0  0  0  0  3  0  0  0  0  0  0
  -11.0650   -9.6760    8.1830 C   0  0  0  0  0  0  0  0  0  0  0  0
  -12.1970  -10.2700    8.7420 C   0  0  0  0  0  3  0  0  0  0  0  0
  -13.4380   -9.7740    8.3980 C   0  0  0  0  0  3  0  0  0  0  0  0
  -13.6240   -8.7500    7.5400 N   0  0  0  0  0  0  0  0  0  0  0  0
  -14.2280   -6.8840    5.6990 C   0  0  0  0  0  1  0  0  0  0  0  0
  -12.7340   -7.0940    5.9460 C   0  0  0  0  0  3  0  0  0  0  0  0
  -12.0680   -5.7690    6.3310 C   0  0  0  0  0  1  0  0  0  0  0  0
   -6.3090   -9.7250    9.4510 C   0  0  2  0  0  3  0  0  0  0  0  0
   -6.1330   -9.9250   10.9630 C   0  0  0  0  0  2  0  0  0  0  0  0
   -6.8530   -8.8580   11.7900 C   0  0  0  0  0  2  0  0  0  0  0  0
   -6.5150   -7.5180   11.3180 N   0  0  0  0  0  0  0  0  0  0  0  0
   -6.7940   -7.2450    9.9130 C   0  0  0  0  0  2  0  0  0  0  0  0
   -6.0670   -8.2650    9.0300 C   0  0  0  0  0  2  0  0  0  0  0  0
   -5.4380   -6.8640   11.9070 C   0  0  0  0  0  0  0  0  0  0  0  0
   -4.2260   -7.4470   11.7800 N   0  0  0  0  0  0  0  0  0  0  0  0
   -3.1830   -6.8100   12.3290 C   0  0  0  0  0  3  0  0  0  0  0  0
   -3.2210   -5.6470   12.9840 N   0  0  0  0  0  0  0  0  0  0  0  0
   -4.4310   -5.0930   13.1350 C   0  0  0  0  0  0  0  0  0  0  0  0
   -4.4360   -3.8790   13.8030 N   0  0  0  0  0  0  0  0  0  0  0  0
   -5.5850   -5.6610   12.6040 C   0  0  0  0  0  0  0  0  0  0  0  0
   -7.2830   -4.8650   12.9320 Br  0  0  0  0  0  0  0  0  0  0  0  0
   -3.5240   -3.6020   14.1450 H   0  0  0  0  0  0  0  0  0  0  0  0
   -5.2350   -3.6710   14.3860 H   0  0  0  0  0  0  0  0  0  0  0  0
   -7.3080  -12.7310    9.2500 C   0  0  0  0  0  2  0  0  0  0  0  0
   -8.0280  -13.7220   10.1760 C   0  0  0  0  0  2  0  0  0  0  0  0
   -7.1560  -14.1960   11.2970 N   0  0  0  0  0  4  0  0  0  0  0  0
   -5.7260  -13.8870   11.0930 C   0  0  0  0  0  2  0  0  0  0  0  0
   -5.6710  -13.4400   12.5600 C   0  0  0  0  0  2  0  0  0  0  0  0
   -7.1860  -13.2400   12.4320 C   0  0  0  0  0  2  0  0  0  0  0  0
   -7.3490  -15.1630   11.6070 H   0  0  0  0  0  0  0  0  0  0  0  0
  1  5  1  0  0  0  0
  1  2  2  0  0  0  0
  2  3  1  0  0  0  0
  3 31  1  0  0  0  0
  4  3  1  0  0  0  0
  5  4  2  0  0  0  0
  6  7  2  0  0  0  0
  6 11  1  0  0  0  0
  7  8  1  0  0  0  0
  8  1  1  0  0  0  0
  8  9  2  0  0  0  0
 10  9  1  0  0  0  0
 11 10  2  0  0  0  0
 12 13  1  0  0  0  0
 13 14  1  0  0  0  0
 13  6  1  0  0  0  0
 15  4  1  1  0  0  0
 15 16  1  0  0  0  0
 16 17  1  0  0  0  0
 18 17  1  0  0  0  0
 18 21  1  0  0  0  0
 19 18  1  0  0  0  0
 20 15  1  0  0  0  0
 20 19  1  0  0  0  0
 21 27  1  0  0  0  0
 22 21  2  0  0  0  0
 22 23  1  0  0  0  0
 23 24  2  0  0  0  0
 24 25  1  0  0  0  0
 25 26  1  0  0  0  0
 26 29  1  0  0  0  0
 26 30  1  0  0  0  0
 27 28  1  0  0  0  0
 27 25  2  0  0  0  0
 31 32  1  0  0  0  0
 32 33  1  0  0  0  0
 33 37  1  0  0  0  0
 33 36  1  0  0  0  0
 34 33  1  0  0  0  0
 34 35  1  0  0  0  0
 36 35  1  0  0  0  0
M  END
>  <minimizedAffinity>
-5.19019556

$$$$
