
 OpenBabel11232419563D

 37 41  0  0  1  0  0  0  0  0999 V2000
   -7.2120   -4.5870   13.4560 C   0  0  0  0  0  0  0  0  0  0  0  0
   -7.3060   -4.6020   12.0830 C   0  0  0  0  0  3  0  0  0  0  0  0
   -6.0140   -4.7210   11.6330 N   0  0  0  0  0  0  0  0  0  0  0  0
   -5.1950   -4.8520   12.7330 C   0  0  0  0  0  0  0  0  0  0  0  0
   -5.8950   -4.6570   13.8290 N   0  0  0  0  0  0  0  0  0  0  0  0
  -10.6340   -4.3300   14.9760 C   0  0  0  0  0  0  0  0  0  0  0  0
   -9.6190   -4.2960   14.0190 C   0  0  0  0  0  3  0  0  0  0  0  0
   -8.3000   -4.5350   14.4140 C   0  0  0  0  0  0  0  0  0  0  0  0
   -8.0410   -4.7980   15.7590 C   0  0  0  0  0  3  0  0  0  0  0  0
   -9.1010   -4.8040   16.6450 C   0  0  0  0  0  3  0  0  0  0  0  0
  -10.3800   -4.5790   16.2820 N   0  0  0  0  0  0  0  0  0  0  0  0
  -12.3110   -4.8970   13.2150 C   0  0  0  0  0  1  0  0  0  0  0  0
  -12.0830   -4.1810   14.5470 C   0  0  0  0  0  3  0  0  0  0  0  0
  -13.0670   -4.6970   15.6020 C   0  0  0  0  0  1  0  0  0  0  0  0
   -3.7310   -5.2130   12.7120 C   0  0  2  0  0  3  0  0  0  0  0  0
   -3.5030   -6.5160   11.9320 C   0  0  0  0  0  2  0  0  0  0  0  0
   -3.8460   -7.7630   12.7500 C   0  0  0  0  0  2  0  0  0  0  0  0
   -3.1950   -7.7250   14.0560 N   0  0  0  0  0  0  0  0  0  0  0  0
   -3.4950   -6.5630   14.8850 C   0  0  0  0  0  2  0  0  0  0  0  0
   -3.1370   -5.2790   14.1310 C   0  0  0  0  0  2  0  0  0  0  0  0
   -1.9410   -8.3120   14.1870 C   0  0  0  0  0  0  0  0  0  0  0  0
   -0.9360   -7.7720   13.4650 N   0  0  0  0  0  0  0  0  0  0  0  0
    0.2770   -8.3220   13.6030 C   0  0  0  0  0  3  0  0  0  0  0  0
    0.5960   -9.3500   14.3930 N   0  0  0  0  0  0  0  0  0  0  0  0
   -0.4140   -9.9020   15.0800 C   0  0  0  0  0  0  0  0  0  0  0  0
   -0.0500  -10.9540   15.9040 N   0  0  0  0  0  0  0  0  0  0  0  0
   -1.7150   -9.4120   15.0190 C   0  0  0  0  0  0  0  0  0  0  0  0
   -3.1170  -10.3000   15.9530 Br  0  0  0  0  0  0  0  0  0  0  0  0
    0.9280  -11.2070   15.8280 H   0  0  0  0  0  0  0  0  0  0  0  0
   -0.7180  -11.7040   16.0260 H   0  0  0  0  0  0  0  0  0  0  0  0
   -5.6370   -4.6700   10.2340 C   0  0  0  0  0  2  0  0  0  0  0  0
   -6.3590   -5.7390    9.4010 C   0  0  0  0  0  2  0  0  0  0  0  0
   -6.1090   -7.1260    9.9090 N   0  0  0  0  0  4  0  0  0  0  0  0
   -7.2400   -8.0460    9.6710 C   0  0  0  0  0  2  0  0  0  0  0  0
   -6.2170   -9.0960    9.2160 C   0  0  0  0  0  2  0  0  0  0  0  0
   -5.2920   -7.9040    8.9440 C   0  0  0  0  0  2  0  0  0  0  0  0
   -5.7120   -7.1650   10.8630 H   0  0  0  0  0  0  0  0  0  0  0  0
  1  5  1  0  0  0  0
  1  8  1  0  0  0  0
  2  1  2  0  0  0  0
  3  2  1  0  0  0  0
  3  4  1  0  0  0  0
  4  5  2  0  0  0  0
  6 11  1  0  0  0  0
  7  8  1  0  0  0  0
  7  6  2  0  0  0  0
  8  9  2  0  0  0  0
  9 10  1  0  0  0  0
 11 10  2  0  0  0  0
 12 13  1  0  0  0  0
 13  6  1  0  0  0  0
 13 14  1  0  0  0  0
 15  4  1  1  0  0  0
 15 20  1  0  0  0  0
 16 15  1  0  0  0  0
 16 17  1  0  0  0  0
 17 18  1  0  0  0  0
 18 21  1  0  0  0  0
 18 19  1  0  0  0  0
 20 19  1  0  0  0  0
 21 27  1  0  0  0  0
 22 23  1  0  0  0  0
 22 21  2  0  0  0  0
 23 24  2  0  0  0  0
 24 25  1  0  0  0  0
 25 26  1  0  0  0  0
 26 30  1  0  0  0  0
 27 25  2  0  0  0  0
 27 28  1  0  0  0  0
 29 26  1  0  0  0  0
 31  3  1  0  0  0  0
 32 33  1  0  0  0  0
 32 31  1  0  0  0  0
 33 37  1  0  0  0  0
 34 33  1  0  0  0  0
 35 34  1  0  0  0  0
 36 35  1  0  0  0  0
 36 33  1  0  0  0  0
M  END
>  <minimizedAffinity>
-4.76135111

$$$$
