
 OpenBabel11232420473D

 42 48  0  0  1  0  0  0  0  0999 V2000
  -18.7300   23.5500   11.1320 C   0  0  0  0  0  0  0  0  0  0  0  0
  -18.6430   24.7440   11.8260 N   0  0  0  0  0  0  0  0  0  0  0  0
  -17.8220   25.4980   11.1310 C   0  0  0  0  0  0  0  0  0  0  0  0
  -17.3700   24.8380   10.0260 N   0  0  0  0  0  0  0  0  0  0  0  0
  -17.9570   23.5930    9.9770 C   0  0  0  0  0  0  0  0  0  0  0  0
  -16.5630   25.5080    9.0220 C   0  0  0  0  0  2  0  0  0  0  0  0
  -15.7840   26.6010    9.5550 O   0  0  0  0  0  0  0  0  0  0  0  0
  -16.3800   27.3580   10.5310 C   0  0  0  0  0  0  0  0  0  0  0  0
  -15.8960   28.6470   10.7240 C   0  0  0  0  0  3  0  0  0  0  0  0
  -16.4500   29.4550   11.7220 C   0  0  0  0  0  3  0  0  0  0  0  0
  -17.4820   28.9750   12.5460 C   0  0  0  0  0  0  0  0  0  0  0  0
  -17.9360   27.6620   12.3620 C   0  0  0  0  0  3  0  0  0  0  0  0
  -17.3900   26.8570   11.3590 C   0  0  0  0  0  0  0  0  0  0  0  0
  -18.0740   29.8170   13.5830 C   0  0  0  0  0  0  0  0  0  0  0  0
  -19.3810   30.2090   13.8110 C   0  0  0  0  0  3  0  0  0  0  0  0
  -19.3310   31.0350   14.9470 C   0  0  0  0  0  3  0  0  0  0  0  0
  -18.0910   31.1810   15.4120 N   0  0  0  0  0  0  0  0  0  0  0  0
  -17.3500   30.4380   14.5730 N   0  0  0  0  0  0  0  0  0  0  0  0
  -16.3470   30.4090   14.7200 H   0  0  0  0  0  0  0  0  0  0  0  0
  -21.3790   20.4390   12.6130 C   0  0  0  0  0  0  0  0  0  0  0  0
  -21.8010   21.7650   12.3660 C   0  0  0  0  0  3  0  0  0  0  0  0
  -20.9320   22.7560   11.8840 C   0  0  0  0  0  3  0  0  0  0  0  0
  -19.5920   22.4750   11.6080 C   0  0  0  0  0  0  0  0  0  0  0  0
  -19.1440   21.1780   11.8370 C   0  0  0  0  0  3  0  0  0  0  0  0
  -20.0200   20.1890   12.3190 C   0  0  0  0  0  3  0  0  0  0  0  0
  -22.2990   16.4940   15.1770 C   0  0  0  0  0  1  0  0  0  0  0  0
  -21.6410   17.7050   14.5330 C   0  0  1  0  0  0  0  0  0  0  0  0
  -21.8830   17.8040   13.0040 C   0  0  0  0  0  2  0  0  0  0  0  0
  -22.3420   19.2760   13.1760 C   0  0  1  0  0  0  0  0  0  0  0  0
  -22.4130   19.0350   14.7130 C   0  0  0  0  0  2  0  0  0  0  0  0
  -23.7150   19.4610   12.6340 N   0  0  0  0  0  4  0  0  0  0  0  0
  -24.0640   20.4080   12.8390 H   0  0  0  0  0  0  0  0  0  0  0  0
  -23.7290   19.3370   11.6140 H   0  0  0  0  0  0  0  0  0  0  0  0
  -24.3930   18.7960   13.0250 H   0  0  0  0  0  0  0  0  0  0  0  0
  -20.2530   17.7610   14.9080 O   0  0  0  0  0  0  0  0  0  0  0  0
  -20.2140   17.6320   15.8750 H   0  0  0  0  0  0  0  0  0  0  0  0
  -17.7940   22.6780    8.8540 C   0  0  0  0  0  0  0  0  0  0  0  0
  -18.8930   21.9780    8.3430 C   0  0  0  0  0  3  0  0  0  0  0  0
  -18.7260   21.0910    7.2780 C   0  0  0  0  0  3  0  0  0  0  0  0
  -17.4620   20.8990    6.7210 C   0  0  0  0  0  3  0  0  0  0  0  0
  -16.3640   21.5940    7.2250 C   0  0  0  0  0  3  0  0  0  0  0  0
  -16.5290   22.4840    8.2890 C   0  0  0  0  0  3  0  0  0  0  0  0
  1 23  1  0  0  0  0
  1  2  1  0  0  0  0
  3 13  1  0  0  0  0
  3  2  2  0  0  0  0
  4  3  1  0  0  0  0
  5  4  1  0  0  0  0
  5  1  2  0  0  0  0
  6  7  1  0  0  0  0
  6  4  1  0  0  0  0
  7  8  1  0  0  0  0
  8  9  2  0  0  0  0
  8 13  1  0  0  0  0
  9 10  1  0  0  0  0
 10 11  2  0  0  0  0
 11 14  1  0  0  0  0
 12 11  1  0  0  0  0
 13 12  2  0  0  0  0
 14 15  2  0  0  0  0
 14 18  1  0  0  0  0
 15 16  1  0  0  0  0
 16 17  2  0  0  0  0
 18 19  1  0  0  0  0
 18 17  1  0  0  0  0
 20 29  1  0  0  0  0
 21 20  1  0  0  0  0
 22 21  2  0  0  0  0
 23 24  2  0  0  0  0
 23 22  1  0  0  0  0
 24 25  1  0  0  0  0
 25 20  2  0  0  0  0
 27 30  1  0  0  0  0
 27 35  1  0  0  0  0
 27 26  1  1  0  0  0
 28 29  1  0  0  0  0
 28 27  1  0  0  0  0
 29 31  1  6  0  0  0
 29 30  1  0  0  0  0
 31 32  1  0  0  0  0
 31 34  1  0  0  0  0
 33 31  1  0  0  0  0
 35 36  1  0  0  0  0
 37  5  1  0  0  0  0
 38 37  1  0  0  0  0
 39 38  2  0  0  0  0
 40 41  2  0  0  0  0
 40 39  1  0  0  0  0
 41 42  1  0  0  0  0
 42 37  2  0  0  0  0
M  END
>  <minimizedAffinity>
-10.4935484

$$$$
