
 OpenBabel11232420473D

 42 48  0  0  1  0  0  0  0  0999 V2000
  -19.7240   23.3520   11.4390 C   0  0  0  0  0  0  0  0  0  0  0  0
  -19.9350   24.5780   12.0450 N   0  0  0  0  0  0  0  0  0  0  0  0
  -19.3010   25.4550   11.3010 C   0  0  0  0  0  0  0  0  0  0  0  0
  -18.6840   24.8450   10.2470 N   0  0  0  0  0  0  0  0  0  0  0  0
  -18.9590   23.4960   10.2860 C   0  0  0  0  0  0  0  0  0  0  0  0
  -18.0370   25.6160    9.2000 C   0  0  0  0  0  2  0  0  0  0  0  0
  -17.5490   26.8960    9.6550 O   0  0  0  0  0  0  0  0  0  0  0  0
  -18.3260   27.5570   10.5720 C   0  0  0  0  0  0  0  0  0  0  0  0
  -18.1630   28.9340   10.6740 C   0  0  0  0  0  3  0  0  0  0  0  0
  -18.9130   29.6560   11.6080 C   0  0  0  0  0  3  0  0  0  0  0  0
  -19.8180   29.0040   12.4610 C   0  0  0  0  0  0  0  0  0  0  0  0
  -19.9460   27.6110   12.3720 C   0  0  0  0  0  3  0  0  0  0  0  0
  -19.2060   26.8900   11.4310 C   0  0  0  0  0  0  0  0  0  0  0  0
  -20.6130   29.7510   13.4330 C   0  0  0  0  0  0  0  0  0  0  0  0
  -21.0620   29.4200   14.6990 C   0  0  0  0  0  3  0  0  0  0  0  0
  -21.7980   30.5350   15.1380 C   0  0  0  0  0  3  0  0  0  0  0  0
  -21.8370   31.5050   14.2260 N   0  0  0  0  0  0  0  0  0  0  0  0
  -21.1170   31.0090   13.2060 N   0  0  0  0  0  0  0  0  0  0  0  0
  -21.0190   31.5760   12.3710 H   0  0  0  0  0  0  0  0  0  0  0  0
  -21.4070   19.6630   13.0030 C   0  0  0  0  0  0  0  0  0  0  0  0
  -20.0770   19.7730   12.5390 C   0  0  0  0  0  3  0  0  0  0  0  0
  -19.5500   20.9740   12.0390 C   0  0  0  0  0  3  0  0  0  0  0  0
  -20.3180   22.1400   11.9890 C   0  0  0  0  0  0  0  0  0  0  0  0
  -21.6320   22.0670   12.4420 C   0  0  0  0  0  3  0  0  0  0  0  0
  -22.1540   20.8610   12.9420 C   0  0  0  0  0  3  0  0  0  0  0  0
  -22.1160   14.9210   13.0030 C   0  0  0  0  0  1  0  0  0  0  0  0
  -21.6340   16.3340   12.7030 C   0  0  1  0  0  0  0  0  0  0  0  0
  -22.7830   17.3670   12.5710 C   0  0  0  0  0  2  0  0  0  0  0  0
  -22.0530   18.3010   13.5730 C   0  0  1  0  0  0  0  0  0  0  0  0
  -21.1110   17.1140   13.9340 C   0  0  0  0  0  2  0  0  0  0  0  0
  -22.9320   18.6130   14.7310 N   0  0  0  0  0  4  0  0  0  0  0  0
  -22.4180   19.1450   15.4460 H   0  0  0  0  0  0  0  0  0  0  0  0
  -23.7390   19.1790   14.4400 H   0  0  0  0  0  0  0  0  0  0  0  0
  -23.3070   17.7730   15.1870 H   0  0  0  0  0  0  0  0  0  0  0  0
  -20.7360   16.3120   11.5800 O   0  0  0  0  0  0  0  0  0  0  0  0
  -20.0960   15.5940   11.7400 H   0  0  0  0  0  0  0  0  0  0  0  0
  -18.5630   22.5700    9.2330 C   0  0  0  0  0  0  0  0  0  0  0  0
  -19.5020   22.1070    8.3040 C   0  0  0  0  0  3  0  0  0  0  0  0
  -19.1180   21.2070    7.3080 C   0  0  0  0  0  3  0  0  0  0  0  0
  -17.7970   20.7670    7.2380 C   0  0  0  0  0  3  0  0  0  0  0  0
  -16.8570   21.2260    8.1590 C   0  0  0  0  0  3  0  0  0  0  0  0
  -17.2380   22.1270    9.1540 C   0  0  0  0  0  3  0  0  0  0  0  0
  1 23  1  0  0  0  0
  1  2  1  0  0  0  0
  3 13  1  0  0  0  0
  3  2  2  0  0  0  0
  4  5  1  0  0  0  0
  4  3  1  0  0  0  0
  5  1  2  0  0  0  0
  6  7  1  0  0  0  0
  6  4  1  0  0  0  0
  7  8  1  0  0  0  0
  8  9  2  0  0  0  0
  8 13  1  0  0  0  0
  9 10  1  0  0  0  0
 10 11  2  0  0  0  0
 11 14  1  0  0  0  0
 12 11  1  0  0  0  0
 13 12  2  0  0  0  0
 14 15  2  0  0  0  0
 15 16  1  0  0  0  0
 17 16  2  0  0  0  0
 18 14  1  0  0  0  0
 18 17  1  0  0  0  0
 19 18  1  0  0  0  0
 20 29  1  0  0  0  0
 21 20  2  0  0  0  0
 22 21  1  0  0  0  0
 23 22  2  0  0  0  0
 23 24  1  0  0  0  0
 24 25  2  0  0  0  0
 25 20  1  0  0  0  0
 27 26  1  1  0  0  0
 27 30  1  0  0  0  0
 28 27  1  0  0  0  0
 28 29  1  0  0  0  0
 29 30  1  0  0  0  0
 29 31  1  1  0  0  0
 31 34  1  0  0  0  0
 31 32  1  0  0  0  0
 33 31  1  0  0  0  0
 35 36  1  0  0  0  0
 35 27  1  0  0  0  0
 37  5  1  0  0  0  0
 38 37  2  0  0  0  0
 39 38  1  0  0  0  0
 40 39  2  0  0  0  0
 40 41  1  0  0  0  0
 41 42  2  0  0  0  0
 42 37  1  0  0  0  0
M  END
>  <minimizedAffinity>
-11.3961

$$$$
