
 OpenBabel11232420473D

 42 48  0  0  1  0  0  0  0  0999 V2000
  -19.8600   20.7880   11.8420 C   0  0  0  0  0  0  0  0  0  0  0  0
  -19.7010   22.1460   12.0580 N   0  0  0  0  0  0  0  0  0  0  0  0
  -19.0260   22.5920   11.0230 C   0  0  0  0  0  0  0  0  0  0  0  0
  -18.7370   21.5790   10.1550 N   0  0  0  0  0  0  0  0  0  0  0  0
  -19.2840   20.4090   10.6340 C   0  0  0  0  0  0  0  0  0  0  0  0
  -18.1230   21.8390    8.8650 C   0  0  0  0  0  2  0  0  0  0  0  0
  -17.3040   23.0290    8.8550 O   0  0  0  0  0  0  0  0  0  0  0  0
  -17.7600   24.0910    9.5930 C   0  0  0  0  0  0  0  0  0  0  0  0
  -17.2920   25.3550    9.2490 C   0  0  0  0  0  3  0  0  0  0  0  0
  -17.7040   26.4730    9.9820 C   0  0  0  0  0  3  0  0  0  0  0  0
  -18.5740   26.3330   11.0760 C   0  0  0  0  0  0  0  0  0  0  0  0
  -19.0100   25.0500   11.4330 C   0  0  0  0  0  3  0  0  0  0  0  0
  -18.6060   23.9340   10.6940 C   0  0  0  0  0  0  0  0  0  0  0  0
  -19.0190   27.4960   11.8410 C   0  0  0  0  0  0  0  0  0  0  0  0
  -18.3400   28.6150   12.2870 C   0  0  0  0  0  3  0  0  0  0  0  0
  -19.2910   29.3770   12.9880 C   0  0  0  0  0  3  0  0  0  0  0  0
  -20.4880   28.7930   13.0090 N   0  0  0  0  0  0  0  0  0  0  0  0
  -20.2990   27.6600   12.3120 N   0  0  0  0  0  0  0  0  0  0  0  0
  -21.0850   27.0270   12.2070 H   0  0  0  0  0  0  0  0  0  0  0  0
  -22.1210   18.4530   14.7270 C   0  0  0  0  0  0  0  0  0  0  0  0
  -22.5450   19.7120   14.2440 C   0  0  0  0  0  3  0  0  0  0  0  0
  -21.8030   20.4500   13.3100 C   0  0  0  0  0  3  0  0  0  0  0  0
  -20.5990   19.9660   12.7920 C   0  0  0  0  0  0  0  0  0  0  0  0
  -20.1540   18.7280   13.2440 C   0  0  0  0  0  3  0  0  0  0  0  0
  -20.9020   17.9920   14.1800 C   0  0  0  0  0  3  0  0  0  0  0  0
  -23.0570   14.4390   17.1770 C   0  0  0  0  0  1  0  0  0  0  0  0
  -22.4520   15.4900   16.2570 C   0  0  1  0  0  0  0  0  0  0  0  0
  -23.4960   16.2030   15.3580 C   0  0  0  0  0  2  0  0  0  0  0  0
  -22.9380   17.5790   15.8070 C   0  0  1  0  0  0  0  0  0  0  0  0
  -22.1500   16.8490   16.9360 C   0  0  0  0  0  2  0  0  0  0  0  0
  -24.0160   18.4100   16.4060 N   0  0  0  0  0  4  0  0  0  0  0  0
  -23.6320   19.2800   16.7990 H   0  0  0  0  0  0  0  0  0  0  0  0
  -24.7180   18.6690   15.7000 H   0  0  0  0  0  0  0  0  0  0  0  0
  -24.5180   17.9290   17.1620 H   0  0  0  0  0  0  0  0  0  0  0  0
  -21.3470   14.9230   15.5310 O   0  0  0  0  0  0  0  0  0  0  0  0
  -20.7900   14.4540   16.1810 H   0  0  0  0  0  0  0  0  0  0  0  0
  -19.2740   19.1590    9.8850 C   0  0  0  0  0  0  0  0  0  0  0  0
  -20.3860   18.3080    9.9090 C   0  0  0  0  0  3  0  0  0  0  0  0
  -20.3630   17.1040    9.2030 C   0  0  0  0  0  3  0  0  0  0  0  0
  -19.2310   16.7460    8.4710 C   0  0  0  0  0  3  0  0  0  0  0  0
  -18.1220   17.5900    8.4420 C   0  0  0  0  0  3  0  0  0  0  0  0
  -18.1440   18.7950    9.1460 C   0  0  0  0  0  3  0  0  0  0  0  0
  1  2  1  0  0  0  0
  1 23  1  0  0  0  0
  3  2  2  0  0  0  0
  4  5  1  0  0  0  0
  4  3  1  0  0  0  0
  5  1  2  0  0  0  0
  6  4  1  0  0  0  0
  7  6  1  0  0  0  0
  7  8  1  0  0  0  0
  8 13  1  0  0  0  0
  9  8  2  0  0  0  0
  9 10  1  0  0  0  0
 10 11  2  0  0  0  0
 11 12  1  0  0  0  0
 11 14  1  0  0  0  0
 13  3  1  0  0  0  0
 13 12  2  0  0  0  0
 14 15  2  0  0  0  0
 14 18  1  0  0  0  0
 15 16  1  0  0  0  0
 16 17  2  0  0  0  0
 18 17  1  0  0  0  0
 19 18  1  0  0  0  0
 20 29  1  0  0  0  0
 21 20  1  0  0  0  0
 22 21  2  0  0  0  0
 23 24  2  0  0  0  0
 23 22  1  0  0  0  0
 24 25  1  0  0  0  0
 25 20  2  0  0  0  0
 27 30  1  0  0  0  0
 27 26  1  1  0  0  0
 28 29  1  0  0  0  0
 28 27  1  0  0  0  0
 29 31  1  1  0  0  0
 29 30  1  0  0  0  0
 31 32  1  0  0  0  0
 31 34  1  0  0  0  0
 33 31  1  0  0  0  0
 35 36  1  0  0  0  0
 35 27  1  0  0  0  0
 37 38  1  0  0  0  0
 37  5  1  0  0  0  0
 39 38  2  0  0  0  0
 40 39  1  0  0  0  0
 41 40  2  0  0  0  0
 41 42  1  0  0  0  0
 42 37  2  0  0  0  0
M  END
>  <minimizedAffinity>
-11.4613676

$$$$
