
 OpenBabel10152418343D

 34 37  0  0  1  0  0  0  0  0999 V2000
   -1.3970   -4.1230  -26.6670 C   0  0  0  0  0  1  0  0  0  0  0  0
   -0.4710   -5.1810  -26.0480 C   0  0  2  0  0  3  0  0  0  0  0  0
    0.5550   -5.6010  -27.0980 C   0  0  0  0  0  0  0  0  0  0  0  0
    0.4990   -5.0060  -28.3700 C   0  0  0  0  0  3  0  0  0  0  0  0
    1.3970   -5.3750  -29.3710 C   0  0  0  0  0  3  0  0  0  0  0  0
    2.4200   -6.2830  -29.0980 C   0  0  0  0  0  3  0  0  0  0  0  0
    2.5650   -6.7990  -27.8220 C   0  0  0  0  0  0  0  0  0  0  0  0
    1.5590   -6.5560  -26.8760 C   0  0  0  0  0  3  0  0  0  0  0  0
    3.6440   -7.5770  -27.3970 N   0  0  0  0  0  0  0  0  0  0  0  0
    3.8050   -8.7940  -26.8270 C   0  0  0  0  0  0  0  0  0  0  0  0
    4.9740   -9.0430  -26.4860 O   0  0  0  0  0  0  0  0  0  0  0  0
    4.5600   -7.1970  -27.6110 H   0  0  0  0  0  0  0  0  0  0  0  0
    2.7380   -9.8670  -26.5800 C   0  0  0  0  0  3  0  0  0  0  0  0
    2.9360  -11.3460  -26.8830 C   0  0  0  0  0  2  0  0  0  0  0  0
    1.8740  -12.0380  -26.0390 C   0  0  0  0  0  2  0  0  0  0  0  0
    1.8570  -11.2710  -24.7340 C   0  0  0  0  0  2  0  0  0  0  0  0
    2.4800   -9.9140  -25.0510 C   0  0  0  0  0  2  0  0  0  0  0  0
   -1.3130   -6.2260  -25.4640 N   0  0  0  0  0  0  0  0  0  0  0  0
   -1.8360   -6.7770  -26.1390 H   0  0  0  0  0  0  0  0  0  0  0  0
   -1.1330   -6.9900  -24.3420 C   0  0  0  0  0  0  0  0  0  0  0  0
   -1.0240   -6.2090  -23.2540 N   0  0  0  0  0  0  0  0  0  0  0  0
   -1.0970   -6.8130  -22.0730 C   0  0  0  0  0  3  0  0  0  0  0  0
   -1.3010   -8.1180  -21.8780 N   0  0  0  0  0  0  0  0  0  0  0  0
   -1.3380   -8.9230  -22.9630 C   0  0  0  0  0  0  0  0  0  0  0  0
   -1.5510  -10.3120  -22.8510 C   0  0  0  0  0  0  0  0  0  0  0  0
   -1.5080  -11.1520  -23.9790 C   0  0  0  0  0  3  0  0  0  0  0  0
   -1.2620  -10.6290  -25.2380 C   0  0  0  0  0  3  0  0  0  0  0  0
   -1.1060   -9.2570  -25.3760 C   0  0  0  0  0  3  0  0  0  0  0  0
   -1.1810   -8.3900  -24.2580 C   0  0  0  0  0  0  0  0  0  0  0  0
   -1.8740  -10.9910  -21.5540 C   0  0  0  0  0  0  0  0  0  0  0  0
   -1.0930  -12.0370  -21.1580 N   0  0  0  0  0  0  0  0  0  0  0  0
   -2.7950  -10.6100  -20.8450 O   0  0  0  0  0  0  0  0  0  0  0  0
   -1.2790  -12.4800  -20.2700 H   0  0  0  0  0  0  0  0  0  0  0  0
   -0.3310  -12.3710  -21.7390 H   0  0  0  0  0  0  0  0  0  0  0  0
  2  1  1  6  0  0  0
  2 18  1  0  0  0  0
  3  8  1  0  0  0  0
  3  2  1  0  0  0  0
  4  3  2  0  0  0  0
  5  6  2  0  0  0  0
  5  4  1  0  0  0  0
  6  7  1  0  0  0  0
  7  9  1  0  0  0  0
  7  8  2  0  0  0  0
  9 10  1  0  0  0  0
 10 13  1  0  0  0  0
 10 11  2  0  0  0  0
 12  9  1  0  0  0  0
 13 17  1  0  0  0  0
 14 13  1  0  0  0  0
 14 15  1  0  0  0  0
 15 16  1  0  0  0  0
 17 16  1  0  0  0  0
 18 20  1  0  0  0  0
 19 18  1  0  0  0  0
 20 29  2  0  0  0  0
 20 21  1  0  0  0  0
 21 22  2  0  0  0  0
 22 23  1  0  0  0  0
 24 25  1  0  0  0  0
 24 23  2  0  0  0  0
 25 30  1  0  0  0  0
 26 25  2  0  0  0  0
 27 26  1  0  0  0  0
 28 27  2  0  0  0  0
 28 29  1  0  0  0  0
 29 24  1  0  0  0  0
 30 31  1  0  0  0  0
 30 32  2  0  0  0  0
 31 33  1  0  0  0  0
 34 31  1  0  0  0  0
M  END
>  <minimizedAffinity>
-8.53486156

$$$$
