
 OpenBabel10152418343D

 34 37  0  0  1  0  0  0  0  0999 V2000
    2.4620   -8.1230  -24.9370 C   0  0  0  0  0  1  0  0  0  0  0  0
    2.5720   -9.2120  -26.0150 C   0  0  2  0  0  3  0  0  0  0  0  0
    2.9580   -8.5480  -27.3350 C   0  0  0  0  0  0  0  0  0  0  0  0
    3.6490   -9.3080  -28.2950 C   0  0  0  0  0  3  0  0  0  0  0  0
    4.0470   -8.7410  -29.5050 C   0  0  0  0  0  3  0  0  0  0  0  0
    3.6910   -7.4290  -29.8160 C   0  0  0  0  0  3  0  0  0  0  0  0
    2.9140   -6.6950  -28.9360 C   0  0  0  0  0  0  0  0  0  0  0  0
    2.6690   -7.2130  -27.6560 C   0  0  0  0  0  3  0  0  0  0  0  0
    2.3630   -5.4430  -29.2170 N   0  0  0  0  0  0  0  0  0  0  0  0
    1.4360   -4.6360  -28.6500 C   0  0  0  0  0  0  0  0  0  0  0  0
    1.1500   -3.6370  -29.3320 O   0  0  0  0  0  0  0  0  0  0  0  0
    2.7820   -4.9530  -30.0000 H   0  0  0  0  0  0  0  0  0  0  0  0
    0.7380   -4.8090  -27.2960 C   0  0  0  0  0  3  0  0  0  0  0  0
   -0.1480   -3.7480  -26.6570 C   0  0  0  0  0  2  0  0  0  0  0  0
   -0.9790   -4.5260  -25.6450 C   0  0  0  0  0  2  0  0  0  0  0  0
   -1.3110   -5.8300  -26.3390 C   0  0  0  0  0  2  0  0  0  0  0  0
   -0.2690   -5.9790  -27.4450 C   0  0  0  0  0  2  0  0  0  0  0  0
    1.3380   -9.9980  -25.9850 N   0  0  0  0  0  0  0  0  0  0  0  0
    1.2340  -10.6550  -26.7530 H   0  0  0  0  0  0  0  0  0  0  0  0
    0.6070  -10.4640  -24.9250 C   0  0  0  0  0  0  0  0  0  0  0  0
    1.1430  -11.5990  -24.4470 N   0  0  0  0  0  0  0  0  0  0  0  0
    0.6930  -12.0270  -23.2720 C   0  0  0  0  0  3  0  0  0  0  0  0
   -0.2170  -11.4090  -22.5160 N   0  0  0  0  0  0  0  0  0  0  0  0
   -0.8170  -10.3070  -23.0200 C   0  0  0  0  0  0  0  0  0  0  0  0
   -1.7870   -9.5900  -22.2920 C   0  0  0  0  0  0  0  0  0  0  0  0
   -2.4630   -8.4920  -22.8560 C   0  0  0  0  0  3  0  0  0  0  0  0
   -2.1820   -8.0810  -24.1480 C   0  0  0  0  0  3  0  0  0  0  0  0
   -1.1890   -8.7380  -24.8610 C   0  0  0  0  0  3  0  0  0  0  0  0
   -0.4720   -9.8230  -24.2980 C   0  0  0  0  0  0  0  0  0  0  0  0
   -2.1460   -9.9060  -20.8710 C   0  0  0  0  0  0  0  0  0  0  0  0
   -2.4260  -11.2020  -20.5450 N   0  0  0  0  0  0  0  0  0  0  0  0
   -2.1670   -9.0390  -20.0080 O   0  0  0  0  0  0  0  0  0  0  0  0
   -2.6350  -11.4330  -19.5840 H   0  0  0  0  0  0  0  0  0  0  0  0
   -2.4230  -11.9310  -21.2500 H   0  0  0  0  0  0  0  0  0  0  0  0
  2 18  1  0  0  0  0
  2  1  1  1  0  0  0
  3  2  1  0  0  0  0
  4  3  2  0  0  0  0
  5  4  1  0  0  0  0
  6  5  2  0  0  0  0
  6  7  1  0  0  0  0
  7  8  2  0  0  0  0
  8  3  1  0  0  0  0
  9  7  1  0  0  0  0
  9 10  1  0  0  0  0
 10 13  1  0  0  0  0
 11 10  2  0  0  0  0
 12  9  1  0  0  0  0
 13 14  1  0  0  0  0
 14 15  1  0  0  0  0
 16 15  1  0  0  0  0
 17 13  1  0  0  0  0
 17 16  1  0  0  0  0
 18 20  1  0  0  0  0
 19 18  1  0  0  0  0
 20 21  2  0  0  0  0
 20 29  1  0  0  0  0
 21 22  1  0  0  0  0
 22 23  2  0  0  0  0
 24 23  1  0  0  0  0
 24 25  1  0  0  0  0
 25 30  1  0  0  0  0
 26 25  2  0  0  0  0
 27 26  1  0  0  0  0
 28 29  1  0  0  0  0
 28 27  2  0  0  0  0
 29 24  2  0  0  0  0
 30 31  1  0  0  0  0
 30 32  2  0  0  0  0
 31 33  1  0  0  0  0
 34 31  1  0  0  0  0
M  END
>  <minimizedAffinity>
-7.77378607

$$$$
