
 OpenBabel10152418343D

 34 37  0  0  1  0  0  0  0  0999 V2000
   -0.2250   -4.7060  -24.7790 C   0  0  0  0  0  1  0  0  0  0  0  0
   -0.0800   -6.2360  -24.7920 C   0  0  2  0  0  3  0  0  0  0  0  0
    0.7230   -6.6350  -26.0280 C   0  0  0  0  0  0  0  0  0  0  0  0
    0.4870   -5.9530  -27.2340 C   0  0  0  0  0  3  0  0  0  0  0  0
    1.1750   -6.2970  -28.3970 C   0  0  0  0  0  3  0  0  0  0  0  0
    2.1710   -7.2730  -28.3600 C   0  0  0  0  0  3  0  0  0  0  0  0
    2.5020   -7.8810  -27.1610 C   0  0  0  0  0  0  0  0  0  0  0  0
    1.6890   -7.6520  -26.0410 C   0  0  0  0  0  3  0  0  0  0  0  0
    3.5880   -8.7400  -26.9780 N   0  0  0  0  0  0  0  0  0  0  0  0
    3.7780   -9.9760  -26.4620 C   0  0  0  0  0  0  0  0  0  0  0  0
    4.9710  -10.3120  -26.3770 O   0  0  0  0  0  0  0  0  0  0  0  0
    4.4630   -8.4180  -27.3780 H   0  0  0  0  0  0  0  0  0  0  0  0
    2.7120  -10.9790  -26.0030 C   0  0  0  0  0  3  0  0  0  0  0  0
    1.6760  -10.6810  -24.9270 C   0  0  0  0  0  2  0  0  0  0  0  0
    0.5840  -11.7140  -25.1740 C   0  0  0  0  0  2  0  0  0  0  0  0
    0.4730  -11.8050  -26.6820 C   0  0  0  0  0  2  0  0  0  0  0  0
    1.7940  -11.2630  -27.2200 C   0  0  0  0  0  2  0  0  0  0  0  0
   -1.4150   -6.8130  -24.6340 N   0  0  0  0  0  0  0  0  0  0  0  0
   -2.0720   -6.5740  -25.3710 H   0  0  0  0  0  0  0  0  0  0  0  0
   -1.8090   -8.0040  -24.0830 C   0  0  0  0  0  0  0  0  0  0  0  0
   -1.9040   -8.9510  -25.0310 N   0  0  0  0  0  0  0  0  0  0  0  0
   -2.0300  -10.2070  -24.6130 C   0  0  0  0  0  3  0  0  0  0  0  0
   -2.0360  -10.6050  -23.3400 N   0  0  0  0  0  0  0  0  0  0  0  0
   -2.0160   -9.6560  -22.3780 C   0  0  0  0  0  0  0  0  0  0  0  0
   -2.0180   -9.9860  -21.0080 C   0  0  0  0  0  0  0  0  0  0  0  0
   -2.0770   -8.9900  -20.0150 C   0  0  0  0  0  3  0  0  0  0  0  0
   -2.1260   -7.6510  -20.3640 C   0  0  0  0  0  3  0  0  0  0  0  0
   -2.0680   -7.3030  -21.7060 C   0  0  0  0  0  3  0  0  0  0  0  0
   -1.9720   -8.2890  -22.7190 C   0  0  0  0  0  0  0  0  0  0  0  0
   -1.9200  -11.3940  -20.5020 C   0  0  0  0  0  0  0  0  0  0  0  0
   -0.7210  -12.0380  -20.6050 N   0  0  0  0  0  0  0  0  0  0  0  0
   -2.8750  -11.9560  -19.9840 O   0  0  0  0  0  0  0  0  0  0  0  0
   -0.6330  -12.9740  -20.2360 H   0  0  0  0  0  0  0  0  0  0  0  0
    0.0790  -11.5900  -21.0400 H   0  0  0  0  0  0  0  0  0  0  0  0
  2  1  1  6  0  0  0
  2 18  1  0  0  0  0
  3  2  1  0  0  0  0
  4  3  2  0  0  0  0
  5  6  2  0  0  0  0
  5  4  1  0  0  0  0
  6  7  1  0  0  0  0
  7  9  1  0  0  0  0
  7  8  2  0  0  0  0
  8  3  1  0  0  0  0
  9 10  1  0  0  0  0
 10 11  2  0  0  0  0
 10 13  1  0  0  0  0
 12  9  1  0  0  0  0
 13 14  1  0  0  0  0
 15 14  1  0  0  0  0
 16 15  1  0  0  0  0
 17 16  1  0  0  0  0
 17 13  1  0  0  0  0
 18 20  1  0  0  0  0
 19 18  1  0  0  0  0
 20 29  1  0  0  0  0
 21 22  1  0  0  0  0
 21 20  2  0  0  0  0
 22 23  2  0  0  0  0
 23 24  1  0  0  0  0
 24 25  1  0  0  0  0
 25 30  1  0  0  0  0
 25 26  2  0  0  0  0
 27 26  1  0  0  0  0
 28 27  2  0  0  0  0
 29 24  2  0  0  0  0
 29 28  1  0  0  0  0
 30 32  2  0  0  0  0
 31 30  1  0  0  0  0
 31 33  1  0  0  0  0
 34 31  1  0  0  0  0
M  END
>  <minimizedAffinity>
-7.03006458

$$$$
