
 OpenBabel11232418563D

 38 42  0  0  1  0  0  0  0  0999 V2000
    7.9950   -7.4180   13.1710 C   0  0  0  0  0  0  0  0  0  0  0  0
    8.0630   -8.3690   14.0820 N   0  0  0  0  0  0  0  0  0  0  0  0
    8.6180   -9.4690   13.4820 C   0  0  0  0  0  0  0  0  0  0  0  0
    8.8470   -9.2030   12.1520 C   0  0  0  0  0  3  0  0  0  0  0  0
    8.4060   -7.9170   11.9520 N   0  0  0  0  0  0  0  0  0  0  0  0
    8.8840  -10.7090   14.1930 C   0  0  0  0  0  0  0  0  0  0  0  0
    8.1510  -11.8810   13.9480 C   0  0  0  0  0  3  0  0  0  0  0  0
    8.4380  -13.0560   14.6480 C   0  0  0  0  0  3  0  0  0  0  0  0
    9.4550  -13.0660   15.5970 C   0  0  0  0  0  0  0  0  0  0  0  0
    9.7060  -14.2050   16.2590 F   0  0  0  0  0  0  0  0  0  0  0  0
   10.1940  -11.9150   15.8500 C   0  0  0  0  0  0  0  0  0  0  0  0
   11.4520  -11.9200   17.0250 Cl  0  0  0  0  0  0  0  0  0  0  0  0
    9.9130  -10.7410   15.1490 C   0  0  0  0  0  3  0  0  0  0  0  0
    6.8610   -3.3250   12.7990 N   0  0  0  0  0  0  0  0  0  0  0  0
    8.1680   -3.5570   13.4180 C   0  0  0  0  0  2  0  0  0  0  0  0
    8.6470   -4.9850   13.1600 C   0  0  0  0  0  2  0  0  0  0  0  0
    7.5570   -6.0130   13.4990 C   0  0  1  0  0  3  0  0  0  0  0  0
    6.1770   -5.6660   12.9310 C   0  0  0  0  0  2  0  0  0  0  0  0
    5.7950   -4.2200   13.2410 C   0  0  0  0  0  2  0  0  0  0  0  0
    6.9400   -1.5000   11.1910 C   0  0  0  0  0  0  0  0  0  0  0  0
    6.8790   -1.1670    9.8400 C   0  0  0  0  0  0  0  0  0  0  0  0
    6.8960    0.1430    9.3970 N   0  0  0  0  0  0  0  0  0  0  0  0
    6.7450   -2.0760    8.8680 N   0  0  0  0  0  0  0  0  0  0  0  0
    6.7600   -3.3480    9.2530 C   0  0  0  0  0  3  0  0  0  0  0  0
    6.7380   -3.7860   10.5140 N   0  0  0  0  0  0  0  0  0  0  0  0
    6.8410   -2.8600   11.4900 C   0  0  0  0  0  0  0  0  0  0  0  0
    6.8490    0.2140    8.3880 H   0  0  0  0  0  0  0  0  0  0  0  0
    7.5450    0.7790    9.8410 H   0  0  0  0  0  0  0  0  0  0  0  0
    8.7310   -0.1740   12.3460 C   0  0  0  0  0  1  0  0  0  0  0  0
    7.2360   -0.4520   12.2380 C   0  0  0  0  0  2  0  0  0  0  0  0
    8.3610   -7.2900   10.6410 C   0  0  0  0  0  2  0  0  0  0  0  0
    7.1780   -7.8370    9.8310 C   0  0  0  0  0  2  0  0  0  0  0  0
    7.4410   -8.0160    8.3530 N   0  0  0  0  0  4  0  0  0  0  0  0
    7.2870   -6.7950    7.4660 C   0  0  0  0  0  2  0  0  0  0  0  0
    6.4020   -7.2610    6.3230 C   0  0  0  0  0  2  0  0  0  0  0  0
    6.6830   -8.7470    6.2250 C   0  0  0  0  0  2  0  0  0  0  0  0
    6.7250   -9.1730    7.6780 C   0  0  0  0  0  2  0  0  0  0  0  0
    8.4400   -8.2630    8.2930 H   0  0  0  0  0  0  0  0  0  0  0  0
  1  2  2  0  0  0  0
  3  2  1  0  0  0  0
  3  6  1  0  0  0  0
  4  3  2  0  0  0  0
  5  4  1  0  0  0  0
  5  1  1  0  0  0  0
  6 13  1  0  0  0  0
  7  6  2  0  0  0  0
  7  8  1  0  0  0  0
  8  9  2  0  0  0  0
  9 11  1  0  0  0  0
  9 10  1  0  0  0  0
 11 12  1  0  0  0  0
 13 11  2  0  0  0  0
 14 19  1  0  0  0  0
 14 15  1  0  0  0  0
 16 15  1  0  0  0  0
 16 17  1  0  0  0  0
 17  1  1  6  0  0  0
 18 19  1  0  0  0  0
 18 17  1  0  0  0  0
 20 26  1  0  0  0  0
 20 30  1  0  0  0  0
 21 20  2  0  0  0  0
 22 21  1  0  0  0  0
 22 28  1  0  0  0  0
 23 24  2  0  0  0  0
 23 21  1  0  0  0  0
 24 25  1  0  0  0  0
 25 26  2  0  0  0  0
 26 14  1  0  0  0  0
 27 22  1  0  0  0  0
 30 29  1  0  0  0  0
 31  5  1  0  0  0  0
 32 31  1  0  0  0  0
 33 32  1  0  0  0  0
 34 33  1  0  0  0  0
 35 34  1  0  0  0  0
 36 35  1  0  0  0  0
 36 37  1  0  0  0  0
 37 33  1  0  0  0  0
 38 33  1  0  0  0  0
M  END
>  <minimizedAffinity>
-10.1113729

$$$$
