
 OpenBabel11232418563D

 38 42  0  0  1  0  0  0  0  0999 V2000
    6.8200   -5.2980    9.7710 C   0  0  0  0  0  0  0  0  0  0  0  0
    6.6390   -4.0020    9.6090 N   0  0  0  0  0  0  0  0  0  0  0  0
    7.2440   -3.3700   10.6650 C   0  0  0  0  0  0  0  0  0  0  0  0
    7.7650   -4.3080   11.5260 C   0  0  0  0  0  3  0  0  0  0  0  0
    7.4510   -5.5280   10.9760 N   0  0  0  0  0  0  0  0  0  0  0  0
    7.2800   -1.9250   10.8060 C   0  0  0  0  0  0  0  0  0  0  0  0
    6.8760   -1.0640    9.7730 C   0  0  0  0  0  3  0  0  0  0  0  0
    6.9220    0.3230    9.9460 C   0  0  0  0  0  3  0  0  0  0  0  0
    7.3720    0.8560   11.1500 C   0  0  0  0  0  0  0  0  0  0  0  0
    7.4110    2.1890   11.2890 F   0  0  0  0  0  0  0  0  0  0  0  0
    7.7720    0.0180   12.1860 C   0  0  0  0  0  0  0  0  0  0  0  0
    8.3320    0.6700   13.6770 Cl  0  0  0  0  0  0  0  0  0  0  0  0
    7.7240   -1.3680   12.0170 C   0  0  0  0  0  3  0  0  0  0  0  0
    6.8060   -7.8170    6.3310 N   0  0  0  0  0  0  0  0  0  0  0  0
    5.8590   -6.7000    6.2920 C   0  0  0  0  0  2  0  0  0  0  0  0
    6.1990   -5.6590    7.3570 C   0  0  0  0  0  2  0  0  0  0  0  0
    6.4050   -6.3090    8.7330 C   0  0  1  0  0  3  0  0  0  0  0  0
    7.3090   -7.5470    8.7060 C   0  0  0  0  0  2  0  0  0  0  0  0
    6.8860   -8.5210    7.6080 C   0  0  0  0  0  2  0  0  0  0  0  0
    8.5820   -8.8450    5.0230 C   0  0  0  0  0  0  0  0  0  0  0  0
    9.7380   -8.6070    4.2820 C   0  0  0  0  0  0  0  0  0  0  0  0
   10.5050   -9.6290    3.7550 N   0  0  0  0  0  0  0  0  0  0  0  0
   10.2290   -7.3810    4.0670 N   0  0  0  0  0  0  0  0  0  0  0  0
    9.5000   -6.3710    4.5310 C   0  0  0  0  0  3  0  0  0  0  0  0
    8.4220   -6.4750    5.3130 N   0  0  0  0  0  0  0  0  0  0  0  0
    7.9520   -7.7170    5.5520 C   0  0  0  0  0  0  0  0  0  0  0  0
   11.3080   -9.2880    3.2410 H   0  0  0  0  0  0  0  0  0  0  0  0
   10.0180  -10.4050    3.3240 H   0  0  0  0  0  0  0  0  0  0  0  0
    6.9770  -10.4830    4.0040 C   0  0  0  0  0  1  0  0  0  0  0  0
    7.9890  -10.2310    5.1140 C   0  0  0  0  0  2  0  0  0  0  0  0
    7.7220   -6.7900   11.6450 C   0  0  0  0  0  2  0  0  0  0  0  0
    6.7260   -7.0090   12.7920 C   0  0  0  0  0  2  0  0  0  0  0  0
    7.3390   -7.4640   14.0970 N   0  0  0  0  0  4  0  0  0  0  0  0
    8.4670   -6.6230   14.6660 C   0  0  0  0  0  2  0  0  0  0  0  0
    9.5680   -7.6210   14.9800 C   0  0  0  0  0  2  0  0  0  0  0  0
    8.8230   -8.9140   15.2510 C   0  0  0  0  0  2  0  0  0  0  0  0
    7.7650   -8.9200   14.1680 C   0  0  0  0  0  2  0  0  0  0  0  0
    6.5770   -7.3860   14.7870 H   0  0  0  0  0  0  0  0  0  0  0  0
  1  5  1  0  0  0  0
  2  1  2  0  0  0  0
  2  3  1  0  0  0  0
  3  6  1  0  0  0  0
  3  4  2  0  0  0  0
  5  4  1  0  0  0  0
  5 31  1  0  0  0  0
  6 13  1  0  0  0  0
  7  8  1  0  0  0  0
  7  6  2  0  0  0  0
  8  9  2  0  0  0  0
  9 10  1  0  0  0  0
  9 11  1  0  0  0  0
 11 12  1  0  0  0  0
 13 11  2  0  0  0  0
 14 19  1  0  0  0  0
 15 14  1  0  0  0  0
 15 16  1  0  0  0  0
 16 17  1  0  0  0  0
 17  1  1  1  0  0  0
 18 17  1  0  0  0  0
 19 18  1  0  0  0  0
 20 30  1  0  0  0  0
 20 26  1  0  0  0  0
 21 20  2  0  0  0  0
 22 21  1  0  0  0  0
 23 21  1  0  0  0  0
 23 24  2  0  0  0  0
 24 25  1  0  0  0  0
 25 26  2  0  0  0  0
 26 14  1  0  0  0  0
 27 22  1  0  0  0  0
 28 22  1  0  0  0  0
 29 30  1  0  0  0  0
 31 32  1  0  0  0  0
 32 33  1  0  0  0  0
 33 37  1  0  0  0  0
 33 34  1  0  0  0  0
 33 38  1  0  0  0  0
 34 35  1  0  0  0  0
 35 36  1  0  0  0  0
 37 36  1  0  0  0  0
M  END
>  <minimizedAffinity>
-10.4524117

$$$$
