
 OpenBabel11232418563D

 38 42  0  0  1  0  0  0  0  0999 V2000
    8.5340   -6.9830   13.3080 C   0  0  0  0  0  0  0  0  0  0  0  0
    8.8420   -7.5470   14.4600 N   0  0  0  0  0  0  0  0  0  0  0  0
    9.4070   -8.7640   14.1790 C   0  0  0  0  0  0  0  0  0  0  0  0
    9.3960   -8.9750   12.8200 C   0  0  0  0  0  3  0  0  0  0  0  0
    8.7990   -7.8610   12.2780 N   0  0  0  0  0  0  0  0  0  0  0  0
    9.9060   -9.6600   15.2080 C   0  0  0  0  0  0  0  0  0  0  0  0
    9.6620  -11.0420   15.1760 C   0  0  0  0  0  3  0  0  0  0  0  0
   10.1620  -11.8750   16.1810 C   0  0  0  0  0  3  0  0  0  0  0  0
   10.9070  -11.3310   17.2240 C   0  0  0  0  0  0  0  0  0  0  0  0
   11.3700  -12.1500   18.1780 F   0  0  0  0  0  0  0  0  0  0  0  0
   11.1620   -9.9640   17.2690 C   0  0  0  0  0  0  0  0  0  0  0  0
   12.0800   -9.2850   18.5570 Cl  0  0  0  0  0  0  0  0  0  0  0  0
   10.6670   -9.1310   16.2640 C   0  0  0  0  0  3  0  0  0  0  0  0
    6.9460   -3.3330   11.7770 N   0  0  0  0  0  0  0  0  0  0  0  0
    8.3490   -3.2780   12.1950 C   0  0  0  0  0  2  0  0  0  0  0  0
    8.9260   -4.6840   12.3570 C   0  0  0  0  0  2  0  0  0  0  0  0
    8.0110   -5.5720   13.2120 C   0  0  1  0  0  3  0  0  0  0  0  0
    6.5320   -5.5060   12.8140 C   0  0  0  0  0  2  0  0  0  0  0  0
    6.0560   -4.0610   12.6790 C   0  0  0  0  0  2  0  0  0  0  0  0
    6.6970   -2.1980    9.6390 C   0  0  0  0  0  0  0  0  0  0  0  0
    6.3870   -2.3610    8.2910 C   0  0  0  0  0  0  0  0  0  0  0  0
    6.2970   -1.2930    7.4160 N   0  0  0  0  0  0  0  0  0  0  0  0
    6.0970   -3.5470    7.7440 N   0  0  0  0  0  0  0  0  0  0  0  0
    6.2060   -4.6000    8.5480 C   0  0  0  0  0  3  0  0  0  0  0  0
    6.4210   -4.5650    9.8650 N   0  0  0  0  0  0  0  0  0  0  0  0
    6.6810   -3.3590   10.4140 C   0  0  0  0  0  0  0  0  0  0  0  0
    6.0670   -1.5810    6.4730 H   0  0  0  0  0  0  0  0  0  0  0  0
    7.0040   -0.5720    7.4840 H   0  0  0  0  0  0  0  0  0  0  0  0
    6.0280    0.1590   10.1820 C   0  0  0  0  0  1  0  0  0  0  0  0
    7.1580   -0.8630   10.1760 C   0  0  0  0  0  2  0  0  0  0  0  0
    8.4850   -7.7410   10.8640 C   0  0  0  0  0  2  0  0  0  0  0  0
    7.0780   -8.2870   10.5830 C   0  0  0  0  0  2  0  0  0  0  0  0
    6.6330   -8.2010    9.1400 N   0  0  0  0  0  4  0  0  0  0  0  0
    6.0900   -9.4660    8.5030 C   0  0  0  0  0  2  0  0  0  0  0  0
    6.8490   -9.5920    7.1940 C   0  0  0  0  0  2  0  0  0  0  0  0
    7.2000   -8.1610    6.8350 C   0  0  0  0  0  2  0  0  0  0  0  0
    7.6200   -7.5790    8.1680 C   0  0  0  0  0  2  0  0  0  0  0  0
    5.8370   -7.5460    9.1500 H   0  0  0  0  0  0  0  0  0  0  0  0
  1  2  2  0  0  0  0
  3  2  1  0  0  0  0
  3  6  1  0  0  0  0
  4  3  2  0  0  0  0
  5  4  1  0  0  0  0
  5  1  1  0  0  0  0
  6 13  1  0  0  0  0
  7  6  2  0  0  0  0
  7  8  1  0  0  0  0
  8  9  2  0  0  0  0
  9 11  1  0  0  0  0
  9 10  1  0  0  0  0
 11 12  1  0  0  0  0
 13 11  2  0  0  0  0
 14 15  1  0  0  0  0
 14 19  1  0  0  0  0
 15 16  1  0  0  0  0
 16 17  1  0  0  0  0
 17  1  1  6  0  0  0
 18 17  1  0  0  0  0
 19 18  1  0  0  0  0
 20 30  1  0  0  0  0
 20 26  1  0  0  0  0
 21 20  2  0  0  0  0
 22 28  1  0  0  0  0
 22 21  1  0  0  0  0
 23 21  1  0  0  0  0
 23 24  2  0  0  0  0
 24 25  1  0  0  0  0
 25 26  2  0  0  0  0
 26 14  1  0  0  0  0
 27 22  1  0  0  0  0
 30 29  1  0  0  0  0
 31  5  1  0  0  0  0
 32 31  1  0  0  0  0
 33 38  1  0  0  0  0
 33 32  1  0  0  0  0
 34 33  1  0  0  0  0
 35 34  1  0  0  0  0
 36 35  1  0  0  0  0
 36 37  1  0  0  0  0
 37 33  1  0  0  0  0
M  END
>  <minimizedAffinity>
-10.245512

$$$$
