
 OpenBabel11232418563D

 38 42  0  0  1  0  0  0  0  0999 V2000
    7.6240   -8.4320   12.8040 C   0  0  0  0  0  0  0  0  0  0  0  0
    7.2440   -9.6930   12.8800 N   0  0  0  0  0  0  0  0  0  0  0  0
    8.1590  -10.3480   13.6610 C   0  0  0  0  0  0  0  0  0  0  0  0
    9.1590   -9.4780   14.0300 C   0  0  0  0  0  3  0  0  0  0  0  0
    8.8360   -8.2770   13.4440 N   0  0  0  0  0  0  0  0  0  0  0  0
    8.0470  -11.7570   13.9980 C   0  0  0  0  0  0  0  0  0  0  0  0
    8.5660  -12.2820   15.1930 C   0  0  0  0  0  3  0  0  0  0  0  0
    8.4360  -13.6430   15.4860 C   0  0  0  0  0  3  0  0  0  0  0  0
    7.7890  -14.4860   14.5880 C   0  0  0  0  0  0  0  0  0  0  0  0
    7.6820  -15.7870   14.8900 F   0  0  0  0  0  0  0  0  0  0  0  0
    7.2650  -13.9820   13.4010 C   0  0  0  0  0  0  0  0  0  0  0  0
    6.4660  -15.0200   12.2840 Cl  0  0  0  0  0  0  0  0  0  0  0  0
    7.3900  -12.6230   13.1080 C   0  0  0  0  0  3  0  0  0  0  0  0
    6.1750   -4.6650   11.4280 N   0  0  0  0  0  0  0  0  0  0  0  0
    5.3650   -5.3050   12.4670 C   0  0  0  0  0  2  0  0  0  0  0  0
    6.1450   -6.4240   13.1560 C   0  0  0  0  0  2  0  0  0  0  0  0
    6.7870   -7.3730   12.1330 C   0  0  1  0  0  3  0  0  0  0  0  0
    7.5240   -6.6560   10.9960 C   0  0  0  0  0  2  0  0  0  0  0  0
    6.6600   -5.5590   10.3780 C   0  0  0  0  0  2  0  0  0  0  0  0
    6.9830   -2.3980   11.0660 C   0  0  0  0  0  0  0  0  0  0  0  0
    7.8390   -1.4040   11.5330 C   0  0  0  0  0  0  0  0  0  0  0  0
    8.0130   -0.2020   10.8710 N   0  0  0  0  0  0  0  0  0  0  0  0
    8.6000   -1.5470   12.6240 N   0  0  0  0  0  0  0  0  0  0  0  0
    8.4350   -2.6770   13.3050 C   0  0  0  0  0  3  0  0  0  0  0  0
    7.7060   -3.7270   12.9200 N   0  0  0  0  0  0  0  0  0  0  0  0
    6.9650   -3.5850   11.8010 C   0  0  0  0  0  0  0  0  0  0  0  0
    8.6650    0.4120   11.3430 H   0  0  0  0  0  0  0  0  0  0  0  0
    7.1880    0.2510   10.5010 H   0  0  0  0  0  0  0  0  0  0  0  0
    6.6630   -2.5090    8.5790 C   0  0  0  0  0  1  0  0  0  0  0  0
    6.0380   -2.1340    9.9170 C   0  0  0  0  0  2  0  0  0  0  0  0
    9.7080   -7.1140   13.4910 C   0  0  0  0  0  2  0  0  0  0  0  0
    9.4160   -6.2810   14.7470 C   0  0  0  0  0  2  0  0  0  0  0  0
   10.5640   -6.1680   15.7230 N   0  0  0  0  0  4  0  0  0  0  0  0
   11.2180   -7.4590   16.1800 C   0  0  0  0  0  2  0  0  0  0  0  0
   11.2610   -7.3520   17.6940 C   0  0  0  0  0  2  0  0  0  0  0  0
   11.3150   -5.8600   17.9540 C   0  0  0  0  0  2  0  0  0  0  0  0
   10.3190   -5.3130   16.9530 C   0  0  0  0  0  2  0  0  0  0  0  0
   11.3010   -5.6670   15.2050 H   0  0  0  0  0  0  0  0  0  0  0  0
  1  2  2  0  0  0  0
  1  5  1  0  0  0  0
  2  3  1  0  0  0  0
  3  6  1  0  0  0  0
  3  4  2  0  0  0  0
  5 31  1  0  0  0  0
  5  4  1  0  0  0  0
  6  7  1  0  0  0  0
  7  8  2  0  0  0  0
  9 10  1  0  0  0  0
  9  8  1  0  0  0  0
 11  9  2  0  0  0  0
 12 11  1  0  0  0  0
 13 11  1  0  0  0  0
 13  6  2  0  0  0  0
 14 26  1  0  0  0  0
 14 15  1  0  0  0  0
 15 16  1  0  0  0  0
 17  1  1  1  0  0  0
 17 16  1  0  0  0  0
 18 17  1  0  0  0  0
 19 18  1  0  0  0  0
 19 14  1  0  0  0  0
 20 21  2  0  0  0  0
 20 26  1  0  0  0  0
 21 23  1  0  0  0  0
 22 27  1  0  0  0  0
 22 21  1  0  0  0  0
 23 24  2  0  0  0  0
 25 24  1  0  0  0  0
 26 25  2  0  0  0  0
 28 22  1  0  0  0  0
 29 30  1  0  0  0  0
 30 20  1  0  0  0  0
 31 32  1  0  0  0  0
 32 33  1  0  0  0  0
 33 34  1  0  0  0  0
 33 37  1  0  0  0  0
 34 35  1  0  0  0  0
 35 36  1  0  0  0  0
 37 36  1  0  0  0  0
 38 33  1  0  0  0  0
M  END
>  <minimizedAffinity>
-10.3735819

$$$$
