
 OpenBabel11232418563D

 38 42  0  0  1  0  0  0  0  0999 V2000
    7.2230   -6.0620   10.9420 C   0  0  0  0  0  0  0  0  0  0  0  0
    6.9290   -5.8800    9.6690 N   0  0  0  0  0  0  0  0  0  0  0  0
    6.7210   -4.5370    9.4880 C   0  0  0  0  0  0  0  0  0  0  0  0
    6.8370   -3.8850   10.6930 C   0  0  0  0  0  3  0  0  0  0  0  0
    7.1100   -4.8650   11.6180 N   0  0  0  0  0  0  0  0  0  0  0  0
    6.4090   -3.9530    8.1950 C   0  0  0  0  0  0  0  0  0  0  0  0
    6.3410   -2.5640    8.0000 C   0  0  0  0  0  3  0  0  0  0  0  0
    6.0410   -2.0380    6.7400 C   0  0  0  0  0  3  0  0  0  0  0  0
    5.8070   -2.8950    5.6700 C   0  0  0  0  0  0  0  0  0  0  0  0
    5.5160   -2.3650    4.4730 F   0  0  0  0  0  0  0  0  0  0  0  0
    5.8740   -4.2740    5.8430 C   0  0  0  0  0  0  0  0  0  0  0  0
    5.5830   -5.3390    4.5230 Cl  0  0  0  0  0  0  0  0  0  0  0  0
    6.1770   -4.8020    7.0990 C   0  0  0  0  0  3  0  0  0  0  0  0
    8.7870   -9.0950   13.4990 N   0  0  0  0  0  0  0  0  0  0  0  0
    9.5840   -8.8140   12.3030 C   0  0  0  0  0  2  0  0  0  0  0  0
    9.1680   -7.4870   11.6700 C   0  0  0  0  0  2  0  0  0  0  0  0
    7.6450   -7.4020   11.4910 C   0  0  1  0  0  3  0  0  0  0  0  0
    6.8490   -7.8200   12.7320 C   0  0  0  0  0  2  0  0  0  0  0  0
    7.3430   -9.1550   13.2860 C   0  0  0  0  0  2  0  0  0  0  0  0
    9.7940   -9.4760   15.6820 C   0  0  0  0  0  0  0  0  0  0  0  0
   10.2080   -8.8730   16.8680 C   0  0  0  0  0  0  0  0  0  0  0  0
   10.6930   -9.6010   17.9400 N   0  0  0  0  0  0  0  0  0  0  0  0
   10.1220   -7.5570   17.0890 N   0  0  0  0  0  0  0  0  0  0  0  0
    9.6920   -6.8220   16.0680 C   0  0  0  0  0  3  0  0  0  0  0  0
    9.2000   -7.2870   14.9170 N   0  0  0  0  0  0  0  0  0  0  0  0
    9.2610   -8.6200   14.7160 C   0  0  0  0  0  0  0  0  0  0  0  0
   10.9540   -9.0140   18.7220 H   0  0  0  0  0  0  0  0  0  0  0  0
   11.3320  -10.3590   17.7400 H   0  0  0  0  0  0  0  0  0  0  0  0
    8.8450  -11.7950   15.8180 C   0  0  0  0  0  1  0  0  0  0  0  0
   10.0450  -10.9430   15.4250 C   0  0  0  0  0  2  0  0  0  0  0  0
    7.1890   -4.6060   13.0470 C   0  0  0  0  0  2  0  0  0  0  0  0
    8.4300   -3.7620   13.3660 C   0  0  0  0  0  2  0  0  0  0  0  0
    8.1630   -2.2940   13.6120 N   0  0  0  0  0  4  0  0  0  0  0  0
    6.7280   -1.8860   13.8890 C   0  0  0  0  0  2  0  0  0  0  0  0
    6.4700   -0.7250   12.9440 C   0  0  0  0  0  2  0  0  0  0  0  0
    7.8410   -0.1100   12.7380 C   0  0  0  0  0  2  0  0  0  0  0  0
    8.7310   -1.3260   12.5890 C   0  0  0  0  0  2  0  0  0  0  0  0
    8.6730   -2.0770   14.4810 H   0  0  0  0  0  0  0  0  0  0  0  0
  1  5  1  0  0  0  0
  2  1  2  0  0  0  0
  3  2  1  0  0  0  0
  3  4  2  0  0  0  0
  4  5  1  0  0  0  0
  5 31  1  0  0  0  0
  6  3  1  0  0  0  0
  7  6  1  0  0  0  0
  8  7  2  0  0  0  0
  9 11  2  0  0  0  0
  9  8  1  0  0  0  0
 10  9  1  0  0  0  0
 11 13  1  0  0  0  0
 12 11  1  0  0  0  0
 13  6  2  0  0  0  0
 14 26  1  0  0  0  0
 15 14  1  0  0  0  0
 16 15  1  0  0  0  0
 17  1  1  1  0  0  0
 17 16  1  0  0  0  0
 17 18  1  0  0  0  0
 18 19  1  0  0  0  0
 19 14  1  0  0  0  0
 20 21  1  0  0  0  0
 21 23  2  0  0  0  0
 21 22  1  0  0  0  0
 22 27  1  0  0  0  0
 24 23  1  0  0  0  0
 25 24  2  0  0  0  0
 26 25  1  0  0  0  0
 26 20  2  0  0  0  0
 28 22  1  0  0  0  0
 30 20  1  0  0  0  0
 30 29  1  0  0  0  0
 31 32  1  0  0  0  0
 32 33  1  0  0  0  0
 33 34  1  0  0  0  0
 33 38  1  0  0  0  0
 35 34  1  0  0  0  0
 36 35  1  0  0  0  0
 37 36  1  0  0  0  0
 37 33  1  0  0  0  0
M  END
>  <minimizedAffinity>
-11.3083439

$$$$

 OpenBabel11232418563D

 38 42  0  0  1  0  0  0  0  0999 V2000
    7.7310   -6.9190   11.4440 C   0  0  0  0  0  0  0  0  0  0  0  0
    7.8570   -5.7090   11.9520 N   0  0  0  0  0  0  0  0  0  0  0  0
    7.3030   -4.8310   11.0580 C   0  0  0  0  0  0  0  0  0  0  0  0
    6.8720   -5.5160    9.9450 C   0  0  0  0  0  3  0  0  0  0  0  0
    7.1890   -6.8330   10.1780 N   0  0  0  0  0  0  0  0  0  0  0  0
    7.2270   -3.4000   11.2970 C   0  0  0  0  0  0  0  0  0  0  0  0
    7.0600   -2.4760   10.2530 C   0  0  0  0  0  3  0  0  0  0  0  0
    6.9880   -1.1060   10.5210 C   0  0  0  0  0  3  0  0  0  0  0  0
    7.0830   -0.6520   11.8330 C   0  0  0  0  0  0  0  0  0  0  0  0
    7.0160    0.6670   12.0630 F   0  0  0  0  0  0  0  0  0  0  0  0
    7.2450   -1.5530   12.8810 C   0  0  0  0  0  0  0  0  0  0  0  0
    7.3660   -0.9970   14.5050 Cl  0  0  0  0  0  0  0  0  0  0  0  0
    7.3130   -2.9220   12.6160 C   0  0  0  0  0  3  0  0  0  0  0  0
    9.3880   -9.5430   14.3680 N   0  0  0  0  0  0  0  0  0  0  0  0
   10.0130   -9.6070   13.0450 C   0  0  0  0  0  2  0  0  0  0  0  0
    9.6280   -8.3930   12.2010 C   0  0  0  0  0  2  0  0  0  0  0  0
    8.1090   -8.1620   12.2090 C   0  0  1  0  0  3  0  0  0  0  0  0
    7.4790   -8.2230   13.6050 C   0  0  0  0  0  2  0  0  0  0  0  0
    7.9280   -9.4700   14.3640 C   0  0  0  0  0  2  0  0  0  0  0  0
   10.5630   -9.5800   16.4980 C   0  0  0  0  0  0  0  0  0  0  0  0
   11.2220   -8.8060   17.4510 C   0  0  0  0  0  0  0  0  0  0  0  0
   11.6890   -9.3330   18.6410 N   0  0  0  0  0  0  0  0  0  0  0  0
   11.4070   -7.4880   17.3220 N   0  0  0  0  0  0  0  0  0  0  0  0
   11.0000   -6.9520   16.1750 C   0  0  0  0  0  3  0  0  0  0  0  0
   10.2950   -7.5710   15.2250 N   0  0  0  0  0  0  0  0  0  0  0  0
   10.0850   -8.8950   15.3800 C   0  0  0  0  0  0  0  0  0  0  0  0
   12.1470   -8.6410   19.2210 H   0  0  0  0  0  0  0  0  0  0  0  0
   12.1490  -10.2340   18.6050 H   0  0  0  0  0  0  0  0  0  0  0  0
   11.7170  -11.7460   15.9740 C   0  0  0  0  0  1  0  0  0  0  0  0
   10.5070  -11.0850   16.6220 C   0  0  0  0  0  2  0  0  0  0  0  0
    7.0070   -7.8790    9.1840 C   0  0  0  0  0  2  0  0  0  0  0  0
    7.3370   -7.3450    7.7840 C   0  0  0  0  0  2  0  0  0  0  0  0
    6.8950   -8.2280    6.6400 N   0  0  0  0  0  4  0  0  0  0  0  0
    6.9560   -9.7290    6.8560 C   0  0  0  0  0  2  0  0  0  0  0  0
    7.6900  -10.2620    5.6380 C   0  0  0  0  0  2  0  0  0  0  0  0
    7.3810   -9.2500    4.5520 C   0  0  0  0  0  2  0  0  0  0  0  0
    7.5100   -7.9300    5.2830 C   0  0  0  0  0  2  0  0  0  0  0  0
    5.8930   -8.0180    6.5180 H   0  0  0  0  0  0  0  0  0  0  0  0
  1  2  2  0  0  0  0
  3  6  1  0  0  0  0
  3  2  1  0  0  0  0
  4  5  1  0  0  0  0
  4  3  2  0  0  0  0
  5  1  1  0  0  0  0
  6 13  1  0  0  0  0
  7  8  1  0  0  0  0
  7  6  2  0  0  0  0
  8  9  2  0  0  0  0
  9 10  1  0  0  0  0
  9 11  1  0  0  0  0
 11 12  1  0  0  0  0
 13 11  2  0  0  0  0
 14 26  1  0  0  0  0
 15 14  1  0  0  0  0
 16 17  1  0  0  0  0
 16 15  1  0  0  0  0
 17  1  1  1  0  0  0
 17 18  1  0  0  0  0
 18 19  1  0  0  0  0
 19 14  1  0  0  0  0
 20 30  1  0  0  0  0
 20 21  1  0  0  0  0
 21 22  1  0  0  0  0
 22 27  1  0  0  0  0
 23 21  2  0  0  0  0
 24 23  1  0  0  0  0
 25 26  1  0  0  0  0
 25 24  2  0  0  0  0
 26 20  2  0  0  0  0
 28 22  1  0  0  0  0
 29 30  1  0  0  0  0
 31  5  1  0  0  0  0
 32 31  1  0  0  0  0
 33 34  1  0  0  0  0
 33 32  1  0  0  0  0
 35 34  1  0  0  0  0
 36 37  1  0  0  0  0
 36 35  1  0  0  0  0
 37 33  1  0  0  0  0
 38 33  1  0  0  0  0
M  END
>  <minimizedAffinity>
-11.1885557

$$$$

 OpenBabel11232418563D

 38 42  0  0  1  0  0  0  0  0999 V2000
    6.8130   -5.6080    9.9350 C   0  0  0  0  0  0  0  0  0  0  0  0
    7.1540   -6.6920    9.2660 N   0  0  0  0  0  0  0  0  0  0  0  0
    6.9990   -6.4130    7.9330 C   0  0  0  0  0  0  0  0  0  0  0  0
    6.4980   -5.1410    7.7830 C   0  0  0  0  0  3  0  0  0  0  0  0
    6.3390   -4.6540    9.0590 N   0  0  0  0  0  0  0  0  0  0  0  0
    7.3160   -7.3670    6.8830 C   0  0  0  0  0  0  0  0  0  0  0  0
    7.1120   -8.7470    7.0420 C   0  0  0  0  0  3  0  0  0  0  0  0
    7.4250   -9.6340    6.0090 C   0  0  0  0  0  3  0  0  0  0  0  0
    7.9450   -9.1490    4.8130 C   0  0  0  0  0  0  0  0  0  0  0  0
    8.2430  -10.0210    3.8400 F   0  0  0  0  0  0  0  0  0  0  0  0
    8.1510   -7.7840    4.6370 C   0  0  0  0  0  0  0  0  0  0  0  0
    8.7970   -7.1770    3.1610 Cl  0  0  0  0  0  0  0  0  0  0  0  0
    7.8350   -6.8950    5.6660 C   0  0  0  0  0  3  0  0  0  0  0  0
    7.9720   -6.3830   13.9650 N   0  0  0  0  0  0  0  0  0  0  0  0
    6.5510   -6.5840   13.6740 C   0  0  0  0  0  2  0  0  0  0  0  0
    6.3080   -6.6620   12.1670 C   0  0  0  0  0  2  0  0  0  0  0  0
    6.9800   -5.4940   11.4290 C   0  0  1  0  0  3  0  0  0  0  0  0
    8.4320   -5.2430   11.8540 C   0  0  0  0  0  2  0  0  0  0  0  0
    8.5650   -5.1850   13.3740 C   0  0  0  0  0  2  0  0  0  0  0  0
    9.4390   -7.7820   15.3110 C   0  0  0  0  0  0  0  0  0  0  0  0
   10.2220   -8.9340   15.3230 C   0  0  0  0  0  0  0  0  0  0  0  0
   10.9990   -9.2930   16.4090 N   0  0  0  0  0  0  0  0  0  0  0  0
   10.3300   -9.7560   14.2720 N   0  0  0  0  0  0  0  0  0  0  0  0
    9.5710   -9.4610   13.2220 C   0  0  0  0  0  3  0  0  0  0  0  0
    8.8430   -8.3530   13.0650 N   0  0  0  0  0  0  0  0  0  0  0  0
    8.7650   -7.5130   14.1190 C   0  0  0  0  0  0  0  0  0  0  0  0
   11.5030  -10.1580   16.2580 H   0  0  0  0  0  0  0  0  0  0  0  0
   10.5930   -9.1880   17.3290 H   0  0  0  0  0  0  0  0  0  0  0  0
   10.2520   -5.8380   16.6740 C   0  0  0  0  0  1  0  0  0  0  0  0
    9.2350   -6.9670   16.5670 C   0  0  0  0  0  2  0  0  0  0  0  0
    5.7170   -3.3720    9.3450 C   0  0  0  0  0  2  0  0  0  0  0  0
    6.5650   -2.2290    8.7710 C   0  0  0  0  0  2  0  0  0  0  0  0
    7.2890   -1.3900    9.8000 N   0  0  0  0  0  4  0  0  0  0  0  0
    7.1960   -1.8310   11.2480 C   0  0  0  0  0  2  0  0  0  0  0  0
    6.7950   -0.5780   12.0060 C   0  0  0  0  0  2  0  0  0  0  0  0
    7.3500    0.5530   11.1630 C   0  0  0  0  0  2  0  0  0  0  0  0
    7.0270    0.1050    9.7530 C   0  0  0  0  0  2  0  0  0  0  0  0
    8.2870   -1.4820    9.5580 H   0  0  0  0  0  0  0  0  0  0  0  0
  2  1  2  0  0  0  0
  3  2  1  0  0  0  0
  4  3  2  0  0  0  0
  4  5  1  0  0  0  0
  5 31  1  0  0  0  0
  5  1  1  0  0  0  0
  6  7  1  0  0  0  0
  6  3  1  0  0  0  0
  8  7  2  0  0  0  0
  9  8  1  0  0  0  0
 10  9  1  0  0  0  0
 11  9  2  0  0  0  0
 11 13  1  0  0  0  0
 12 11  1  0  0  0  0
 13  6  2  0  0  0  0
 14 26  1  0  0  0  0
 15 14  1  0  0  0  0
 16 15  1  0  0  0  0
 17  1  1  6  0  0  0
 17 18  1  0  0  0  0
 17 16  1  0  0  0  0
 18 19  1  0  0  0  0
 19 14  1  0  0  0  0
 20 21  1  0  0  0  0
 20 30  1  0  0  0  0
 21 22  1  0  0  0  0
 22 28  1  0  0  0  0
 23 21  2  0  0  0  0
 24 23  1  0  0  0  0
 25 24  2  0  0  0  0
 25 26  1  0  0  0  0
 26 20  2  0  0  0  0
 27 22  1  0  0  0  0
 30 29  1  0  0  0  0
 32 31  1  0  0  0  0
 32 33  1  0  0  0  0
 33 34  1  0  0  0  0
 34 35  1  0  0  0  0
 36 35  1  0  0  0  0
 37 33  1  0  0  0  0
 37 36  1  0  0  0  0
 38 33  1  0  0  0  0
M  END
>  <minimizedAffinity>
-10.9687805

$$$$

 OpenBabel11232418563D

 38 42  0  0  1  0  0  0  0  0999 V2000
    7.2500   -6.5130   11.3320 C   0  0  0  0  0  0  0  0  0  0  0  0
    7.3520   -6.4180   10.0210 N   0  0  0  0  0  0  0  0  0  0  0  0
    7.0980   -7.6600    9.5010 C   0  0  0  0  0  0  0  0  0  0  0  0
    6.8890   -8.5550   10.5250 C   0  0  0  0  0  3  0  0  0  0  0  0
    7.0320   -7.8290   11.6840 N   0  0  0  0  0  0  0  0  0  0  0  0
    7.0860   -7.9340    8.0740 C   0  0  0  0  0  0  0  0  0  0  0  0
    6.8160   -9.2130    7.5620 C   0  0  0  0  0  3  0  0  0  0  0  0
    6.8090   -9.4380    6.1820 C   0  0  0  0  0  3  0  0  0  0  0  0
    7.0720   -8.3880    5.3080 C   0  0  0  0  0  0  0  0  0  0  0  0
    7.0650   -8.6310    3.9900 F   0  0  0  0  0  0  0  0  0  0  0  0
    7.3380   -7.1130    5.7980 C   0  0  0  0  0  0  0  0  0  0  0  0
    7.6680   -5.8110    4.7230 Cl  0  0  0  0  0  0  0  0  0  0  0  0
    7.3420   -6.8850    7.1760 C   0  0  0  0  0  3  0  0  0  0  0  0
    7.4620   -2.4950   12.7460 N   0  0  0  0  0  0  0  0  0  0  0  0
    8.6900   -3.2780   12.9010 C   0  0  0  0  0  2  0  0  0  0  0  0
    8.6460   -4.5390   12.0390 C   0  0  0  0  0  2  0  0  0  0  0  0
    7.3340   -5.3120   12.2400 C   0  0  1  0  0  3  0  0  0  0  0  0
    6.0800   -4.4310   12.1880 C   0  0  0  0  0  2  0  0  0  0  0  0
    6.2270   -3.2010   13.0810 C   0  0  0  0  0  2  0  0  0  0  0  0
    8.0260   -0.2860   11.8950 C   0  0  0  0  0  0  0  0  0  0  0  0
    7.8980    0.5890   10.8190 C   0  0  0  0  0  0  0  0  0  0  0  0
    8.3770    1.8860   10.8550 N   0  0  0  0  0  0  0  0  0  0  0  0
    7.2570    0.2700    9.6890 N   0  0  0  0  0  0  0  0  0  0  0  0
    6.8130   -0.9800    9.6050 C   0  0  0  0  0  3  0  0  0  0  0  0
    6.8100   -1.8810   10.5900 N   0  0  0  0  0  0  0  0  0  0  0  0
    7.4300   -1.5390   11.7390 C   0  0  0  0  0  0  0  0  0  0  0  0
    8.2070    2.3880    9.9930 H   0  0  0  0  0  0  0  0  0  0  0  0
    9.2890    2.0360   11.2670 H   0  0  0  0  0  0  0  0  0  0  0  0
    8.0310    0.4610   14.2910 C   0  0  0  0  0  1  0  0  0  0  0  0
    8.8810    0.0690   13.0890 C   0  0  0  0  0  2  0  0  0  0  0  0
    7.0050   -8.4340   13.0060 C   0  0  0  0  0  2  0  0  0  0  0  0
    8.4060   -8.9230   13.3960 C   0  0  0  0  0  2  0  0  0  0  0  0
    8.8740   -8.5000   14.7700 N   0  0  0  0  0  4  0  0  0  0  0  0
    8.6830   -7.0440   15.1510 C   0  0  0  0  0  2  0  0  0  0  0  0
   10.0390   -6.6040   15.6750 C   0  0  0  0  0  2  0  0  0  0  0  0
   10.6560   -7.8810   16.2110 C   0  0  0  0  0  2  0  0  0  0  0  0
   10.2890   -8.8970   15.1500 C   0  0  0  0  0  2  0  0  0  0  0  0
    8.2760   -9.0260   15.4240 H   0  0  0  0  0  0  0  0  0  0  0  0
  1  5  1  0  0  0  0
  2  1  2  0  0  0  0
  3  2  1  0  0  0  0
  3  4  2  0  0  0  0
  4  5  1  0  0  0  0
  5 31  1  0  0  0  0
  6  3  1  0  0  0  0
  7  6  1  0  0  0  0
  8  7  2  0  0  0  0
  9 11  2  0  0  0  0
  9  8  1  0  0  0  0
 10  9  1  0  0  0  0
 11 13  1  0  0  0  0
 12 11  1  0  0  0  0
 13  6  2  0  0  0  0
 14 15  1  0  0  0  0
 14 19  1  0  0  0  0
 16 17  1  0  0  0  0
 16 15  1  0  0  0  0
 17  1  1  6  0  0  0
 18 17  1  0  0  0  0
 18 19  1  0  0  0  0
 20 30  1  0  0  0  0
 21 22  1  0  0  0  0
 21 20  2  0  0  0  0
 22 28  1  0  0  0  0
 23 21  1  0  0  0  0
 24 23  2  0  0  0  0
 24 25  1  0  0  0  0
 25 26  2  0  0  0  0
 26 20  1  0  0  0  0
 26 14  1  0  0  0  0
 27 22  1  0  0  0  0
 30 29  1  0  0  0  0
 31 32  1  0  0  0  0
 32 33  1  0  0  0  0
 33 37  1  0  0  0  0
 33 34  1  0  0  0  0
 33 38  1  0  0  0  0
 34 35  1  0  0  0  0
 35 36  1  0  0  0  0
 37 36  1  0  0  0  0
M  END
>  <minimizedAffinity>
-10.7648382

$$$$

 OpenBabel11232418563D

 38 42  0  0  1  0  0  0  0  0999 V2000
    6.8200   -5.2980    9.7710 C   0  0  0  0  0  0  0  0  0  0  0  0
    6.6390   -4.0020    9.6090 N   0  0  0  0  0  0  0  0  0  0  0  0
    7.2440   -3.3700   10.6650 C   0  0  0  0  0  0  0  0  0  0  0  0
    7.7650   -4.3080   11.5260 C   0  0  0  0  0  3  0  0  0  0  0  0
    7.4510   -5.5280   10.9760 N   0  0  0  0  0  0  0  0  0  0  0  0
    7.2800   -1.9250   10.8060 C   0  0  0  0  0  0  0  0  0  0  0  0
    6.8760   -1.0640    9.7730 C   0  0  0  0  0  3  0  0  0  0  0  0
    6.9220    0.3230    9.9460 C   0  0  0  0  0  3  0  0  0  0  0  0
    7.3720    0.8560   11.1500 C   0  0  0  0  0  0  0  0  0  0  0  0
    7.4110    2.1890   11.2890 F   0  0  0  0  0  0  0  0  0  0  0  0
    7.7720    0.0180   12.1860 C   0  0  0  0  0  0  0  0  0  0  0  0
    8.3320    0.6700   13.6770 Cl  0  0  0  0  0  0  0  0  0  0  0  0
    7.7240   -1.3680   12.0170 C   0  0  0  0  0  3  0  0  0  0  0  0
    6.8060   -7.8170    6.3310 N   0  0  0  0  0  0  0  0  0  0  0  0
    5.8590   -6.7000    6.2920 C   0  0  0  0  0  2  0  0  0  0  0  0
    6.1990   -5.6590    7.3570 C   0  0  0  0  0  2  0  0  0  0  0  0
    6.4050   -6.3090    8.7330 C   0  0  1  0  0  3  0  0  0  0  0  0
    7.3090   -7.5470    8.7060 C   0  0  0  0  0  2  0  0  0  0  0  0
    6.8860   -8.5210    7.6080 C   0  0  0  0  0  2  0  0  0  0  0  0
    8.5820   -8.8450    5.0230 C   0  0  0  0  0  0  0  0  0  0  0  0
    9.7380   -8.6070    4.2820 C   0  0  0  0  0  0  0  0  0  0  0  0
   10.5050   -9.6290    3.7550 N   0  0  0  0  0  0  0  0  0  0  0  0
   10.2290   -7.3810    4.0670 N   0  0  0  0  0  0  0  0  0  0  0  0
    9.5000   -6.3710    4.5310 C   0  0  0  0  0  3  0  0  0  0  0  0
    8.4220   -6.4750    5.3130 N   0  0  0  0  0  0  0  0  0  0  0  0
    7.9520   -7.7170    5.5520 C   0  0  0  0  0  0  0  0  0  0  0  0
   11.3080   -9.2880    3.2410 H   0  0  0  0  0  0  0  0  0  0  0  0
   10.0180  -10.4050    3.3240 H   0  0  0  0  0  0  0  0  0  0  0  0
    6.9770  -10.4830    4.0040 C   0  0  0  0  0  1  0  0  0  0  0  0
    7.9890  -10.2310    5.1140 C   0  0  0  0  0  2  0  0  0  0  0  0
    7.7220   -6.7900   11.6450 C   0  0  0  0  0  2  0  0  0  0  0  0
    6.7260   -7.0090   12.7920 C   0  0  0  0  0  2  0  0  0  0  0  0
    7.3390   -7.4640   14.0970 N   0  0  0  0  0  4  0  0  0  0  0  0
    8.4670   -6.6230   14.6660 C   0  0  0  0  0  2  0  0  0  0  0  0
    9.5680   -7.6210   14.9800 C   0  0  0  0  0  2  0  0  0  0  0  0
    8.8230   -8.9140   15.2510 C   0  0  0  0  0  2  0  0  0  0  0  0
    7.7650   -8.9200   14.1680 C   0  0  0  0  0  2  0  0  0  0  0  0
    6.5770   -7.3860   14.7870 H   0  0  0  0  0  0  0  0  0  0  0  0
  1  5  1  0  0  0  0
  2  1  2  0  0  0  0
  2  3  1  0  0  0  0
  3  6  1  0  0  0  0
  3  4  2  0  0  0  0
  5  4  1  0  0  0  0
  5 31  1  0  0  0  0
  6 13  1  0  0  0  0
  7  8  1  0  0  0  0
  7  6  2  0  0  0  0
  8  9  2  0  0  0  0
  9 10  1  0  0  0  0
  9 11  1  0  0  0  0
 11 12  1  0  0  0  0
 13 11  2  0  0  0  0
 14 19  1  0  0  0  0
 15 14  1  0  0  0  0
 15 16  1  0  0  0  0
 16 17  1  0  0  0  0
 17  1  1  1  0  0  0
 18 17  1  0  0  0  0
 19 18  1  0  0  0  0
 20 30  1  0  0  0  0
 20 26  1  0  0  0  0
 21 20  2  0  0  0  0
 22 21  1  0  0  0  0
 23 21  1  0  0  0  0
 23 24  2  0  0  0  0
 24 25  1  0  0  0  0
 25 26  2  0  0  0  0
 26 14  1  0  0  0  0
 27 22  1  0  0  0  0
 28 22  1  0  0  0  0
 29 30  1  0  0  0  0
 31 32  1  0  0  0  0
 32 33  1  0  0  0  0
 33 37  1  0  0  0  0
 33 34  1  0  0  0  0
 33 38  1  0  0  0  0
 34 35  1  0  0  0  0
 35 36  1  0  0  0  0
 37 36  1  0  0  0  0
M  END
>  <minimizedAffinity>
-10.4524117

$$$$

 OpenBabel11232418563D

 38 42  0  0  1  0  0  0  0  0999 V2000
    7.5050   -6.1700   10.7350 C   0  0  0  0  0  0  0  0  0  0  0  0
    7.6220   -7.1530    9.8630 N   0  0  0  0  0  0  0  0  0  0  0  0
    7.1420   -6.6930    8.6640 C   0  0  0  0  0  0  0  0  0  0  0  0
    6.6690   -5.4110    8.8170 C   0  0  0  0  0  3  0  0  0  0  0  0
    6.8600   -5.1040   10.1440 N   0  0  0  0  0  0  0  0  0  0  0  0
    7.1430   -7.4950    7.4520 C   0  0  0  0  0  0  0  0  0  0  0  0
    6.9900   -8.8900    7.4800 C   0  0  0  0  0  3  0  0  0  0  0  0
    6.9920   -9.6280    6.2930 C   0  0  0  0  0  3  0  0  0  0  0  0
    7.1490   -8.9770    5.0730 C   0  0  0  0  0  0  0  0  0  0  0  0
    7.1530   -9.7090    3.9500 F   0  0  0  0  0  0  0  0  0  0  0  0
    7.2980   -7.5950    5.0260 C   0  0  0  0  0  0  0  0  0  0  0  0
    7.4950   -6.7840    3.5210 Cl  0  0  0  0  0  0  0  0  0  0  0  0
    7.2920   -6.8550    6.2100 C   0  0  0  0  0  3  0  0  0  0  0  0
    8.8090   -7.7010   14.4950 N   0  0  0  0  0  0  0  0  0  0  0  0
    7.5710   -6.9180   14.5340 C   0  0  0  0  0  2  0  0  0  0  0  0
    6.9890   -6.7480   13.1310 C   0  0  0  0  0  2  0  0  0  0  0  0
    8.0530   -6.2630   12.1360 C   0  0  1  0  0  3  0  0  0  0  0  0
    9.3750   -7.0350   12.2140 C   0  0  0  0  0  2  0  0  0  0  0  0
    9.8690   -7.1490   13.6550 C   0  0  0  0  0  2  0  0  0  0  0  0
    9.1180   -9.7570   15.7610 C   0  0  0  0  0  0  0  0  0  0  0  0
    8.9800  -11.1430   15.7370 C   0  0  0  0  0  0  0  0  0  0  0  0
    9.4120  -11.9490   16.7740 N   0  0  0  0  0  0  0  0  0  0  0  0
    8.4740  -11.8100   14.6940 N   0  0  0  0  0  0  0  0  0  0  0  0
    8.0180  -11.0650   13.6920 C   0  0  0  0  0  3  0  0  0  0  0  0
    8.1600   -9.7430   13.5680 N   0  0  0  0  0  0  0  0  0  0  0  0
    8.7020   -9.0810   14.6120 C   0  0  0  0  0  0  0  0  0  0  0  0
    9.2350  -12.9320   16.6030 H   0  0  0  0  0  0  0  0  0  0  0  0
    9.2240  -11.6380   17.7180 H   0  0  0  0  0  0  0  0  0  0  0  0
   11.0620   -8.7850   17.0160 C   0  0  0  0  0  1  0  0  0  0  0  0
    9.5600   -9.0400   17.0150 C   0  0  0  0  0  2  0  0  0  0  0  0
    6.3810   -3.8710   10.7480 C   0  0  0  0  0  2  0  0  0  0  0  0
    6.6610   -2.6810    9.8200 C   0  0  0  0  0  2  0  0  0  0  0  0
    7.4360   -1.5460   10.4490 N   0  0  0  0  0  4  0  0  0  0  0  0
    7.6280   -1.5840   11.9530 C   0  0  0  0  0  2  0  0  0  0  0  0
    7.2090   -0.2030   12.4280 C   0  0  0  0  0  2  0  0  0  0  0  0
    7.4870    0.6930   11.2370 C   0  0  0  0  0  2  0  0  0  0  0  0
    6.9970   -0.1410   10.0730 C   0  0  0  0  0  2  0  0  0  0  0  0
    8.3870   -1.6300   10.0580 H   0  0  0  0  0  0  0  0  0  0  0  0
  2  1  2  0  0  0  0
  3  4  2  0  0  0  0
  3  2  1  0  0  0  0
  4  5  1  0  0  0  0
  5  1  1  0  0  0  0
  5 31  1  0  0  0  0
  6  7  1  0  0  0  0
  6  3  1  0  0  0  0
  8  7  2  0  0  0  0
  9  8  1  0  0  0  0
 10  9  1  0  0  0  0
 11  9  2  0  0  0  0
 11 13  1  0  0  0  0
 12 11  1  0  0  0  0
 13  6  2  0  0  0  0
 14 15  1  0  0  0  0
 14 26  1  0  0  0  0
 16 15  1  0  0  0  0
 17  1  1  6  0  0  0
 17 18  1  0  0  0  0
 17 16  1  0  0  0  0
 18 19  1  0  0  0  0
 19 14  1  0  0  0  0
 20 30  1  0  0  0  0
 21 20  1  0  0  0  0
 21 22  1  0  0  0  0
 22 28  1  0  0  0  0
 23 21  2  0  0  0  0
 24 23  1  0  0  0  0
 25 24  2  0  0  0  0
 25 26  1  0  0  0  0
 26 20  2  0  0  0  0
 27 22  1  0  0  0  0
 30 29  1  0  0  0  0
 32 33  1  0  0  0  0
 32 31  1  0  0  0  0
 33 34  1  0  0  0  0
 34 35  1  0  0  0  0
 36 35  1  0  0  0  0
 37 33  1  0  0  0  0
 37 36  1  0  0  0  0
 38 33  1  0  0  0  0
M  END
>  <minimizedAffinity>
-10.4020586

$$$$

 OpenBabel11232418563D

 38 42  0  0  1  0  0  0  0  0999 V2000
    7.6240   -8.4320   12.8040 C   0  0  0  0  0  0  0  0  0  0  0  0
    7.2440   -9.6930   12.8800 N   0  0  0  0  0  0  0  0  0  0  0  0
    8.1590  -10.3480   13.6610 C   0  0  0  0  0  0  0  0  0  0  0  0
    9.1590   -9.4780   14.0300 C   0  0  0  0  0  3  0  0  0  0  0  0
    8.8360   -8.2770   13.4440 N   0  0  0  0  0  0  0  0  0  0  0  0
    8.0470  -11.7570   13.9980 C   0  0  0  0  0  0  0  0  0  0  0  0
    8.5660  -12.2820   15.1930 C   0  0  0  0  0  3  0  0  0  0  0  0
    8.4360  -13.6430   15.4860 C   0  0  0  0  0  3  0  0  0  0  0  0
    7.7890  -14.4860   14.5880 C   0  0  0  0  0  0  0  0  0  0  0  0
    7.6820  -15.7870   14.8900 F   0  0  0  0  0  0  0  0  0  0  0  0
    7.2650  -13.9820   13.4010 C   0  0  0  0  0  0  0  0  0  0  0  0
    6.4660  -15.0200   12.2840 Cl  0  0  0  0  0  0  0  0  0  0  0  0
    7.3900  -12.6230   13.1080 C   0  0  0  0  0  3  0  0  0  0  0  0
    6.1750   -4.6650   11.4280 N   0  0  0  0  0  0  0  0  0  0  0  0
    5.3650   -5.3050   12.4670 C   0  0  0  0  0  2  0  0  0  0  0  0
    6.1450   -6.4240   13.1560 C   0  0  0  0  0  2  0  0  0  0  0  0
    6.7870   -7.3730   12.1330 C   0  0  1  0  0  3  0  0  0  0  0  0
    7.5240   -6.6560   10.9960 C   0  0  0  0  0  2  0  0  0  0  0  0
    6.6600   -5.5590   10.3780 C   0  0  0  0  0  2  0  0  0  0  0  0
    6.9830   -2.3980   11.0660 C   0  0  0  0  0  0  0  0  0  0  0  0
    7.8390   -1.4040   11.5330 C   0  0  0  0  0  0  0  0  0  0  0  0
    8.0130   -0.2020   10.8710 N   0  0  0  0  0  0  0  0  0  0  0  0
    8.6000   -1.5470   12.6240 N   0  0  0  0  0  0  0  0  0  0  0  0
    8.4350   -2.6770   13.3050 C   0  0  0  0  0  3  0  0  0  0  0  0
    7.7060   -3.7270   12.9200 N   0  0  0  0  0  0  0  0  0  0  0  0
    6.9650   -3.5850   11.8010 C   0  0  0  0  0  0  0  0  0  0  0  0
    8.6650    0.4120   11.3430 H   0  0  0  0  0  0  0  0  0  0  0  0
    7.1880    0.2510   10.5010 H   0  0  0  0  0  0  0  0  0  0  0  0
    6.6630   -2.5090    8.5790 C   0  0  0  0  0  1  0  0  0  0  0  0
    6.0380   -2.1340    9.9170 C   0  0  0  0  0  2  0  0  0  0  0  0
    9.7080   -7.1140   13.4910 C   0  0  0  0  0  2  0  0  0  0  0  0
    9.4160   -6.2810   14.7470 C   0  0  0  0  0  2  0  0  0  0  0  0
   10.5640   -6.1680   15.7230 N   0  0  0  0  0  4  0  0  0  0  0  0
   11.2180   -7.4590   16.1800 C   0  0  0  0  0  2  0  0  0  0  0  0
   11.2610   -7.3520   17.6940 C   0  0  0  0  0  2  0  0  0  0  0  0
   11.3150   -5.8600   17.9540 C   0  0  0  0  0  2  0  0  0  0  0  0
   10.3190   -5.3130   16.9530 C   0  0  0  0  0  2  0  0  0  0  0  0
   11.3010   -5.6670   15.2050 H   0  0  0  0  0  0  0  0  0  0  0  0
  1  2  2  0  0  0  0
  1  5  1  0  0  0  0
  2  3  1  0  0  0  0
  3  6  1  0  0  0  0
  3  4  2  0  0  0  0
  5 31  1  0  0  0  0
  5  4  1  0  0  0  0
  6  7  1  0  0  0  0
  7  8  2  0  0  0  0
  9 10  1  0  0  0  0
  9  8  1  0  0  0  0
 11  9  2  0  0  0  0
 12 11  1  0  0  0  0
 13 11  1  0  0  0  0
 13  6  2  0  0  0  0
 14 26  1  0  0  0  0
 14 15  1  0  0  0  0
 15 16  1  0  0  0  0
 17  1  1  1  0  0  0
 17 16  1  0  0  0  0
 18 17  1  0  0  0  0
 19 18  1  0  0  0  0
 19 14  1  0  0  0  0
 20 21  2  0  0  0  0
 20 26  1  0  0  0  0
 21 23  1  0  0  0  0
 22 27  1  0  0  0  0
 22 21  1  0  0  0  0
 23 24  2  0  0  0  0
 25 24  1  0  0  0  0
 26 25  2  0  0  0  0
 28 22  1  0  0  0  0
 29 30  1  0  0  0  0
 30 20  1  0  0  0  0
 31 32  1  0  0  0  0
 32 33  1  0  0  0  0
 33 34  1  0  0  0  0
 33 37  1  0  0  0  0
 34 35  1  0  0  0  0
 35 36  1  0  0  0  0
 37 36  1  0  0  0  0
 38 33  1  0  0  0  0
M  END
>  <minimizedAffinity>
-10.3735819

$$$$

 OpenBabel11232418563D

 38 42  0  0  1  0  0  0  0  0999 V2000
    8.5340   -6.9830   13.3080 C   0  0  0  0  0  0  0  0  0  0  0  0
    8.8420   -7.5470   14.4600 N   0  0  0  0  0  0  0  0  0  0  0  0
    9.4070   -8.7640   14.1790 C   0  0  0  0  0  0  0  0  0  0  0  0
    9.3960   -8.9750   12.8200 C   0  0  0  0  0  3  0  0  0  0  0  0
    8.7990   -7.8610   12.2780 N   0  0  0  0  0  0  0  0  0  0  0  0
    9.9060   -9.6600   15.2080 C   0  0  0  0  0  0  0  0  0  0  0  0
    9.6620  -11.0420   15.1760 C   0  0  0  0  0  3  0  0  0  0  0  0
   10.1620  -11.8750   16.1810 C   0  0  0  0  0  3  0  0  0  0  0  0
   10.9070  -11.3310   17.2240 C   0  0  0  0  0  0  0  0  0  0  0  0
   11.3700  -12.1500   18.1780 F   0  0  0  0  0  0  0  0  0  0  0  0
   11.1620   -9.9640   17.2690 C   0  0  0  0  0  0  0  0  0  0  0  0
   12.0800   -9.2850   18.5570 Cl  0  0  0  0  0  0  0  0  0  0  0  0
   10.6670   -9.1310   16.2640 C   0  0  0  0  0  3  0  0  0  0  0  0
    6.9460   -3.3330   11.7770 N   0  0  0  0  0  0  0  0  0  0  0  0
    8.3490   -3.2780   12.1950 C   0  0  0  0  0  2  0  0  0  0  0  0
    8.9260   -4.6840   12.3570 C   0  0  0  0  0  2  0  0  0  0  0  0
    8.0110   -5.5720   13.2120 C   0  0  1  0  0  3  0  0  0  0  0  0
    6.5320   -5.5060   12.8140 C   0  0  0  0  0  2  0  0  0  0  0  0
    6.0560   -4.0610   12.6790 C   0  0  0  0  0  2  0  0  0  0  0  0
    6.6970   -2.1980    9.6390 C   0  0  0  0  0  0  0  0  0  0  0  0
    6.3870   -2.3610    8.2910 C   0  0  0  0  0  0  0  0  0  0  0  0
    6.2970   -1.2930    7.4160 N   0  0  0  0  0  0  0  0  0  0  0  0
    6.0970   -3.5470    7.7440 N   0  0  0  0  0  0  0  0  0  0  0  0
    6.2060   -4.6000    8.5480 C   0  0  0  0  0  3  0  0  0  0  0  0
    6.4210   -4.5650    9.8650 N   0  0  0  0  0  0  0  0  0  0  0  0
    6.6810   -3.3590   10.4140 C   0  0  0  0  0  0  0  0  0  0  0  0
    6.0670   -1.5810    6.4730 H   0  0  0  0  0  0  0  0  0  0  0  0
    7.0040   -0.5720    7.4840 H   0  0  0  0  0  0  0  0  0  0  0  0
    6.0280    0.1590   10.1820 C   0  0  0  0  0  1  0  0  0  0  0  0
    7.1580   -0.8630   10.1760 C   0  0  0  0  0  2  0  0  0  0  0  0
    8.4850   -7.7410   10.8640 C   0  0  0  0  0  2  0  0  0  0  0  0
    7.0780   -8.2870   10.5830 C   0  0  0  0  0  2  0  0  0  0  0  0
    6.6330   -8.2010    9.1400 N   0  0  0  0  0  4  0  0  0  0  0  0
    6.0900   -9.4660    8.5030 C   0  0  0  0  0  2  0  0  0  0  0  0
    6.8490   -9.5920    7.1940 C   0  0  0  0  0  2  0  0  0  0  0  0
    7.2000   -8.1610    6.8350 C   0  0  0  0  0  2  0  0  0  0  0  0
    7.6200   -7.5790    8.1680 C   0  0  0  0  0  2  0  0  0  0  0  0
    5.8370   -7.5460    9.1500 H   0  0  0  0  0  0  0  0  0  0  0  0
  1  2  2  0  0  0  0
  3  2  1  0  0  0  0
  3  6  1  0  0  0  0
  4  3  2  0  0  0  0
  5  4  1  0  0  0  0
  5  1  1  0  0  0  0
  6 13  1  0  0  0  0
  7  6  2  0  0  0  0
  7  8  1  0  0  0  0
  8  9  2  0  0  0  0
  9 11  1  0  0  0  0
  9 10  1  0  0  0  0
 11 12  1  0  0  0  0
 13 11  2  0  0  0  0
 14 15  1  0  0  0  0
 14 19  1  0  0  0  0
 15 16  1  0  0  0  0
 16 17  1  0  0  0  0
 17  1  1  6  0  0  0
 18 17  1  0  0  0  0
 19 18  1  0  0  0  0
 20 30  1  0  0  0  0
 20 26  1  0  0  0  0
 21 20  2  0  0  0  0
 22 28  1  0  0  0  0
 22 21  1  0  0  0  0
 23 21  1  0  0  0  0
 23 24  2  0  0  0  0
 24 25  1  0  0  0  0
 25 26  2  0  0  0  0
 26 14  1  0  0  0  0
 27 22  1  0  0  0  0
 30 29  1  0  0  0  0
 31  5  1  0  0  0  0
 32 31  1  0  0  0  0
 33 38  1  0  0  0  0
 33 32  1  0  0  0  0
 34 33  1  0  0  0  0
 35 34  1  0  0  0  0
 36 35  1  0  0  0  0
 36 37  1  0  0  0  0
 37 33  1  0  0  0  0
M  END
>  <minimizedAffinity>
-10.245512

$$$$

 OpenBabel11232418563D

 38 42  0  0  1  0  0  0  0  0999 V2000
    7.9950   -7.4180   13.1710 C   0  0  0  0  0  0  0  0  0  0  0  0
    8.0630   -8.3690   14.0820 N   0  0  0  0  0  0  0  0  0  0  0  0
    8.6180   -9.4690   13.4820 C   0  0  0  0  0  0  0  0  0  0  0  0
    8.8470   -9.2030   12.1520 C   0  0  0  0  0  3  0  0  0  0  0  0
    8.4060   -7.9170   11.9520 N   0  0  0  0  0  0  0  0  0  0  0  0
    8.8840  -10.7090   14.1930 C   0  0  0  0  0  0  0  0  0  0  0  0
    8.1510  -11.8810   13.9480 C   0  0  0  0  0  3  0  0  0  0  0  0
    8.4380  -13.0560   14.6480 C   0  0  0  0  0  3  0  0  0  0  0  0
    9.4550  -13.0660   15.5970 C   0  0  0  0  0  0  0  0  0  0  0  0
    9.7060  -14.2050   16.2590 F   0  0  0  0  0  0  0  0  0  0  0  0
   10.1940  -11.9150   15.8500 C   0  0  0  0  0  0  0  0  0  0  0  0
   11.4520  -11.9200   17.0250 Cl  0  0  0  0  0  0  0  0  0  0  0  0
    9.9130  -10.7410   15.1490 C   0  0  0  0  0  3  0  0  0  0  0  0
    6.8610   -3.3250   12.7990 N   0  0  0  0  0  0  0  0  0  0  0  0
    8.1680   -3.5570   13.4180 C   0  0  0  0  0  2  0  0  0  0  0  0
    8.6470   -4.9850   13.1600 C   0  0  0  0  0  2  0  0  0  0  0  0
    7.5570   -6.0130   13.4990 C   0  0  1  0  0  3  0  0  0  0  0  0
    6.1770   -5.6660   12.9310 C   0  0  0  0  0  2  0  0  0  0  0  0
    5.7950   -4.2200   13.2410 C   0  0  0  0  0  2  0  0  0  0  0  0
    6.9400   -1.5000   11.1910 C   0  0  0  0  0  0  0  0  0  0  0  0
    6.8790   -1.1670    9.8400 C   0  0  0  0  0  0  0  0  0  0  0  0
    6.8960    0.1430    9.3970 N   0  0  0  0  0  0  0  0  0  0  0  0
    6.7450   -2.0760    8.8680 N   0  0  0  0  0  0  0  0  0  0  0  0
    6.7600   -3.3480    9.2530 C   0  0  0  0  0  3  0  0  0  0  0  0
    6.7380   -3.7860   10.5140 N   0  0  0  0  0  0  0  0  0  0  0  0
    6.8410   -2.8600   11.4900 C   0  0  0  0  0  0  0  0  0  0  0  0
    6.8490    0.2140    8.3880 H   0  0  0  0  0  0  0  0  0  0  0  0
    7.5450    0.7790    9.8410 H   0  0  0  0  0  0  0  0  0  0  0  0
    8.7310   -0.1740   12.3460 C   0  0  0  0  0  1  0  0  0  0  0  0
    7.2360   -0.4520   12.2380 C   0  0  0  0  0  2  0  0  0  0  0  0
    8.3610   -7.2900   10.6410 C   0  0  0  0  0  2  0  0  0  0  0  0
    7.1780   -7.8370    9.8310 C   0  0  0  0  0  2  0  0  0  0  0  0
    7.4410   -8.0160    8.3530 N   0  0  0  0  0  4  0  0  0  0  0  0
    7.2870   -6.7950    7.4660 C   0  0  0  0  0  2  0  0  0  0  0  0
    6.4020   -7.2610    6.3230 C   0  0  0  0  0  2  0  0  0  0  0  0
    6.6830   -8.7470    6.2250 C   0  0  0  0  0  2  0  0  0  0  0  0
    6.7250   -9.1730    7.6780 C   0  0  0  0  0  2  0  0  0  0  0  0
    8.4400   -8.2630    8.2930 H   0  0  0  0  0  0  0  0  0  0  0  0
  1  2  2  0  0  0  0
  3  2  1  0  0  0  0
  3  6  1  0  0  0  0
  4  3  2  0  0  0  0
  5  4  1  0  0  0  0
  5  1  1  0  0  0  0
  6 13  1  0  0  0  0
  7  6  2  0  0  0  0
  7  8  1  0  0  0  0
  8  9  2  0  0  0  0
  9 11  1  0  0  0  0
  9 10  1  0  0  0  0
 11 12  1  0  0  0  0
 13 11  2  0  0  0  0
 14 19  1  0  0  0  0
 14 15  1  0  0  0  0
 16 15  1  0  0  0  0
 16 17  1  0  0  0  0
 17  1  1  6  0  0  0
 18 19  1  0  0  0  0
 18 17  1  0  0  0  0
 20 26  1  0  0  0  0
 20 30  1  0  0  0  0
 21 20  2  0  0  0  0
 22 21  1  0  0  0  0
 22 28  1  0  0  0  0
 23 24  2  0  0  0  0
 23 21  1  0  0  0  0
 24 25  1  0  0  0  0
 25 26  2  0  0  0  0
 26 14  1  0  0  0  0
 27 22  1  0  0  0  0
 30 29  1  0  0  0  0
 31  5  1  0  0  0  0
 32 31  1  0  0  0  0
 33 32  1  0  0  0  0
 34 33  1  0  0  0  0
 35 34  1  0  0  0  0
 36 35  1  0  0  0  0
 36 37  1  0  0  0  0
 37 33  1  0  0  0  0
 38 33  1  0  0  0  0
M  END
>  <minimizedAffinity>
-10.1113729

$$$$
