
 OpenBabel11232418563D

 38 42  0  0  1  0  0  0  0  0999 V2000
    7.7310   -6.9190   11.4440 C   0  0  0  0  0  0  0  0  0  0  0  0
    7.8570   -5.7090   11.9520 N   0  0  0  0  0  0  0  0  0  0  0  0
    7.3030   -4.8310   11.0580 C   0  0  0  0  0  0  0  0  0  0  0  0
    6.8720   -5.5160    9.9450 C   0  0  0  0  0  3  0  0  0  0  0  0
    7.1890   -6.8330   10.1780 N   0  0  0  0  0  0  0  0  0  0  0  0
    7.2270   -3.4000   11.2970 C   0  0  0  0  0  0  0  0  0  0  0  0
    7.0600   -2.4760   10.2530 C   0  0  0  0  0  3  0  0  0  0  0  0
    6.9880   -1.1060   10.5210 C   0  0  0  0  0  3  0  0  0  0  0  0
    7.0830   -0.6520   11.8330 C   0  0  0  0  0  0  0  0  0  0  0  0
    7.0160    0.6670   12.0630 F   0  0  0  0  0  0  0  0  0  0  0  0
    7.2450   -1.5530   12.8810 C   0  0  0  0  0  0  0  0  0  0  0  0
    7.3660   -0.9970   14.5050 Cl  0  0  0  0  0  0  0  0  0  0  0  0
    7.3130   -2.9220   12.6160 C   0  0  0  0  0  3  0  0  0  0  0  0
    9.3880   -9.5430   14.3680 N   0  0  0  0  0  0  0  0  0  0  0  0
   10.0130   -9.6070   13.0450 C   0  0  0  0  0  2  0  0  0  0  0  0
    9.6280   -8.3930   12.2010 C   0  0  0  0  0  2  0  0  0  0  0  0
    8.1090   -8.1620   12.2090 C   0  0  1  0  0  3  0  0  0  0  0  0
    7.4790   -8.2230   13.6050 C   0  0  0  0  0  2  0  0  0  0  0  0
    7.9280   -9.4700   14.3640 C   0  0  0  0  0  2  0  0  0  0  0  0
   10.5630   -9.5800   16.4980 C   0  0  0  0  0  0  0  0  0  0  0  0
   11.2220   -8.8060   17.4510 C   0  0  0  0  0  0  0  0  0  0  0  0
   11.6890   -9.3330   18.6410 N   0  0  0  0  0  0  0  0  0  0  0  0
   11.4070   -7.4880   17.3220 N   0  0  0  0  0  0  0  0  0  0  0  0
   11.0000   -6.9520   16.1750 C   0  0  0  0  0  3  0  0  0  0  0  0
   10.2950   -7.5710   15.2250 N   0  0  0  0  0  0  0  0  0  0  0  0
   10.0850   -8.8950   15.3800 C   0  0  0  0  0  0  0  0  0  0  0  0
   12.1470   -8.6410   19.2210 H   0  0  0  0  0  0  0  0  0  0  0  0
   12.1490  -10.2340   18.6050 H   0  0  0  0  0  0  0  0  0  0  0  0
   11.7170  -11.7460   15.9740 C   0  0  0  0  0  1  0  0  0  0  0  0
   10.5070  -11.0850   16.6220 C   0  0  0  0  0  2  0  0  0  0  0  0
    7.0070   -7.8790    9.1840 C   0  0  0  0  0  2  0  0  0  0  0  0
    7.3370   -7.3450    7.7840 C   0  0  0  0  0  2  0  0  0  0  0  0
    6.8950   -8.2280    6.6400 N   0  0  0  0  0  4  0  0  0  0  0  0
    6.9560   -9.7290    6.8560 C   0  0  0  0  0  2  0  0  0  0  0  0
    7.6900  -10.2620    5.6380 C   0  0  0  0  0  2  0  0  0  0  0  0
    7.3810   -9.2500    4.5520 C   0  0  0  0  0  2  0  0  0  0  0  0
    7.5100   -7.9300    5.2830 C   0  0  0  0  0  2  0  0  0  0  0  0
    5.8930   -8.0180    6.5180 H   0  0  0  0  0  0  0  0  0  0  0  0
  1  2  2  0  0  0  0
  3  6  1  0  0  0  0
  3  2  1  0  0  0  0
  4  5  1  0  0  0  0
  4  3  2  0  0  0  0
  5  1  1  0  0  0  0
  6 13  1  0  0  0  0
  7  8  1  0  0  0  0
  7  6  2  0  0  0  0
  8  9  2  0  0  0  0
  9 10  1  0  0  0  0
  9 11  1  0  0  0  0
 11 12  1  0  0  0  0
 13 11  2  0  0  0  0
 14 26  1  0  0  0  0
 15 14  1  0  0  0  0
 16 17  1  0  0  0  0
 16 15  1  0  0  0  0
 17  1  1  1  0  0  0
 17 18  1  0  0  0  0
 18 19  1  0  0  0  0
 19 14  1  0  0  0  0
 20 30  1  0  0  0  0
 20 21  1  0  0  0  0
 21 22  1  0  0  0  0
 22 27  1  0  0  0  0
 23 21  2  0  0  0  0
 24 23  1  0  0  0  0
 25 26  1  0  0  0  0
 25 24  2  0  0  0  0
 26 20  2  0  0  0  0
 28 22  1  0  0  0  0
 29 30  1  0  0  0  0
 31  5  1  0  0  0  0
 32 31  1  0  0  0  0
 33 34  1  0  0  0  0
 33 32  1  0  0  0  0
 35 34  1  0  0  0  0
 36 37  1  0  0  0  0
 36 35  1  0  0  0  0
 37 33  1  0  0  0  0
 38 33  1  0  0  0  0
M  END
>  <minimizedAffinity>
-11.1885557

$$$$
