
 OpenBabel11232418563D

 38 42  0  0  1  0  0  0  0  0999 V2000
    7.5050   -6.1700   10.7350 C   0  0  0  0  0  0  0  0  0  0  0  0
    7.6220   -7.1530    9.8630 N   0  0  0  0  0  0  0  0  0  0  0  0
    7.1420   -6.6930    8.6640 C   0  0  0  0  0  0  0  0  0  0  0  0
    6.6690   -5.4110    8.8170 C   0  0  0  0  0  3  0  0  0  0  0  0
    6.8600   -5.1040   10.1440 N   0  0  0  0  0  0  0  0  0  0  0  0
    7.1430   -7.4950    7.4520 C   0  0  0  0  0  0  0  0  0  0  0  0
    6.9900   -8.8900    7.4800 C   0  0  0  0  0  3  0  0  0  0  0  0
    6.9920   -9.6280    6.2930 C   0  0  0  0  0  3  0  0  0  0  0  0
    7.1490   -8.9770    5.0730 C   0  0  0  0  0  0  0  0  0  0  0  0
    7.1530   -9.7090    3.9500 F   0  0  0  0  0  0  0  0  0  0  0  0
    7.2980   -7.5950    5.0260 C   0  0  0  0  0  0  0  0  0  0  0  0
    7.4950   -6.7840    3.5210 Cl  0  0  0  0  0  0  0  0  0  0  0  0
    7.2920   -6.8550    6.2100 C   0  0  0  0  0  3  0  0  0  0  0  0
    8.8090   -7.7010   14.4950 N   0  0  0  0  0  0  0  0  0  0  0  0
    7.5710   -6.9180   14.5340 C   0  0  0  0  0  2  0  0  0  0  0  0
    6.9890   -6.7480   13.1310 C   0  0  0  0  0  2  0  0  0  0  0  0
    8.0530   -6.2630   12.1360 C   0  0  1  0  0  3  0  0  0  0  0  0
    9.3750   -7.0350   12.2140 C   0  0  0  0  0  2  0  0  0  0  0  0
    9.8690   -7.1490   13.6550 C   0  0  0  0  0  2  0  0  0  0  0  0
    9.1180   -9.7570   15.7610 C   0  0  0  0  0  0  0  0  0  0  0  0
    8.9800  -11.1430   15.7370 C   0  0  0  0  0  0  0  0  0  0  0  0
    9.4120  -11.9490   16.7740 N   0  0  0  0  0  0  0  0  0  0  0  0
    8.4740  -11.8100   14.6940 N   0  0  0  0  0  0  0  0  0  0  0  0
    8.0180  -11.0650   13.6920 C   0  0  0  0  0  3  0  0  0  0  0  0
    8.1600   -9.7430   13.5680 N   0  0  0  0  0  0  0  0  0  0  0  0
    8.7020   -9.0810   14.6120 C   0  0  0  0  0  0  0  0  0  0  0  0
    9.2350  -12.9320   16.6030 H   0  0  0  0  0  0  0  0  0  0  0  0
    9.2240  -11.6380   17.7180 H   0  0  0  0  0  0  0  0  0  0  0  0
   11.0620   -8.7850   17.0160 C   0  0  0  0  0  1  0  0  0  0  0  0
    9.5600   -9.0400   17.0150 C   0  0  0  0  0  2  0  0  0  0  0  0
    6.3810   -3.8710   10.7480 C   0  0  0  0  0  2  0  0  0  0  0  0
    6.6610   -2.6810    9.8200 C   0  0  0  0  0  2  0  0  0  0  0  0
    7.4360   -1.5460   10.4490 N   0  0  0  0  0  4  0  0  0  0  0  0
    7.6280   -1.5840   11.9530 C   0  0  0  0  0  2  0  0  0  0  0  0
    7.2090   -0.2030   12.4280 C   0  0  0  0  0  2  0  0  0  0  0  0
    7.4870    0.6930   11.2370 C   0  0  0  0  0  2  0  0  0  0  0  0
    6.9970   -0.1410   10.0730 C   0  0  0  0  0  2  0  0  0  0  0  0
    8.3870   -1.6300   10.0580 H   0  0  0  0  0  0  0  0  0  0  0  0
  2  1  2  0  0  0  0
  3  4  2  0  0  0  0
  3  2  1  0  0  0  0
  4  5  1  0  0  0  0
  5  1  1  0  0  0  0
  5 31  1  0  0  0  0
  6  7  1  0  0  0  0
  6  3  1  0  0  0  0
  8  7  2  0  0  0  0
  9  8  1  0  0  0  0
 10  9  1  0  0  0  0
 11  9  2  0  0  0  0
 11 13  1  0  0  0  0
 12 11  1  0  0  0  0
 13  6  2  0  0  0  0
 14 15  1  0  0  0  0
 14 26  1  0  0  0  0
 16 15  1  0  0  0  0
 17  1  1  6  0  0  0
 17 18  1  0  0  0  0
 17 16  1  0  0  0  0
 18 19  1  0  0  0  0
 19 14  1  0  0  0  0
 20 30  1  0  0  0  0
 21 20  1  0  0  0  0
 21 22  1  0  0  0  0
 22 28  1  0  0  0  0
 23 21  2  0  0  0  0
 24 23  1  0  0  0  0
 25 24  2  0  0  0  0
 25 26  1  0  0  0  0
 26 20  2  0  0  0  0
 27 22  1  0  0  0  0
 30 29  1  0  0  0  0
 32 33  1  0  0  0  0
 32 31  1  0  0  0  0
 33 34  1  0  0  0  0
 34 35  1  0  0  0  0
 36 35  1  0  0  0  0
 37 33  1  0  0  0  0
 37 36  1  0  0  0  0
 38 33  1  0  0  0  0
M  END
>  <minimizedAffinity>
-10.4020586

$$$$
