
 OpenBabel11232418563D

 38 42  0  0  1  0  0  0  0  0999 V2000
    6.8130   -5.6080    9.9350 C   0  0  0  0  0  0  0  0  0  0  0  0
    7.1540   -6.6920    9.2660 N   0  0  0  0  0  0  0  0  0  0  0  0
    6.9990   -6.4130    7.9330 C   0  0  0  0  0  0  0  0  0  0  0  0
    6.4980   -5.1410    7.7830 C   0  0  0  0  0  3  0  0  0  0  0  0
    6.3390   -4.6540    9.0590 N   0  0  0  0  0  0  0  0  0  0  0  0
    7.3160   -7.3670    6.8830 C   0  0  0  0  0  0  0  0  0  0  0  0
    7.1120   -8.7470    7.0420 C   0  0  0  0  0  3  0  0  0  0  0  0
    7.4250   -9.6340    6.0090 C   0  0  0  0  0  3  0  0  0  0  0  0
    7.9450   -9.1490    4.8130 C   0  0  0  0  0  0  0  0  0  0  0  0
    8.2430  -10.0210    3.8400 F   0  0  0  0  0  0  0  0  0  0  0  0
    8.1510   -7.7840    4.6370 C   0  0  0  0  0  0  0  0  0  0  0  0
    8.7970   -7.1770    3.1610 Cl  0  0  0  0  0  0  0  0  0  0  0  0
    7.8350   -6.8950    5.6660 C   0  0  0  0  0  3  0  0  0  0  0  0
    7.9720   -6.3830   13.9650 N   0  0  0  0  0  0  0  0  0  0  0  0
    6.5510   -6.5840   13.6740 C   0  0  0  0  0  2  0  0  0  0  0  0
    6.3080   -6.6620   12.1670 C   0  0  0  0  0  2  0  0  0  0  0  0
    6.9800   -5.4940   11.4290 C   0  0  1  0  0  3  0  0  0  0  0  0
    8.4320   -5.2430   11.8540 C   0  0  0  0  0  2  0  0  0  0  0  0
    8.5650   -5.1850   13.3740 C   0  0  0  0  0  2  0  0  0  0  0  0
    9.4390   -7.7820   15.3110 C   0  0  0  0  0  0  0  0  0  0  0  0
   10.2220   -8.9340   15.3230 C   0  0  0  0  0  0  0  0  0  0  0  0
   10.9990   -9.2930   16.4090 N   0  0  0  0  0  0  0  0  0  0  0  0
   10.3300   -9.7560   14.2720 N   0  0  0  0  0  0  0  0  0  0  0  0
    9.5710   -9.4610   13.2220 C   0  0  0  0  0  3  0  0  0  0  0  0
    8.8430   -8.3530   13.0650 N   0  0  0  0  0  0  0  0  0  0  0  0
    8.7650   -7.5130   14.1190 C   0  0  0  0  0  0  0  0  0  0  0  0
   11.5030  -10.1580   16.2580 H   0  0  0  0  0  0  0  0  0  0  0  0
   10.5930   -9.1880   17.3290 H   0  0  0  0  0  0  0  0  0  0  0  0
   10.2520   -5.8380   16.6740 C   0  0  0  0  0  1  0  0  0  0  0  0
    9.2350   -6.9670   16.5670 C   0  0  0  0  0  2  0  0  0  0  0  0
    5.7170   -3.3720    9.3450 C   0  0  0  0  0  2  0  0  0  0  0  0
    6.5650   -2.2290    8.7710 C   0  0  0  0  0  2  0  0  0  0  0  0
    7.2890   -1.3900    9.8000 N   0  0  0  0  0  4  0  0  0  0  0  0
    7.1960   -1.8310   11.2480 C   0  0  0  0  0  2  0  0  0  0  0  0
    6.7950   -0.5780   12.0060 C   0  0  0  0  0  2  0  0  0  0  0  0
    7.3500    0.5530   11.1630 C   0  0  0  0  0  2  0  0  0  0  0  0
    7.0270    0.1050    9.7530 C   0  0  0  0  0  2  0  0  0  0  0  0
    8.2870   -1.4820    9.5580 H   0  0  0  0  0  0  0  0  0  0  0  0
  2  1  2  0  0  0  0
  3  2  1  0  0  0  0
  4  3  2  0  0  0  0
  4  5  1  0  0  0  0
  5 31  1  0  0  0  0
  5  1  1  0  0  0  0
  6  7  1  0  0  0  0
  6  3  1  0  0  0  0
  8  7  2  0  0  0  0
  9  8  1  0  0  0  0
 10  9  1  0  0  0  0
 11  9  2  0  0  0  0
 11 13  1  0  0  0  0
 12 11  1  0  0  0  0
 13  6  2  0  0  0  0
 14 26  1  0  0  0  0
 15 14  1  0  0  0  0
 16 15  1  0  0  0  0
 17  1  1  6  0  0  0
 17 18  1  0  0  0  0
 17 16  1  0  0  0  0
 18 19  1  0  0  0  0
 19 14  1  0  0  0  0
 20 21  1  0  0  0  0
 20 30  1  0  0  0  0
 21 22  1  0  0  0  0
 22 28  1  0  0  0  0
 23 21  2  0  0  0  0
 24 23  1  0  0  0  0
 25 24  2  0  0  0  0
 25 26  1  0  0  0  0
 26 20  2  0  0  0  0
 27 22  1  0  0  0  0
 30 29  1  0  0  0  0
 32 31  1  0  0  0  0
 32 33  1  0  0  0  0
 33 34  1  0  0  0  0
 34 35  1  0  0  0  0
 36 35  1  0  0  0  0
 37 33  1  0  0  0  0
 37 36  1  0  0  0  0
 38 33  1  0  0  0  0
M  END
>  <minimizedAffinity>
-10.9687805

$$$$
