
 OpenBabel11232418513D

 39 45  0  0  1  0  0  0  0  0999 V2000
    8.4630   -5.3950   12.2890 C   0  0  0  0  0  0  0  0  0  0  0  0
    8.5420   -4.0430   12.5460 N   0  0  0  0  0  0  0  0  0  0  0  0
    7.8850   -3.4460   11.5780 C   0  0  0  0  0  0  0  0  0  0  0  0
    7.4600   -4.3670   10.6580 N   0  0  0  0  0  0  0  0  0  0  0  0
    7.7320   -5.6320   11.1310 C   0  0  0  0  0  0  0  0  0  0  0  0
    6.6480   -3.9840    9.5210 C   0  0  0  0  0  2  0  0  0  0  0  0
    6.8820   -2.6240    9.1080 O   0  0  0  0  0  0  0  0  0  0  0  0
    7.0220   -1.7070   10.1240 C   0  0  0  0  0  0  0  0  0  0  0  0
    6.6680   -0.3930    9.8180 C   0  0  0  0  0  3  0  0  0  0  0  0
    6.7850    0.5970   10.7900 C   0  0  0  0  0  3  0  0  0  0  0  0
    7.2710    0.2710   12.0560 C   0  0  0  0  0  3  0  0  0  0  0  0
    7.6520   -1.0440   12.3590 C   0  0  0  0  0  0  0  0  0  0  0  0
    8.2160   -1.3410   13.9660 Cl  0  0  0  0  0  0  0  0  0  0  0  0
    7.5370   -2.0470   11.3870 C   0  0  0  0  0  0  0  0  0  0  0  0
    7.1630   -6.8430   10.5540 C   0  0  0  0  0  0  0  0  0  0  0  0
    6.3280   -7.6770   11.3040 C   0  0  0  0  0  3  0  0  0  0  0  0
    5.8240   -8.8520   10.7400 C   0  0  0  0  0  3  0  0  0  0  0  0
    6.1540   -9.1960    9.4290 C   0  0  0  0  0  3  0  0  0  0  0  0
    6.9830   -8.3680    8.6760 C   0  0  0  0  0  3  0  0  0  0  0  0
    7.4850   -7.1920    9.2360 C   0  0  0  0  0  3  0  0  0  0  0  0
    9.9080   -8.2780   15.1710 C   0  0  0  0  0  0  0  0  0  0  0  0
    9.3460   -7.0400   15.5460 C   0  0  0  0  0  3  0  0  0  0  0  0
    8.9010   -6.1080   14.6000 C   0  0  0  0  0  3  0  0  0  0  0  0
    8.9850   -6.3730   13.2320 C   0  0  0  0  0  0  0  0  0  0  0  0
    9.5760   -7.5700   12.8300 C   0  0  0  0  0  3  0  0  0  0  0  0
   10.0210   -8.5000   13.7790 C   0  0  0  0  0  3  0  0  0  0  0  0
   10.3030   -9.3910   16.2340 C   0  0  2  0  0  0  0  0  0  0  0  0
   10.5720  -10.8520   15.7920 C   0  0  0  0  0  2  0  0  0  0  0  0
    9.2180  -11.2960   16.4370 C   0  0  1  0  0  0  0  0  0  0  0  0
    9.2330   -9.9380   17.2130 C   0  0  0  0  0  2  0  0  0  0  0  0
   11.4730   -8.8340   16.9650 N   0  0  0  0  0  4  0  0  0  0  0  0
   11.8410   -9.4560   17.6940 H   0  0  0  0  0  0  0  0  0  0  0  0
   11.2350   -7.9370   17.4110 H   0  0  0  0  0  0  0  0  0  0  0  0
   12.2440   -8.6280   16.3130 H   0  0  0  0  0  0  0  0  0  0  0  0
    8.0910  -11.5550   15.4460 C   0  0  0  0  0  3  0  0  0  0  0  0
    8.3380  -12.0590   14.0490 C   0  0  0  0  0  2  0  0  0  0  0  0
    7.5320  -12.8810   15.0150 C   0  0  0  0  0  2  0  0  0  0  0  0
    9.3590  -12.4390   17.3160 O   0  0  0  0  0  0  0  0  0  0  0  0
   10.1250  -12.3020   17.8930 H   0  0  0  0  0  0  0  0  0  0  0  0
  1  2  1  0  0  0  0
  1 24  1  0  0  0  0
  3  2  2  0  0  0  0
  4  5  1  0  0  0  0
  4  3  1  0  0  0  0
  5  1  2  0  0  0  0
  6  4  1  0  0  0  0
  7  6  1  0  0  0  0
  7  8  1  0  0  0  0
  8 14  1  0  0  0  0
  9  8  2  0  0  0  0
  9 10  1  0  0  0  0
 10 11  2  0  0  0  0
 11 12  1  0  0  0  0
 12 13  1  0  0  0  0
 14  3  1  0  0  0  0
 14 12  2  0  0  0  0
 15  5  1  0  0  0  0
 15 16  1  0  0  0  0
 17 16  2  0  0  0  0
 18 17  1  0  0  0  0
 19 20  1  0  0  0  0
 19 18  2  0  0  0  0
 20 15  2  0  0  0  0
 21 22  1  0  0  0  0
 21 27  1  0  0  0  0
 23 22  2  0  0  0  0
 24 23  1  0  0  0  0
 25 24  2  0  0  0  0
 25 26  1  0  0  0  0
 26 21  2  0  0  0  0
 27 31  1  1  0  0  0
 27 30  1  0  0  0  0
 28 27  1  0  0  0  0
 28 29  1  0  0  0  0
 29 30  1  0  0  0  0
 29 38  1  1  0  0  0
 31 33  1  0  0  0  0
 31 32  1  0  0  0  0
 34 31  1  0  0  0  0
 35 29  1  0  0  0  0
 36 37  1  0  0  0  0
 36 35  1  0  0  0  0
 37 35  1  0  0  0  0
 38 39  1  0  0  0  0
M  END
>  <minimizedAffinity>
-12.4777241

$$$$
