
 OpenBabel11232418513D

 39 45  0  0  1  0  0  0  0  0999 V2000
    6.9550   -5.7570   10.0230 C   0  0  0  0  0  0  0  0  0  0  0  0
    6.7730   -5.9620    8.6730 N   0  0  0  0  0  0  0  0  0  0  0  0
    6.5920   -4.7740    8.1410 C   0  0  0  0  0  0  0  0  0  0  0  0
    6.5670   -3.8180    9.1220 N   0  0  0  0  0  0  0  0  0  0  0  0
    6.8890   -4.4020   10.3270 C   0  0  0  0  0  0  0  0  0  0  0  0
    6.4520   -2.4100    8.8030 C   0  0  0  0  0  2  0  0  0  0  0  0
    5.7500   -2.1780    7.5670 O   0  0  0  0  0  0  0  0  0  0  0  0
    6.0570   -3.0360    6.5370 C   0  0  0  0  0  0  0  0  0  0  0  0
    5.8870   -2.5330    5.2470 C   0  0  0  0  0  3  0  0  0  0  0  0
    6.1710   -3.3400    4.1490 C   0  0  0  0  0  3  0  0  0  0  0  0
    6.6060   -4.6510    4.3460 C   0  0  0  0  0  3  0  0  0  0  0  0
    6.7520   -5.1680    5.6410 C   0  0  0  0  0  0  0  0  0  0  0  0
    7.3220   -6.7960    5.7700 Cl  0  0  0  0  0  0  0  0  0  0  0  0
    6.4700   -4.3630    6.7520 C   0  0  0  0  0  0  0  0  0  0  0  0
    7.2360   -3.6410   11.5190 C   0  0  0  0  0  0  0  0  0  0  0  0
    8.2390   -4.0790   12.3890 C   0  0  0  0  0  3  0  0  0  0  0  0
    8.5290   -3.3510   13.5460 C   0  0  0  0  0  3  0  0  0  0  0  0
    7.8180   -2.1850   13.8360 C   0  0  0  0  0  3  0  0  0  0  0  0
    6.8200   -1.7420   12.9710 C   0  0  0  0  0  3  0  0  0  0  0  0
    6.5310   -2.4670   11.8140 C   0  0  0  0  0  3  0  0  0  0  0  0
    8.1000   -8.9580   12.6960 C   0  0  0  0  0  0  0  0  0  0  0  0
    9.0180   -8.3150   11.8410 C   0  0  0  0  0  3  0  0  0  0  0  0
    8.6270   -7.2930   10.9650 C   0  0  0  0  0  3  0  0  0  0  0  0
    7.3020   -6.8560   10.9120 C   0  0  0  0  0  0  0  0  0  0  0  0
    6.3640   -7.5030   11.7150 C   0  0  0  0  0  3  0  0  0  0  0  0
    6.7580   -8.5260   12.5890 C   0  0  0  0  0  3  0  0  0  0  0  0
    8.5540  -10.0310   13.7770 C   0  0  2  0  0  0  0  0  0  0  0  0
    7.9930   -9.9880   15.2220 C   0  0  0  0  0  2  0  0  0  0  0  0
    9.3780   -9.4800   15.7430 C   0  0  1  0  0  0  0  0  0  0  0  0
    9.9800   -9.9630   14.3820 C   0  0  0  0  0  2  0  0  0  0  0  0
    8.2940  -11.3530   13.1470 N   0  0  0  0  0  4  0  0  0  0  0  0
    8.5430  -12.1520   13.7410 H   0  0  0  0  0  0  0  0  0  0  0  0
    8.8150  -11.4480   12.2640 H   0  0  0  0  0  0  0  0  0  0  0  0
    7.2990  -11.4480   12.8990 H   0  0  0  0  0  0  0  0  0  0  0  0
    9.4310   -7.9940   16.0750 C   0  0  0  0  0  3  0  0  0  0  0  0
   10.1670   -6.9970   15.2190 C   0  0  0  0  0  2  0  0  0  0  0  0
    8.6810   -6.8760   15.4100 C   0  0  0  0  0  2  0  0  0  0  0  0
    9.8730  -10.2440   16.8710 O   0  0  0  0  0  0  0  0  0  0  0  0
    9.7660  -11.1890   16.6840 H   0  0  0  0  0  0  0  0  0  0  0  0
  1  5  2  0  0  0  0
  1 24  1  0  0  0  0
  2  1  1  0  0  0  0
  3  2  2  0  0  0  0
  3  4  1  0  0  0  0
  4  5  1  0  0  0  0
  5 15  1  0  0  0  0
  6  4  1  0  0  0  0
  7  6  1  0  0  0  0
  8 14  1  0  0  0  0
  8  7  1  0  0  0  0
  9  8  2  0  0  0  0
 10 11  2  0  0  0  0
 10  9  1  0  0  0  0
 11 12  1  0  0  0  0
 12 13  1  0  0  0  0
 12 14  2  0  0  0  0
 14  3  1  0  0  0  0
 15 20  2  0  0  0  0
 15 16  1  0  0  0  0
 16 17  2  0  0  0  0
 17 18  1  0  0  0  0
 19 18  2  0  0  0  0
 20 19  1  0  0  0  0
 21 27  1  0  0  0  0
 22 21  2  0  0  0  0
 23 22  1  0  0  0  0
 24 23  2  0  0  0  0
 24 25  1  0  0  0  0
 25 26  2  0  0  0  0
 26 21  1  0  0  0  0
 27 31  1  6  0  0  0
 27 30  1  0  0  0  0
 27 28  1  0  0  0  0
 28 29  1  0  0  0  0
 29 35  1  0  0  0  0
 29 38  1  1  0  0  0
 30 29  1  0  0  0  0
 31 32  1  0  0  0  0
 33 31  1  0  0  0  0
 34 31  1  0  0  0  0
 36 37  1  0  0  0  0
 36 35  1  0  0  0  0
 37 35  1  0  0  0  0
 39 38  1  0  0  0  0
M  END
>  <minimizedAffinity>
-12.3224487

$$$$
