
 OpenBabel11232418513D

 39 45  0  0  1  0  0  0  0  0999 V2000
    7.2650   -6.3130   10.7380 C   0  0  0  0  0  0  0  0  0  0  0  0
    7.1200   -6.7810    9.4510 N   0  0  0  0  0  0  0  0  0  0  0  0
    6.8340   -5.7360    8.7090 C   0  0  0  0  0  0  0  0  0  0  0  0
    6.7050   -4.6220    9.4950 N   0  0  0  0  0  0  0  0  0  0  0  0
    7.0660   -4.9380   10.7860 C   0  0  0  0  0  0  0  0  0  0  0  0
    6.4600   -3.3140    8.9210 C   0  0  0  0  0  2  0  0  0  0  0  0
    5.7550   -3.3840    7.6670 O   0  0  0  0  0  0  0  0  0  0  0  0
    6.1550   -4.3850    6.8120 C   0  0  0  0  0  0  0  0  0  0  0  0
    5.9540   -4.1480    5.4530 C   0  0  0  0  0  3  0  0  0  0  0  0
    6.3280   -5.1140    4.5220 C   0  0  0  0  0  3  0  0  0  0  0  0
    6.8830   -6.3170    4.9570 C   0  0  0  0  0  3  0  0  0  0  0  0
    7.0620   -6.5690    6.3250 C   0  0  0  0  0  0  0  0  0  0  0  0
    7.7830   -8.0820    6.7500 Cl  0  0  0  0  0  0  0  0  0  0  0  0
    6.6900   -5.6030    7.2690 C   0  0  0  0  0  0  0  0  0  0  0  0
    7.3240   -3.9400   11.8140 C   0  0  0  0  0  0  0  0  0  0  0  0
    8.3670   -4.1010   12.7320 C   0  0  0  0  0  3  0  0  0  0  0  0
    8.5710   -3.1470   13.7320 C   0  0  0  0  0  3  0  0  0  0  0  0
    7.7360   -2.0320   13.8180 C   0  0  0  0  0  3  0  0  0  0  0  0
    6.6970   -1.8650   12.9050 C   0  0  0  0  0  3  0  0  0  0  0  0
    6.4930   -2.8160   11.9030 C   0  0  0  0  0  3  0  0  0  0  0  0
    8.6890   -8.8560   13.9340 C   0  0  0  0  0  0  0  0  0  0  0  0
    9.4920   -8.4920   12.8340 C   0  0  0  0  0  3  0  0  0  0  0  0
    9.0100   -7.6850   11.7960 C   0  0  0  0  0  3  0  0  0  0  0  0
    7.7040   -7.1900   11.8140 C   0  0  0  0  0  0  0  0  0  0  0  0
    6.8730   -7.5680   12.8680 C   0  0  0  0  0  3  0  0  0  0  0  0
    7.3580   -8.3780   13.9040 C   0  0  0  0  0  3  0  0  0  0  0  0
    9.2610   -9.6690   15.1740 C   0  0  2  0  0  0  0  0  0  0  0  0
    9.9210  -11.0580   14.9760 C   0  0  0  0  0  2  0  0  0  0  0  0
    8.6730  -11.7420   15.6240 C   0  0  1  0  0  0  0  0  0  0  0  0
    8.2850  -10.3320   16.1800 C   0  0  0  0  0  2  0  0  0  0  0  0
   10.1920   -8.7320   15.8580 N   0  0  0  0  0  4  0  0  0  0  0  0
   10.6430   -9.1290   16.6900 H   0  0  0  0  0  0  0  0  0  0  0  0
    9.7030   -7.8740   16.1490 H   0  0  0  0  0  0  0  0  0  0  0  0
   10.9370   -8.4270   15.2160 H   0  0  0  0  0  0  0  0  0  0  0  0
    7.7300  -12.4200   14.6390 C   0  0  0  0  0  3  0  0  0  0  0  0
    8.1540  -13.5780   13.7750 C   0  0  0  0  0  2  0  0  0  0  0  0
    7.0530  -13.7530   14.7820 C   0  0  0  0  0  2  0  0  0  0  0  0
    9.0230  -12.6750   16.6770 O   0  0  0  0  0  0  0  0  0  0  0  0
    9.6810  -12.2660   17.2570 H   0  0  0  0  0  0  0  0  0  0  0  0
  1  5  2  0  0  0  0
  1 24  1  0  0  0  0
  2  1  1  0  0  0  0
  3  2  2  0  0  0  0
  3  4  1  0  0  0  0
  4  5  1  0  0  0  0
  5 15  1  0  0  0  0
  6  4  1  0  0  0  0
  7  6  1  0  0  0  0
  8 14  1  0  0  0  0
  8  7  1  0  0  0  0
  9  8  2  0  0  0  0
 10 11  2  0  0  0  0
 10  9  1  0  0  0  0
 11 12  1  0  0  0  0
 12 13  1  0  0  0  0
 12 14  2  0  0  0  0
 14  3  1  0  0  0  0
 15 20  2  0  0  0  0
 15 16  1  0  0  0  0
 16 17  2  0  0  0  0
 17 18  1  0  0  0  0
 19 18  2  0  0  0  0
 20 19  1  0  0  0  0
 21 27  1  0  0  0  0
 22 21  2  0  0  0  0
 23 24  2  0  0  0  0
 23 22  1  0  0  0  0
 24 25  1  0  0  0  0
 25 26  2  0  0  0  0
 26 21  1  0  0  0  0
 27 31  1  1  0  0  0
 27 30  1  0  0  0  0
 28 27  1  0  0  0  0
 28 29  1  0  0  0  0
 29 30  1  0  0  0  0
 29 38  1  1  0  0  0
 31 33  1  0  0  0  0
 31 32  1  0  0  0  0
 34 31  1  0  0  0  0
 35 37  1  0  0  0  0
 35 29  1  0  0  0  0
 36 35  1  0  0  0  0
 36 37  1  0  0  0  0
 38 39  1  0  0  0  0
M  END
>  <minimizedAffinity>
-11.5957899

$$$$
