
 OpenBabel11232418513D

 39 45  0  0  1  0  0  0  0  0999 V2000
    7.2130   -4.4530   11.1280 C   0  0  0  0  0  0  0  0  0  0  0  0
    6.9930   -4.9490    9.8620 N   0  0  0  0  0  0  0  0  0  0  0  0
    6.7200   -3.9130    9.1030 C   0  0  0  0  0  0  0  0  0  0  0  0
    6.6730   -2.7730    9.8610 N   0  0  0  0  0  0  0  0  0  0  0  0
    7.0760   -3.0700   11.1440 C   0  0  0  0  0  0  0  0  0  0  0  0
    6.4590   -1.4720    9.2600 C   0  0  0  0  0  2  0  0  0  0  0  0
    5.6980   -1.5460    8.0400 O   0  0  0  0  0  0  0  0  0  0  0  0
    6.0180   -2.5860    7.1980 C   0  0  0  0  0  0  0  0  0  0  0  0
    5.7690   -2.3780    5.8420 C   0  0  0  0  0  3  0  0  0  0  0  0
    6.0590   -3.3840    4.9250 C   0  0  0  0  0  3  0  0  0  0  0  0
    6.5810   -4.5980    5.3710 C   0  0  0  0  0  3  0  0  0  0  0  0
    6.8080   -4.8200    6.7370 C   0  0  0  0  0  0  0  0  0  0  0  0
    7.4820   -6.3510    7.1750 Cl  0  0  0  0  0  0  0  0  0  0  0  0
    6.5190   -3.8130    7.6670 C   0  0  0  0  0  0  0  0  0  0  0  0
    7.4210   -2.0560   12.1310 C   0  0  0  0  0  0  0  0  0  0  0  0
    8.5050   -1.1950   11.9340 C   0  0  0  0  0  3  0  0  0  0  0  0
    8.8380   -0.2550   12.9120 C   0  0  0  0  0  3  0  0  0  0  0  0
    8.0910   -0.1730   14.0880 C   0  0  0  0  0  3  0  0  0  0  0  0
    7.0080   -1.0270   14.2890 C   0  0  0  0  0  3  0  0  0  0  0  0
    6.6720   -1.9640   13.3120 C   0  0  0  0  0  3  0  0  0  0  0  0
    8.4610   -7.1210   14.2960 C   0  0  0  0  0  0  0  0  0  0  0  0
    7.1190   -7.0100   13.8770 C   0  0  0  0  0  3  0  0  0  0  0  0
    6.7280   -6.1260   12.8630 C   0  0  0  0  0  3  0  0  0  0  0  0
    7.6610   -5.3180   12.2100 C   0  0  0  0  0  0  0  0  0  0  0  0
    8.9880   -5.3750   12.6330 C   0  0  0  0  0  3  0  0  0  0  0  0
    9.3760   -6.2600   13.6490 C   0  0  0  0  0  3  0  0  0  0  0  0
    8.9340   -8.2050   15.3580 C   0  0  2  0  0  0  0  0  0  0  0  0
    8.9720   -7.8700   16.8710 C   0  0  0  0  0  2  0  0  0  0  0  0
   10.5350   -7.8310   16.8220 C   0  0  1  0  0  0  0  0  0  0  0  0
   10.4330   -8.5870   15.4550 C   0  0  0  0  0  2  0  0  0  0  0  0
    8.0850   -9.3990   15.1010 N   0  0  0  0  0  4  0  0  0  0  0  0
    8.2820  -10.1900   15.7230 H   0  0  0  0  0  0  0  0  0  0  0  0
    8.1980   -9.7290   14.1320 H   0  0  0  0  0  0  0  0  0  0  0  0
    7.0870   -9.1640   15.2030 H   0  0  0  0  0  0  0  0  0  0  0  0
   11.1430   -6.4350   16.8360 C   0  0  0  0  0  3  0  0  0  0  0  0
   10.3240   -5.1960   17.0860 C   0  0  0  0  0  2  0  0  0  0  0  0
   11.4310   -5.5700   18.0300 C   0  0  0  0  0  2  0  0  0  0  0  0
   11.1530   -8.6370   17.8560 O   0  0  0  0  0  0  0  0  0  0  0  0
   10.7110   -9.4980   17.8930 H   0  0  0  0  0  0  0  0  0  0  0  0
  1  5  2  0  0  0  0
  1 24  1  0  0  0  0
  2  1  1  0  0  0  0
  3  4  1  0  0  0  0
  3  2  2  0  0  0  0
  4  5  1  0  0  0  0
  5 15  1  0  0  0  0
  6  4  1  0  0  0  0
  7  6  1  0  0  0  0
  8 14  1  0  0  0  0
  8  7  1  0  0  0  0
  9  8  2  0  0  0  0
 10 11  2  0  0  0  0
 10  9  1  0  0  0  0
 11 12  1  0  0  0  0
 12 13  1  0  0  0  0
 12 14  2  0  0  0  0
 14  3  1  0  0  0  0
 15 20  1  0  0  0  0
 16 15  2  0  0  0  0
 16 17  1  0  0  0  0
 17 18  2  0  0  0  0
 18 19  1  0  0  0  0
 20 19  2  0  0  0  0
 21 27  1  0  0  0  0
 22 21  1  0  0  0  0
 23 22  2  0  0  0  0
 24 25  2  0  0  0  0
 24 23  1  0  0  0  0
 25 26  1  0  0  0  0
 26 21  2  0  0  0  0
 27 31  1  6  0  0  0
 27 30  1  0  0  0  0
 27 28  1  0  0  0  0
 29 35  1  0  0  0  0
 29 28  1  0  0  0  0
 29 38  1  1  0  0  0
 30 29  1  0  0  0  0
 31 34  1  0  0  0  0
 31 32  1  0  0  0  0
 33 31  1  0  0  0  0
 35 36  1  0  0  0  0
 35 37  1  0  0  0  0
 36 37  1  0  0  0  0
 38 39  1  0  0  0  0
M  END
>  <minimizedAffinity>
-13.1385946

$$$$
