
 OpenBabel11232420423D

 41 46  0  0  1  0  0  0  0  0999 V2000
  -19.6630   20.7530   11.2020 C   0  0  0  0  0  0  0  0  0  0  0  0
  -20.1870   20.1640   12.3400 N   0  0  0  0  0  0  0  0  0  0  0  0
  -20.1800   18.8720   12.1130 C   0  0  0  0  0  0  0  0  0  0  0  0
  -19.7030   18.6000   10.8660 N   0  0  0  0  0  0  0  0  0  0  0  0
  -19.3160   19.7800   10.2680 C   0  0  0  0  0  0  0  0  0  0  0  0
  -19.4860   17.2370   10.4160 C   0  0  0  0  0  2  0  0  0  0  0  0
  -20.3310   16.2730   11.0820 O   0  0  0  0  0  0  0  0  0  0  0  0
  -20.5940   16.4980   12.4090 C   0  0  0  0  0  0  0  0  0  0  0  0
  -20.9780   15.4030   13.1800 C   0  0  0  0  0  3  0  0  0  0  0  0
  -21.2740   15.5760   14.5360 C   0  0  0  0  0  3  0  0  0  0  0  0
  -21.1970   16.8500   15.1190 C   0  0  0  0  0  0  0  0  0  0  0  0
  -20.8540   17.9540   14.3270 C   0  0  0  0  0  3  0  0  0  0  0  0
  -20.5510   17.7760   12.9760 C   0  0  0  0  0  0  0  0  0  0  0  0
  -19.2920   25.0880   10.9940 C   0  0  0  0  0  0  0  0  0  0  0  0
  -20.4360   24.3830   10.5650 C   0  0  0  0  0  3  0  0  0  0  0  0
  -20.5330   22.9850   10.6430 C   0  0  0  0  0  3  0  0  0  0  0  0
  -19.4870   22.2030   11.1410 C   0  0  0  0  0  0  0  0  0  0  0  0
  -18.3290   22.8680   11.5360 C   0  0  0  0  0  3  0  0  0  0  0  0
  -18.2440   24.2700   11.4690 C   0  0  0  0  0  3  0  0  0  0  0  0
  -16.7910   29.1770   11.0880 C   0  0  0  0  0  1  0  0  0  0  0  0
  -17.2180   27.7160   11.0830 C   0  0  1  0  0  0  0  0  0  0  0  0
  -18.3570   27.4000   12.0870 C   0  0  0  0  0  2  0  0  0  0  0  0
  -19.1510   26.6930   10.9520 C   0  0  1  0  0  0  0  0  0  0  0  0
  -18.1650   27.3170    9.9250 C   0  0  0  0  0  2  0  0  0  0  0  0
  -20.4980   27.3080   10.8230 N   0  0  0  0  0  4  0  0  0  0  0  0
  -20.9370   27.0570    9.9290 H   0  0  0  0  0  0  0  0  0  0  0  0
  -21.1200   26.9840   11.5770 H   0  0  0  0  0  0  0  0  0  0  0  0
  -20.4760   28.3340   10.8700 H   0  0  0  0  0  0  0  0  0  0  0  0
  -16.0600   26.8750   11.2320 O   0  0  0  0  0  0  0  0  0  0  0  0
  -15.4070   27.1690   10.5690 H   0  0  0  0  0  0  0  0  0  0  0  0
  -18.6230   19.8230    8.9890 C   0  0  0  0  0  0  0  0  0  0  0  0
  -17.7260   18.8110    8.6310 C   0  0  0  0  0  3  0  0  0  0  0  0
  -17.0540   18.8680    7.4090 C   0  0  0  0  0  3  0  0  0  0  0  0
  -17.2770   19.9360    6.5390 C   0  0  0  0  0  3  0  0  0  0  0  0
  -18.1700   20.9470    6.8890 C   0  0  0  0  0  3  0  0  0  0  0  0
  -18.8420   20.8920    8.1110 C   0  0  0  0  0  3  0  0  0  0  0  0
  -21.4840   17.0900   16.5590 C   0  0  0  0  0  0  0  0  0  0  0  0
  -20.5600   17.7830   17.2880 N   0  0  0  0  0  0  0  0  0  0  0  0
  -22.5290   16.7110   17.0750 O   0  0  0  0  0  0  0  0  0  0  0  0
  -20.7740   17.9480   18.2630 H   0  0  0  0  0  0  0  0  0  0  0  0
  -19.7250   18.2030   16.9090 H   0  0  0  0  0  0  0  0  0  0  0  0
  1  2  1  0  0  0  0
  3  2  2  0  0  0  0
  3 13  1  0  0  0  0
  4  3  1  0  0  0  0
  5  4  1  0  0  0  0
  5  1  2  0  0  0  0
  6  4  1  0  0  0  0
  6  7  1  0  0  0  0
  7  8  1  0  0  0  0
  8 13  2  0  0  0  0
  8  9  1  0  0  0  0
  9 10  2  0  0  0  0
 10 11  1  0  0  0  0
 11 37  1  0  0  0  0
 12 11  2  0  0  0  0
 13 12  1  0  0  0  0
 14 19  1  0  0  0  0
 15 16  1  0  0  0  0
 15 14  2  0  0  0  0
 16 17  2  0  0  0  0
 17  1  1  0  0  0  0
 17 18  1  0  0  0  0
 19 18  2  0  0  0  0
 21 20  1  6  0  0  0
 21 29  1  0  0  0  0
 21 22  1  0  0  0  0
 23 25  1  6  0  0  0
 23 14  1  0  0  0  0
 23 22  1  0  0  0  0
 24 23  1  0  0  0  0
 24 21  1  0  0  0  0
 25 28  1  0  0  0  0
 25 27  1  0  0  0  0
 26 25  1  0  0  0  0
 30 29  1  0  0  0  0
 31  5  1  0  0  0  0
 32 31  1  0  0  0  0
 33 32  2  0  0  0  0
 34 35  2  0  0  0  0
 34 33  1  0  0  0  0
 35 36  1  0  0  0  0
 36 31  2  0  0  0  0
 37 39  2  0  0  0  0
 37 38  1  0  0  0  0
 38 40  1  0  0  0  0
 41 38  1  0  0  0  0
M  END
>  <minimizedAffinity>
-12.4196348

$$$$
