
 OpenBabel11232420423D

 41 46  0  0  1  0  0  0  0  0999 V2000
  -19.7100   21.6420   11.3560 C   0  0  0  0  0  0  0  0  0  0  0  0
  -20.2880   20.9100   12.3800 N   0  0  0  0  0  0  0  0  0  0  0  0
  -20.1940   19.6520   12.0200 C   0  0  0  0  0  0  0  0  0  0  0  0
  -19.6090   19.5390   10.7940 N   0  0  0  0  0  0  0  0  0  0  0  0
  -19.2410   20.7930   10.3570 C   0  0  0  0  0  0  0  0  0  0  0  0
  -19.2860   18.2430   10.2240 C   0  0  0  0  0  2  0  0  0  0  0  0
  -20.1270   17.1760   10.7140 O   0  0  0  0  0  0  0  0  0  0  0  0
  -20.5030   17.2440   12.0320 C   0  0  0  0  0  0  0  0  0  0  0  0
  -20.8860   16.0560   12.6500 C   0  0  0  0  0  3  0  0  0  0  0  0
  -21.2940   16.0680   13.9880 C   0  0  0  0  0  3  0  0  0  0  0  0
  -21.3300   17.2730   14.7050 C   0  0  0  0  0  0  0  0  0  0  0  0
  -20.9870   18.4700   14.0630 C   0  0  0  0  0  3  0  0  0  0  0  0
  -20.5720   18.4540   12.7300 C   0  0  0  0  0  0  0  0  0  0  0  0
  -19.2530   25.9600   11.7020 C   0  0  0  0  0  0  0  0  0  0  0  0
  -18.2760   25.0360   12.1300 C   0  0  0  0  0  3  0  0  0  0  0  0
  -18.4460   23.6490   12.0080 C   0  0  0  0  0  3  0  0  0  0  0  0
  -19.6080   23.0960   11.4610 C   0  0  0  0  0  0  0  0  0  0  0  0
  -20.6070   23.9820   11.0650 C   0  0  0  0  0  3  0  0  0  0  0  0
  -20.4250   25.3710   11.1770 C   0  0  0  0  0  3  0  0  0  0  0  0
  -16.8230   30.0570   11.1630 C   0  0  0  0  0  1  0  0  0  0  0  0
  -17.2600   28.5990   11.1730 C   0  0  1  0  0  0  0  0  0  0  0  0
  -17.8450   28.1380   12.5330 C   0  0  0  0  0  2  0  0  0  0  0  0
  -19.0860   27.5600   11.7940 C   0  0  1  0  0  0  0  0  0  0  0  0
  -18.6370   28.3270   10.5190 C   0  0  0  0  0  2  0  0  0  0  0  0
  -20.3270   28.1580   12.3540 N   0  0  0  0  0  4  0  0  0  0  0  0
  -21.1260   28.0110   11.7250 H   0  0  0  0  0  0  0  0  0  0  0  0
  -20.5600   27.7300   13.2610 H   0  0  0  0  0  0  0  0  0  0  0  0
  -20.2490   29.1700   12.5090 H   0  0  0  0  0  0  0  0  0  0  0  0
  -16.1880   27.7710   10.6890 O   0  0  0  0  0  0  0  0  0  0  0  0
  -15.8870   28.1580    9.8450 H   0  0  0  0  0  0  0  0  0  0  0  0
  -18.4550   21.0040    9.1500 C   0  0  0  0  0  0  0  0  0  0  0  0
  -19.0100   20.7650    7.8890 C   0  0  0  0  0  3  0  0  0  0  0  0
  -18.2430   20.9560    6.7380 C   0  0  0  0  0  3  0  0  0  0  0  0
  -16.9210   21.3870    6.8430 C   0  0  0  0  0  3  0  0  0  0  0  0
  -16.3630   21.6280    8.0970 C   0  0  0  0  0  3  0  0  0  0  0  0
  -17.1270   21.4370    9.2490 C   0  0  0  0  0  3  0  0  0  0  0  0
  -21.7400   17.3420   16.1340 C   0  0  0  0  0  0  0  0  0  0  0  0
  -21.7790   16.1760   16.8430 N   0  0  0  0  0  0  0  0  0  0  0  0
  -22.0000   18.4100   16.6740 O   0  0  0  0  0  0  0  0  0  0  0  0
  -22.0490   16.2390   17.8160 H   0  0  0  0  0  0  0  0  0  0  0  0
  -21.4910   15.2760   16.4900 H   0  0  0  0  0  0  0  0  0  0  0  0
  1 17  1  0  0  0  0
  1  2  1  0  0  0  0
  3  2  2  0  0  0  0
  3 13  1  0  0  0  0
  4  3  1  0  0  0  0
  5  4  1  0  0  0  0
  5  1  2  0  0  0  0
  6  7  1  0  0  0  0
  6  4  1  0  0  0  0
  7  8  1  0  0  0  0
  8  9  2  0  0  0  0
  8 13  1  0  0  0  0
  9 10  1  0  0  0  0
 10 11  2  0  0  0  0
 11 37  1  0  0  0  0
 12 11  1  0  0  0  0
 13 12  2  0  0  0  0
 14 23  1  0  0  0  0
 14 15  1  0  0  0  0
 16 15  2  0  0  0  0
 17 16  1  0  0  0  0
 18 19  1  0  0  0  0
 18 17  2  0  0  0  0
 19 14  2  0  0  0  0
 21 20  1  6  0  0  0
 21 22  1  0  0  0  0
 23 25  1  1  0  0  0
 23 22  1  0  0  0  0
 24 21  1  0  0  0  0
 24 23  1  0  0  0  0
 25 28  1  0  0  0  0
 25 27  1  0  0  0  0
 26 25  1  0  0  0  0
 29 21  1  0  0  0  0
 30 29  1  0  0  0  0
 31 36  1  0  0  0  0
 31  5  1  0  0  0  0
 32 31  2  0  0  0  0
 33 34  2  0  0  0  0
 33 32  1  0  0  0  0
 34 35  1  0  0  0  0
 35 36  2  0  0  0  0
 37 39  2  0  0  0  0
 37 38  1  0  0  0  0
 38 40  1  0  0  0  0
 41 38  1  0  0  0  0
M  END
>  <minimizedAffinity>
-11.9395876

$$$$
