
 OpenBabel10152419233D

 37 41  0  0  0  0  0  0  0  0999 V2000
    8.2310   -9.2610   13.1060 C   0  0  0  0  0  0  0  0  0  0  0  0
    9.3400   -8.7270   13.7600 C   0  0  0  0  0  3  0  0  0  0  0  0
   10.6140   -8.9550   13.2510 C   0  0  0  0  0  3  0  0  0  0  0  0
   10.7730   -9.6790   12.0680 C   0  0  0  0  0  3  0  0  0  0  0  0
    9.6670  -10.1190   11.3250 C   0  0  0  0  0  0  0  0  0  0  0  0
    8.3920   -9.8940   11.8630 C   0  0  0  0  0  0  0  0  0  0  0  0
    5.7210   -9.1030   13.2050 C   0  0  0  0  0  0  0  0  0  0  0  0
    4.7550   -8.7720   13.8860 O   0  0  0  0  0  0  0  0  0  0  0  0
    6.9870   -9.1610   13.7540 N   0  0  0  0  0  0  0  0  0  0  0  0
    6.9780   -9.1900   14.7670 H   0  0  0  0  0  0  0  0  0  0  0  0
    5.2860  -10.4870    9.1790 C   0  0  0  0  0  0  0  0  0  0  0  0
    6.0510   -9.3490    9.4670 C   0  0  0  0  0  3  0  0  0  0  0  0
    6.1590   -8.8680   10.7730 C   0  0  0  0  0  3  0  0  0  0  0  0
    5.5050   -9.5400   11.8040 C   0  0  0  0  0  0  0  0  0  0  0  0
    4.6730  -10.6300   11.5140 C   0  0  0  0  0  3  0  0  0  0  0  0
    4.5760  -11.1100   10.2050 C   0  0  0  0  0  3  0  0  0  0  0  0
    5.3250  -10.8800    7.8710 O   0  0  0  0  0  0  0  0  0  0  0  0
    5.9650   -8.7590    6.8560 C   0  0  0  0  0  1  0  0  0  0  0  0
    6.2480  -10.2470    6.9840 C   0  0  0  0  0  2  0  0  0  0  0  0
    9.8210  -10.8950   10.0230 C   0  0  0  0  0  2  0  0  0  0  0  0
    8.5420  -11.3010    9.4650 N   0  0  0  0  0  0  0  0  0  0  0  0
    8.2330  -10.8810    8.6040 H   0  0  0  0  0  0  0  0  0  0  0  0
    7.9440  -12.4590    9.9420 C   0  0  0  0  0  0  0  0  0  0  0  0
    7.5470  -13.3520    9.0190 N   0  0  0  0  0  0  0  0  0  0  0  0
    6.6730  -14.2750    9.4110 C   0  0  0  0  0  3  0  0  0  0  0  0
    6.0890  -14.3280   10.6080 N   0  0  0  0  0  0  0  0  0  0  0  0
    6.5160  -13.4620   11.5480 C   0  0  0  0  0  0  0  0  0  0  0  0
    5.9240  -13.4090   12.8140 C   0  0  0  0  0  0  0  0  0  0  0  0
    6.3990  -12.5920   13.8490 C   0  0  0  0  0  3  0  0  0  0  0  0
    7.4660  -11.7430   13.6090 C   0  0  0  0  0  3  0  0  0  0  0  0
    8.0070  -11.6880   12.3280 C   0  0  0  0  0  0  0  0  0  0  0  0
    7.5330  -12.5340   11.2870 C   0  0  0  0  0  0  0  0  0  0  0  0
    4.6560  -14.1150   13.0700 C   0  0  0  0  0  0  0  0  0  0  0  0
    3.5620  -13.5860   12.4390 N   0  0  0  0  0  0  0  0  0  0  0  0
    4.5760  -15.0290   13.8770 O   0  0  0  0  0  0  0  0  0  0  0  0
    2.6590  -14.0060   12.6100 H   0  0  0  0  0  0  0  0  0  0  0  0
    3.6260  -12.8100   11.7950 H   0  0  0  0  0  0  0  0  0  0  0  0
  1  9  1  0  0  0  0
  1  2  1  0  0  0  0
  3  2  2  0  0  0  0
  4  3  1  0  0  0  0
  5  6  1  0  0  0  0
  5  4  2  0  0  0  0
  6 31  1  0  0  0  0
  6  1  2  0  0  0  0
  7  9  1  0  0  0  0
  7  8  2  0  0  0  0
  9 10  1  0  0  0  0
 11 12  2  0  0  0  0
 11 16  1  0  0  0  0
 12 13  1  0  0  0  0
 13 14  2  0  0  0  0
 14  7  1  0  0  0  0
 15 14  1  0  0  0  0
 16 15  2  0  0  0  0
 17 11  1  0  0  0  0
 18 19  1  0  0  0  0
 19 17  1  0  0  0  0
 20  5  1  0  0  0  0
 21 23  1  0  0  0  0
 21 20  1  0  0  0  0
 22 21  1  0  0  0  0
 23 32  1  0  0  0  0
 24 25  1  0  0  0  0
 24 23  2  0  0  0  0
 25 26  2  0  0  0  0
 26 27  1  0  0  0  0
 27 28  1  0  0  0  0
 28 33  1  0  0  0  0
 28 29  2  0  0  0  0
 30 29  1  0  0  0  0
 31 30  2  0  0  0  0
 32 27  2  0  0  0  0
 32 31  1  0  0  0  0
 33 35  2  0  0  0  0
 34 36  1  0  0  0  0
 34 33  1  0  0  0  0
 37 34  1  0  0  0  0
M  END
>  <minimizedAffinity>
14.1856613

$$$$
