
 OpenBabel10152419223D

 38 41  0  0  1  0  0  0  0  0999 V2000
    5.7690   -9.6230    8.9610 C   0  0  0  0  0  0  0  0  0  0  0  0
    5.2660   -9.2990    7.7000 C   0  0  0  0  0  3  0  0  0  0  0  0
    6.1360   -9.0350    6.6430 C   0  0  0  0  0  3  0  0  0  0  0  0
    7.5130   -9.1790    6.8180 C   0  0  0  0  0  3  0  0  0  0  0  0
    8.0410   -9.5800    8.0570 C   0  0  0  0  0  0  0  0  0  0  0  0
    7.1540   -9.7280    9.1490 C   0  0  0  0  0  3  0  0  0  0  0  0
    5.0370  -10.7920   11.0540 C   0  0  0  0  0  0  0  0  0  0  0  0
    4.1900  -11.5990   11.4240 O   0  0  0  0  0  0  0  0  0  0  0  0
    4.8390  -10.0060    9.9440 N   0  0  0  0  0  0  0  0  0  0  0  0
    3.8620   -9.8410    9.7330 H   0  0  0  0  0  0  0  0  0  0  0  0
    8.5490   -9.8500   13.2910 C   0  0  0  0  0  0  0  0  0  0  0  0
    7.6400   -8.8430   12.9600 C   0  0  0  0  0  3  0  0  0  0  0  0
    6.4580   -9.1580   12.2820 C   0  0  0  0  0  3  0  0  0  0  0  0
    6.1810  -10.4870   11.9450 C   0  0  0  0  0  0  0  0  0  0  0  0
    7.1040  -11.4950   12.2530 C   0  0  0  0  0  3  0  0  0  0  0  0
    8.2840  -11.1680   12.9130 C   0  0  0  0  0  0  0  0  0  0  0  0
    9.1900  -12.1390   13.1000 F   0  0  0  0  0  0  0  0  0  0  0  0
   10.7690   -9.2560   12.9580 C   0  0  0  0  0  1  0  0  0  0  0  0
    9.7080   -9.4420   13.8950 O   0  0  0  0  0  0  0  0  0  0  0  0
    9.5160   -9.9750    8.2050 C   0  0  1  0  0  3  0  0  0  0  0  0
   10.3700   -8.7380    8.4990 C   0  0  0  0  0  1  0  0  0  0  0  0
    9.7240  -10.9580    9.2670 N   0  0  0  0  0  0  0  0  0  0  0  0
   10.0350  -10.6330   10.1680 H   0  0  0  0  0  0  0  0  0  0  0  0
    8.9100  -12.0910    9.1980 C   0  0  0  0  0  0  0  0  0  0  0  0
    7.8010  -11.9880    8.4460 N   0  0  0  0  0  0  0  0  0  0  0  0
    6.7860  -12.7760    8.7830 C   0  0  0  0  0  3  0  0  0  0  0  0
    6.7480  -13.5530    9.8640 N   0  0  0  0  0  0  0  0  0  0  0  0
    7.8940  -13.7090   10.5580 C   0  0  0  0  0  0  0  0  0  0  0  0
    7.9630  -14.4000   11.7710 C   0  0  0  0  0  0  0  0  0  0  0  0
    9.1720  -14.7540   12.3910 C   0  0  0  0  0  3  0  0  0  0  0  0
   10.3680  -14.3220   11.8460 C   0  0  0  0  0  3  0  0  0  0  0  0
   10.3200  -13.4420   10.7720 C   0  0  0  0  0  3  0  0  0  0  0  0
    9.0830  -13.1050   10.1520 C   0  0  0  0  0  0  0  0  0  0  0  0
    6.7380  -14.4710   12.5970 C   0  0  0  0  0  0  0  0  0  0  0  0
    5.5820  -14.4620   11.8460 N   0  0  0  0  0  0  0  0  0  0  0  0
    6.7400  -14.5330   13.8020 O   0  0  0  0  0  0  0  0  0  0  0  0
    4.7020  -14.5780   12.3310 H   0  0  0  0  0  0  0  0  0  0  0  0
    5.5800  -14.4340   10.8360 H   0  0  0  0  0  0  0  0  0  0  0  0
  1  6  1  0  0  0  0
  1  9  1  0  0  0  0
  2  1  2  0  0  0  0
  3  4  2  0  0  0  0
  3  2  1  0  0  0  0
  4  5  1  0  0  0  0
  5 20  1  0  0  0  0
  5  6  2  0  0  0  0
  7  8  2  0  0  0  0
  7 14  1  0  0  0  0
  9  7  1  0  0  0  0
 10  9  1  0  0  0  0
 11 19  1  0  0  0  0
 12 11  1  0  0  0  0
 13 12  2  0  0  0  0
 14 15  2  0  0  0  0
 14 13  1  0  0  0  0
 15 16  1  0  0  0  0
 16 17  1  0  0  0  0
 16 11  2  0  0  0  0
 18 19  1  0  0  0  0
 20 21  1  1  0  0  0
 20 22  1  0  0  0  0
 22 23  1  0  0  0  0
 24 22  1  0  0  0  0
 24 33  1  0  0  0  0
 25 26  1  0  0  0  0
 25 24  2  0  0  0  0
 26 27  2  0  0  0  0
 27 28  1  0  0  0  0
 28 29  1  0  0  0  0
 29 30  2  0  0  0  0
 29 34  1  0  0  0  0
 31 30  1  0  0  0  0
 32 31  2  0  0  0  0
 33 28  2  0  0  0  0
 33 32  1  0  0  0  0
 34 36  2  0  0  0  0
 35 37  1  0  0  0  0
 35 34  1  0  0  0  0
 38 35  1  0  0  0  0
M  END
>  <minimizedAffinity>
22.8894672

$$$$
