
 OpenBabel10152419473D

 38 41  0  0  0  0  0  0  0  0999 V2000
   -1.6250   -6.9220  -22.7930 C   0  0  0  0  0  0  0  0  0  0  0  0
   -2.8420   -6.7760  -23.4630 C   0  0  0  0  0  3  0  0  0  0  0  0
   -3.8590   -7.7090  -23.2670 C   0  0  0  0  0  3  0  0  0  0  0  0
   -3.6670   -8.8010  -22.4140 C   0  0  0  0  0  3  0  0  0  0  0  0
   -2.4470   -8.9870  -21.7630 C   0  0  0  0  0  0  0  0  0  0  0  0
   -1.4410   -8.0320  -21.9470 C   0  0  0  0  0  3  0  0  0  0  0  0
   -2.1590  -10.0420  -20.8760 N   0  0  0  0  0  0  0  0  0  0  0  0
   -1.6170  -11.2890  -21.0660 C   0  0  0  0  0  0  0  0  0  0  0  0
   -1.7190  -12.1520  -20.1960 O   0  0  0  0  0  0  0  0  0  0  0  0
   -2.4350   -9.8990  -19.9090 H   0  0  0  0  0  0  0  0  0  0  0  0
   -0.8330  -11.6040  -22.2650 C   0  0  0  0  0  0  0  0  0  0  0  0
    0.2210  -12.5150  -22.2390 C   0  0  0  0  0  3  0  0  0  0  0  0
    0.9460  -12.7430  -23.4080 C   0  0  0  0  0  3  0  0  0  0  0  0
    0.5950  -12.0580  -24.5770 C   0  0  0  0  0  0  0  0  0  0  0  0
   -0.4690  -11.1990  -24.6120 N   0  0  0  0  0  0  0  0  0  0  0  0
   -1.1670  -11.0050  -23.4660 C   0  0  0  0  0  3  0  0  0  0  0  0
    1.4090  -12.2720  -25.8490 C   0  0  0  0  0  0  0  0  0  0  0  0
    2.5660  -12.9590  -25.6340 F   0  0  0  0  0  0  0  0  0  0  0  0
    0.7300  -12.9590  -26.8130 F   0  0  0  0  0  0  0  0  0  0  0  0
    1.7870  -11.0990  -26.4440 F   0  0  0  0  0  0  0  0  0  0  0  0
   -0.4980   -5.9320  -22.9780 C   0  0  0  0  0  2  0  0  0  0  0  0
    2.2030   -6.4220  -28.4200 C   0  0  0  0  0  0  0  0  0  0  0  0
    1.6120   -5.3330  -29.0820 C   0  0  0  0  0  3  0  0  0  0  0  0
    0.6540   -4.5760  -28.4310 C   0  0  0  0  0  3  0  0  0  0  0  0
    0.2950   -4.9160  -27.1290 C   0  0  0  0  0  3  0  0  0  0  0  0
    0.8840   -6.0240  -26.4600 C   0  0  0  0  0  0  0  0  0  0  0  0
    0.5680   -6.4120  -25.1410 C   0  0  0  0  0  0  0  0  0  0  0  0
   -0.3420   -5.6720  -24.3950 N   0  0  0  0  0  0  0  0  0  0  0  0
    1.1830   -7.4380  -24.5320 N   0  0  0  0  0  0  0  0  0  0  0  0
    2.1020   -8.0950  -25.2400 C   0  0  0  0  0  3  0  0  0  0  0  0
    2.4750   -7.8150  -26.4890 N   0  0  0  0  0  0  0  0  0  0  0  0
    1.8640   -6.7920  -27.1120 C   0  0  0  0  0  0  0  0  0  0  0  0
   -1.1750   -5.3640  -24.8760 H   0  0  0  0  0  0  0  0  0  0  0  0
    4.4660   -7.2210  -28.6110 N   0  0  0  0  0  0  0  0  0  0  0  0
    3.2150   -7.1960  -29.1650 C   0  0  0  0  0  0  0  0  0  0  0  0
    2.9720   -7.7340  -30.2350 O   0  0  0  0  0  0  0  0  0  0  0  0
    5.1820   -7.7440  -29.0970 H   0  0  0  0  0  0  0  0  0  0  0  0
    4.6860   -6.8080  -27.7150 H   0  0  0  0  0  0  0  0  0  0  0  0
  1  6  1  0  0  0  0
  2  3  1  0  0  0  0
  2  1  2  0  0  0  0
  3  4  2  0  0  0  0
  4  5  1  0  0  0  0
  5  7  1  0  0  0  0
  6  5  2  0  0  0  0
  7 10  1  0  0  0  0
  8  7  1  0  0  0  0
  8  9  2  0  0  0  0
 11 12  1  0  0  0  0
 11  8  1  0  0  0  0
 13 12  2  0  0  0  0
 14 13  1  0  0  0  0
 15 14  2  0  0  0  0
 15 16  1  0  0  0  0
 16 11  2  0  0  0  0
 17 18  1  0  0  0  0
 17 14  1  0  0  0  0
 19 17  1  0  0  0  0
 20 17  1  0  0  0  0
 21  1  1  0  0  0  0
 22 32  1  0  0  0  0
 23 24  1  0  0  0  0
 23 22  2  0  0  0  0
 24 25  2  0  0  0  0
 25 26  1  0  0  0  0
 26 27  1  0  0  0  0
 27 29  2  0  0  0  0
 27 28  1  0  0  0  0
 28 21  1  0  0  0  0
 30 29  1  0  0  0  0
 31 30  2  0  0  0  0
 32 31  1  0  0  0  0
 32 26  2  0  0  0  0
 33 28  1  0  0  0  0
 34 38  1  0  0  0  0
 35 34  1  0  0  0  0
 35 22  1  0  0  0  0
 36 35  2  0  0  0  0
 37 34  1  0  0  0  0
M  END
>  <minimizedAffinity>
-8.02302456

$$$$
