
 OpenBabel10152419473D

 38 41  0  0  0  0  0  0  0  0999 V2000
   -0.5260   -6.3770  -26.9360 C   0  0  0  0  0  0  0  0  0  0  0  0
   -0.7630   -5.0180  -26.7200 C   0  0  0  0  0  3  0  0  0  0  0  0
    0.1660   -4.0730  -27.1550 C   0  0  0  0  0  3  0  0  0  0  0  0
    1.3420   -4.4770  -27.7960 C   0  0  0  0  0  3  0  0  0  0  0  0
    1.6160   -5.8310  -27.9900 C   0  0  0  0  0  0  0  0  0  0  0  0
    0.6660   -6.7690  -27.5720 C   0  0  0  0  0  3  0  0  0  0  0  0
    2.7600   -6.3380  -28.6350 N   0  0  0  0  0  0  0  0  0  0  0  0
    3.6310   -7.3510  -28.3150 C   0  0  0  0  0  0  0  0  0  0  0  0
    4.7220   -7.4340  -28.8750 O   0  0  0  0  0  0  0  0  0  0  0  0
    3.0480   -5.8530  -29.4790 H   0  0  0  0  0  0  0  0  0  0  0  0
    3.2580   -8.4040  -27.3660 C   0  0  0  0  0  0  0  0  0  0  0  0
    2.7590   -8.1120  -26.0980 C   0  0  0  0  0  3  0  0  0  0  0  0
    2.4540   -9.1630  -25.2330 C   0  0  0  0  0  3  0  0  0  0  0  0
    2.6510  -10.4810  -25.6590 C   0  0  0  0  0  0  0  0  0  0  0  0
    3.0980  -10.7670  -26.9210 N   0  0  0  0  0  0  0  0  0  0  0  0
    3.3720   -9.7290  -27.7480 C   0  0  0  0  0  3  0  0  0  0  0  0
    2.3590  -11.6340  -24.7040 C   0  0  0  0  0  0  0  0  0  0  0  0
    1.4720  -12.5350  -25.2110 F   0  0  0  0  0  0  0  0  0  0  0  0
    3.4720  -12.3440  -24.3620 F   0  0  0  0  0  0  0  0  0  0  0  0
    1.8190  -11.2180  -23.5180 F   0  0  0  0  0  0  0  0  0  0  0  0
   -1.5100   -7.4320  -26.4800 C   0  0  0  0  0  2  0  0  0  0  0  0
   -1.5200  -10.5450  -21.2400 C   0  0  0  0  0  0  0  0  0  0  0  0
   -1.6300   -9.4830  -20.3280 C   0  0  0  0  0  3  0  0  0  0  0  0
   -1.6430   -8.1800  -20.7950 C   0  0  0  0  0  3  0  0  0  0  0  0
   -1.5420   -7.9530  -22.1660 C   0  0  0  0  0  3  0  0  0  0  0  0
   -1.4190   -9.0270  -23.0910 C   0  0  0  0  0  0  0  0  0  0  0  0
   -1.3210   -8.8600  -24.4880 C   0  0  0  0  0  0  0  0  0  0  0  0
   -1.3830   -7.5880  -25.0450 N   0  0  0  0  0  0  0  0  0  0  0  0
   -1.2530   -9.9040  -25.3280 N   0  0  0  0  0  0  0  0  0  0  0  0
   -1.2620  -11.1190  -24.7800 C   0  0  0  0  0  3  0  0  0  0  0  0
   -1.3500  -11.3900  -23.4770 N   0  0  0  0  0  0  0  0  0  0  0  0
   -1.4140  -10.3530  -22.6240 C   0  0  0  0  0  0  0  0  0  0  0  0
   -0.8650   -6.8620  -24.5710 H   0  0  0  0  0  0  0  0  0  0  0  0
   -2.5030  -12.7400  -21.1290 N   0  0  0  0  0  0  0  0  0  0  0  0
   -1.5070  -11.9130  -20.6850 C   0  0  0  0  0  0  0  0  0  0  0  0
   -0.6970  -12.2710  -19.8420 O   0  0  0  0  0  0  0  0  0  0  0  0
   -2.5210  -13.6850  -20.7670 H   0  0  0  0  0  0  0  0  0  0  0  0
   -3.1670  -12.4780  -21.8440 H   0  0  0  0  0  0  0  0  0  0  0  0
  1  2  1  0  0  0  0
  1 21  1  0  0  0  0
  3  2  2  0  0  0  0
  4  3  1  0  0  0  0
  5  4  2  0  0  0  0
  5  6  1  0  0  0  0
  6  1  2  0  0  0  0
  7  8  1  0  0  0  0
  7  5  1  0  0  0  0
  8 11  1  0  0  0  0
  9  8  2  0  0  0  0
 10  7  1  0  0  0  0
 11 12  1  0  0  0  0
 12 13  2  0  0  0  0
 14 13  1  0  0  0  0
 14 17  1  0  0  0  0
 15 14  2  0  0  0  0
 16 11  2  0  0  0  0
 16 15  1  0  0  0  0
 17 19  1  0  0  0  0
 17 20  1  0  0  0  0
 18 17  1  0  0  0  0
 21 28  1  0  0  0  0
 22 35  1  0  0  0  0
 22 23  1  0  0  0  0
 24 23  2  0  0  0  0
 25 24  1  0  0  0  0
 26 32  1  0  0  0  0
 26 25  2  0  0  0  0
 27 26  1  0  0  0  0
 28 33  1  0  0  0  0
 28 27  1  0  0  0  0
 29 30  1  0  0  0  0
 29 27  2  0  0  0  0
 30 31  2  0  0  0  0
 31 32  1  0  0  0  0
 32 22  2  0  0  0  0
 34 37  1  0  0  0  0
 34 35  1  0  0  0  0
 35 36  2  0  0  0  0
 38 34  1  0  0  0  0
M  END
>  <minimizedAffinity>
-9.95772362

$$$$

 OpenBabel10152419473D

 38 41  0  0  0  0  0  0  0  0999 V2000
    1.9790  -11.8600  -26.4190 C   0  0  0  0  0  0  0  0  0  0  0  0
    2.7830  -12.5350  -25.4970 C   0  0  0  0  0  3  0  0  0  0  0  0
    4.1470  -12.2520  -25.4260 C   0  0  0  0  0  3  0  0  0  0  0  0
    4.7200  -11.3040  -26.2800 C   0  0  0  0  0  3  0  0  0  0  0  0
    3.9430  -10.6440  -27.2330 C   0  0  0  0  0  0  0  0  0  0  0  0
    2.5730  -10.9170  -27.2790 C   0  0  0  0  0  3  0  0  0  0  0  0
    4.4210   -9.6660  -28.1260 N   0  0  0  0  0  0  0  0  0  0  0  0
    3.9190   -8.4510  -28.5240 C   0  0  0  0  0  0  0  0  0  0  0  0
    4.3610   -7.8930  -29.5260 O   0  0  0  0  0  0  0  0  0  0  0  0
    5.2780   -9.8940  -28.6200 H   0  0  0  0  0  0  0  0  0  0  0  0
    2.9090   -7.7480  -27.7280 C   0  0  0  0  0  0  0  0  0  0  0  0
    2.7060   -8.0290  -26.3780 C   0  0  0  0  0  3  0  0  0  0  0  0
    1.7050   -7.3450  -25.6880 C   0  0  0  0  0  3  0  0  0  0  0  0
    0.9360   -6.3910  -26.3640 C   0  0  0  0  0  0  0  0  0  0  0  0
    1.1680   -6.0830  -27.6770 N   0  0  0  0  0  0  0  0  0  0  0  0
    2.1550   -6.7510  -28.3210 C   0  0  0  0  0  3  0  0  0  0  0  0
   -0.1860   -5.6670  -25.6260 C   0  0  0  0  0  0  0  0  0  0  0  0
   -0.2250   -4.3310  -25.8900 F   0  0  0  0  0  0  0  0  0  0  0  0
   -1.4260   -6.1520  -25.9260 F   0  0  0  0  0  0  0  0  0  0  0  0
   -0.0810   -5.7680  -24.2660 F   0  0  0  0  0  0  0  0  0  0  0  0
    0.4970  -12.1380  -26.5260 C   0  0  0  0  0  2  0  0  0  0  0  0
   -1.9030   -9.9140  -21.3830 C   0  0  0  0  0  0  0  0  0  0  0  0
   -1.7010  -11.0110  -20.5290 C   0  0  0  0  0  3  0  0  0  0  0  0
   -1.1420  -12.1740  -21.0300 C   0  0  0  0  0  3  0  0  0  0  0  0
   -0.7950  -12.2290  -22.3770 C   0  0  0  0  0  3  0  0  0  0  0  0
   -1.0080  -11.1250  -23.2470 C   0  0  0  0  0  0  0  0  0  0  0  0
   -0.6690  -11.1190  -24.6170 C   0  0  0  0  0  0  0  0  0  0  0  0
   -0.0520  -12.2260  -25.1880 N   0  0  0  0  0  0  0  0  0  0  0  0
   -0.8450  -10.0370  -25.3910 N   0  0  0  0  0  0  0  0  0  0  0  0
   -1.3770   -8.9610  -24.8100 C   0  0  0  0  0  3  0  0  0  0  0  0
   -1.7330   -8.8590  -23.5290 N   0  0  0  0  0  0  0  0  0  0  0  0
   -1.5660   -9.9370  -22.7440 C   0  0  0  0  0  0  0  0  0  0  0  0
   -0.4130  -13.1310  -24.9220 H   0  0  0  0  0  0  0  0  0  0  0  0
   -3.5800   -8.1900  -21.4710 N   0  0  0  0  0  0  0  0  0  0  0  0
   -2.5060   -8.7020  -20.7950 C   0  0  0  0  0  0  0  0  0  0  0  0
   -2.0470   -8.1560  -19.8030 O   0  0  0  0  0  0  0  0  0  0  0  0
   -4.0170   -7.3590  -21.0930 H   0  0  0  0  0  0  0  0  0  0  0  0
   -3.9950   -8.6360  -22.2780 H   0  0  0  0  0  0  0  0  0  0  0  0
  1  2  1  0  0  0  0
  2  3  2  0  0  0  0
  4  3  1  0  0  0  0
  5  4  2  0  0  0  0
  6  5  1  0  0  0  0
  6  1  2  0  0  0  0
  7  5  1  0  0  0  0
  8  7  1  0  0  0  0
  8 11  1  0  0  0  0
  9  8  2  0  0  0  0
 10  7  1  0  0  0  0
 11 12  1  0  0  0  0
 12 13  2  0  0  0  0
 14 13  1  0  0  0  0
 14 17  1  0  0  0  0
 15 14  2  0  0  0  0
 16 11  2  0  0  0  0
 16 15  1  0  0  0  0
 17 20  1  0  0  0  0
 18 17  1  0  0  0  0
 19 17  1  0  0  0  0
 21  1  1  0  0  0  0
 21 28  1  0  0  0  0
 22 35  1  0  0  0  0
 22 23  1  0  0  0  0
 24 23  2  0  0  0  0
 25 24  1  0  0  0  0
 26 32  1  0  0  0  0
 26 25  2  0  0  0  0
 27 26  1  0  0  0  0
 28 33  1  0  0  0  0
 28 27  1  0  0  0  0
 29 30  1  0  0  0  0
 29 27  2  0  0  0  0
 30 31  2  0  0  0  0
 31 32  1  0  0  0  0
 32 22  2  0  0  0  0
 34 37  1  0  0  0  0
 34 35  1  0  0  0  0
 35 36  2  0  0  0  0
 38 34  1  0  0  0  0
M  END
>  <minimizedAffinity>
-9.61135578

$$$$

 OpenBabel10152419473D

 38 41  0  0  0  0  0  0  0  0999 V2000
    4.0430  -10.1610  -27.8070 C   0  0  0  0  0  0  0  0  0  0  0  0
    4.1890  -10.9070  -28.9790 C   0  0  0  0  0  3  0  0  0  0  0  0
    4.1730  -12.3000  -28.9210 C   0  0  0  0  0  3  0  0  0  0  0  0
    4.0230  -12.9590  -27.6960 C   0  0  0  0  0  3  0  0  0  0  0  0
    3.9120  -12.2330  -26.5090 C   0  0  0  0  0  0  0  0  0  0  0  0
    3.9060  -10.8370  -26.5800 C   0  0  0  0  0  3  0  0  0  0  0  0
    3.7450  -12.7990  -25.2310 N   0  0  0  0  0  0  0  0  0  0  0  0
    2.8650  -12.5360  -24.2100 C   0  0  0  0  0  0  0  0  0  0  0  0
    3.0820  -12.9590  -23.0770 O   0  0  0  0  0  0  0  0  0  0  0  0
    4.4170  -13.5120  -24.9670 H   0  0  0  0  0  0  0  0  0  0  0  0
    1.6080  -11.8210  -24.4540 C   0  0  0  0  0  0  0  0  0  0  0  0
    0.5840  -12.3710  -25.2230 C   0  0  0  0  0  3  0  0  0  0  0  0
   -0.5730  -11.6230  -25.4430 C   0  0  0  0  0  3  0  0  0  0  0  0
   -0.6790  -10.3450  -24.8830 C   0  0  0  0  0  0  0  0  0  0  0  0
    0.3080   -9.8250  -24.0900 N   0  0  0  0  0  0  0  0  0  0  0  0
    1.4150  -10.5780  -23.8790 C   0  0  0  0  0  3  0  0  0  0  0  0
   -1.9240   -9.5050  -25.1520 C   0  0  0  0  0  0  0  0  0  0  0  0
   -2.9360  -10.2180  -25.7220 F   0  0  0  0  0  0  0  0  0  0  0  0
   -2.4430   -8.9370  -24.0260 F   0  0  0  0  0  0  0  0  0  0  0  0
   -1.6880   -8.4610  -26.0040 F   0  0  0  0  0  0  0  0  0  0  0  0
    4.0550   -8.6490  -27.8280 C   0  0  0  0  0  2  0  0  0  0  0  0
   -0.2330   -4.6660  -26.1250 C   0  0  0  0  0  0  0  0  0  0  0  0
   -0.5170   -5.1530  -24.8380 C   0  0  0  0  0  3  0  0  0  0  0  0
    0.1220   -6.2930  -24.3820 C   0  0  0  0  0  3  0  0  0  0  0  0
    1.0330   -6.9350  -25.2170 C   0  0  0  0  0  3  0  0  0  0  0  0
    1.3150   -6.4510  -26.5250 C   0  0  0  0  0  0  0  0  0  0  0  0
    2.2320   -7.0540  -27.4110 C   0  0  0  0  0  0  0  0  0  0  0  0
    2.9590   -8.1690  -27.0120 N   0  0  0  0  0  0  0  0  0  0  0  0
    2.5010   -6.5360  -28.6200 N   0  0  0  0  0  0  0  0  0  0  0  0
    1.8440   -5.4270  -28.9590 C   0  0  0  0  0  3  0  0  0  0  0  0
    0.9580   -4.7780  -28.2020 N   0  0  0  0  0  0  0  0  0  0  0  0
    0.6760   -5.2890  -26.9910 C   0  0  0  0  0  0  0  0  0  0  0  0
    2.4530   -8.8780  -26.5000 H   0  0  0  0  0  0  0  0  0  0  0  0
   -0.1550   -2.4290  -27.0110 N   0  0  0  0  0  0  0  0  0  0  0  0
   -0.9480   -3.4500  -26.5600 C   0  0  0  0  0  0  0  0  0  0  0  0
   -2.1610   -3.3360  -26.4720 O   0  0  0  0  0  0  0  0  0  0  0  0
   -0.6150   -1.5820  -27.3170 H   0  0  0  0  0  0  0  0  0  0  0  0
    0.8460   -2.5080  -27.1190 H   0  0  0  0  0  0  0  0  0  0  0  0
  1  6  1  0  0  0  0
  2  3  1  0  0  0  0
  2  1  2  0  0  0  0
  3  4  2  0  0  0  0
  4  5  1  0  0  0  0
  5  7  1  0  0  0  0
  6  5  2  0  0  0  0
  7 10  1  0  0  0  0
  7  8  1  0  0  0  0
  8  9  2  0  0  0  0
 11  8  1  0  0  0  0
 11 16  1  0  0  0  0
 12 11  2  0  0  0  0
 13 12  1  0  0  0  0
 13 14  2  0  0  0  0
 14 15  1  0  0  0  0
 15 16  2  0  0  0  0
 17 14  1  0  0  0  0
 17 19  1  0  0  0  0
 18 17  1  0  0  0  0
 20 17  1  0  0  0  0
 21  1  1  0  0  0  0
 21 28  1  0  0  0  0
 22 23  1  0  0  0  0
 23 24  2  0  0  0  0
 25 24  1  0  0  0  0
 26 25  2  0  0  0  0
 27 28  1  0  0  0  0
 27 26  1  0  0  0  0
 28 33  1  0  0  0  0
 29 27  2  0  0  0  0
 30 29  1  0  0  0  0
 30 31  2  0  0  0  0
 31 32  1  0  0  0  0
 32 26  1  0  0  0  0
 32 22  2  0  0  0  0
 34 35  1  0  0  0  0
 35 36  2  0  0  0  0
 35 22  1  0  0  0  0
 37 34  1  0  0  0  0
 38 34  1  0  0  0  0
M  END
>  <minimizedAffinity>
-8.94251919

$$$$

 OpenBabel10152419473D

 38 41  0  0  0  0  0  0  0  0999 V2000
    3.4870  -10.7890  -26.5640 C   0  0  0  0  0  0  0  0  0  0  0  0
    3.1300  -11.3020  -27.8140 C   0  0  0  0  0  3  0  0  0  0  0  0
    2.2340  -12.3670  -27.8970 C   0  0  0  0  0  3  0  0  0  0  0  0
    1.6980  -12.9370  -26.7370 C   0  0  0  0  0  3  0  0  0  0  0  0
    2.0690  -12.4650  -25.4780 C   0  0  0  0  0  0  0  0  0  0  0  0
    2.9480  -11.3800  -25.4060 C   0  0  0  0  0  3  0  0  0  0  0  0
    1.5770  -12.9590  -24.2550 N   0  0  0  0  0  0  0  0  0  0  0  0
    0.7760  -12.4040  -23.2870 C   0  0  0  0  0  0  0  0  0  0  0  0
    0.7060  -12.9130  -22.1700 O   0  0  0  0  0  0  0  0  0  0  0  0
    1.8940  -13.8860  -23.9890 H   0  0  0  0  0  0  0  0  0  0  0  0
   -0.0780  -11.2480  -23.5770 C   0  0  0  0  0  0  0  0  0  0  0  0
   -0.5860  -11.0070  -24.8520 C   0  0  0  0  0  3  0  0  0  0  0  0
   -1.3650   -9.8700  -25.0650 C   0  0  0  0  0  3  0  0  0  0  0  0
   -1.6220   -9.0040  -23.9960 C   0  0  0  0  0  0  0  0  0  0  0  0
   -1.1610   -9.2670  -22.7340 N   0  0  0  0  0  0  0  0  0  0  0  0
   -0.4190  -10.3860  -22.5500 C   0  0  0  0  0  3  0  0  0  0  0  0
   -2.4400   -7.7380  -24.2300 C   0  0  0  0  0  0  0  0  0  0  0  0
   -2.0040   -6.6770  -23.4940 F   0  0  0  0  0  0  0  0  0  0  0  0
   -2.4350   -7.3280  -25.5310 F   0  0  0  0  0  0  0  0  0  0  0  0
   -3.7600   -7.8890  -23.9070 F   0  0  0  0  0  0  0  0  0  0  0  0
    4.4540   -9.6340  -26.4320 C   0  0  0  0  0  2  0  0  0  0  0  0
    0.2980   -5.2300  -27.1290 C   0  0  0  0  0  0  0  0  0  0  0  0
    0.5930   -4.8250  -28.4410 C   0  0  0  0  0  3  0  0  0  0  0  0
    1.6490   -5.4130  -29.1170 C   0  0  0  0  0  3  0  0  0  0  0  0
    2.3990   -6.3940  -28.4730 C   0  0  0  0  0  3  0  0  0  0  0  0
    2.1100   -6.7980  -27.1400 C   0  0  0  0  0  0  0  0  0  0  0  0
    2.8290   -7.7900  -26.4410 C   0  0  0  0  0  0  0  0  0  0  0  0
    3.8680   -8.4700  -27.0640 N   0  0  0  0  0  0  0  0  0  0  0  0
    2.4920   -8.1730  -25.1990 N   0  0  0  0  0  0  0  0  0  0  0  0
    1.4500   -7.5560  -24.6410 C   0  0  0  0  0  3  0  0  0  0  0  0
    0.7040   -6.6080  -25.2100 N   0  0  0  0  0  0  0  0  0  0  0  0
    1.0340   -6.2120  -26.4520 C   0  0  0  0  0  0  0  0  0  0  0  0
    4.4980   -7.9150  -27.6260 H   0  0  0  0  0  0  0  0  0  0  0  0
   -0.5360   -3.9320  -25.2810 N   0  0  0  0  0  0  0  0  0  0  0  0
   -0.8360   -4.5660  -26.4560 C   0  0  0  0  0  0  0  0  0  0  0  0
   -1.9780   -4.6230  -26.8860 O   0  0  0  0  0  0  0  0  0  0  0  0
   -1.2920   -3.4660  -24.7960 H   0  0  0  0  0  0  0  0  0  0  0  0
    0.4030   -3.8470  -24.9180 H   0  0  0  0  0  0  0  0  0  0  0  0
  1 21  1  0  0  0  0
  1  6  1  0  0  0  0
  2  1  2  0  0  0  0
  3  2  1  0  0  0  0
  3  4  2  0  0  0  0
  4  5  1  0  0  0  0
  5  6  2  0  0  0  0
  5  7  1  0  0  0  0
  7 10  1  0  0  0  0
  7  8  1  0  0  0  0
  8  9  2  0  0  0  0
 11  8  1  0  0  0  0
 11 16  1  0  0  0  0
 12 11  2  0  0  0  0
 13 12  1  0  0  0  0
 13 14  2  0  0  0  0
 14 15  1  0  0  0  0
 15 16  2  0  0  0  0
 17 14  1  0  0  0  0
 17 20  1  0  0  0  0
 17 18  1  0  0  0  0
 19 17  1  0  0  0  0
 22 35  1  0  0  0  0
 22 32  1  0  0  0  0
 23 22  2  0  0  0  0
 24 25  2  0  0  0  0
 24 23  1  0  0  0  0
 25 26  1  0  0  0  0
 26 32  2  0  0  0  0
 26 27  1  0  0  0  0
 27 29  2  0  0  0  0
 28 27  1  0  0  0  0
 28 21  1  0  0  0  0
 29 30  1  0  0  0  0
 31 30  2  0  0  0  0
 32 31  1  0  0  0  0
 33 28  1  0  0  0  0
 34 38  1  0  0  0  0
 34 37  1  0  0  0  0
 35 34  1  0  0  0  0
 36 35  2  0  0  0  0
M  END
>  <minimizedAffinity>
-8.43973541

$$$$

 OpenBabel10152419473D

 38 41  0  0  0  0  0  0  0  0999 V2000
   -1.6250   -6.9220  -22.7930 C   0  0  0  0  0  0  0  0  0  0  0  0
   -2.8420   -6.7760  -23.4630 C   0  0  0  0  0  3  0  0  0  0  0  0
   -3.8590   -7.7090  -23.2670 C   0  0  0  0  0  3  0  0  0  0  0  0
   -3.6670   -8.8010  -22.4140 C   0  0  0  0  0  3  0  0  0  0  0  0
   -2.4470   -8.9870  -21.7630 C   0  0  0  0  0  0  0  0  0  0  0  0
   -1.4410   -8.0320  -21.9470 C   0  0  0  0  0  3  0  0  0  0  0  0
   -2.1590  -10.0420  -20.8760 N   0  0  0  0  0  0  0  0  0  0  0  0
   -1.6170  -11.2890  -21.0660 C   0  0  0  0  0  0  0  0  0  0  0  0
   -1.7190  -12.1520  -20.1960 O   0  0  0  0  0  0  0  0  0  0  0  0
   -2.4350   -9.8990  -19.9090 H   0  0  0  0  0  0  0  0  0  0  0  0
   -0.8330  -11.6040  -22.2650 C   0  0  0  0  0  0  0  0  0  0  0  0
    0.2210  -12.5150  -22.2390 C   0  0  0  0  0  3  0  0  0  0  0  0
    0.9460  -12.7430  -23.4080 C   0  0  0  0  0  3  0  0  0  0  0  0
    0.5950  -12.0580  -24.5770 C   0  0  0  0  0  0  0  0  0  0  0  0
   -0.4690  -11.1990  -24.6120 N   0  0  0  0  0  0  0  0  0  0  0  0
   -1.1670  -11.0050  -23.4660 C   0  0  0  0  0  3  0  0  0  0  0  0
    1.4090  -12.2720  -25.8490 C   0  0  0  0  0  0  0  0  0  0  0  0
    2.5660  -12.9590  -25.6340 F   0  0  0  0  0  0  0  0  0  0  0  0
    0.7300  -12.9590  -26.8130 F   0  0  0  0  0  0  0  0  0  0  0  0
    1.7870  -11.0990  -26.4440 F   0  0  0  0  0  0  0  0  0  0  0  0
   -0.4980   -5.9320  -22.9780 C   0  0  0  0  0  2  0  0  0  0  0  0
    2.2030   -6.4220  -28.4200 C   0  0  0  0  0  0  0  0  0  0  0  0
    1.6120   -5.3330  -29.0820 C   0  0  0  0  0  3  0  0  0  0  0  0
    0.6540   -4.5760  -28.4310 C   0  0  0  0  0  3  0  0  0  0  0  0
    0.2950   -4.9160  -27.1290 C   0  0  0  0  0  3  0  0  0  0  0  0
    0.8840   -6.0240  -26.4600 C   0  0  0  0  0  0  0  0  0  0  0  0
    0.5680   -6.4120  -25.1410 C   0  0  0  0  0  0  0  0  0  0  0  0
   -0.3420   -5.6720  -24.3950 N   0  0  0  0  0  0  0  0  0  0  0  0
    1.1830   -7.4380  -24.5320 N   0  0  0  0  0  0  0  0  0  0  0  0
    2.1020   -8.0950  -25.2400 C   0  0  0  0  0  3  0  0  0  0  0  0
    2.4750   -7.8150  -26.4890 N   0  0  0  0  0  0  0  0  0  0  0  0
    1.8640   -6.7920  -27.1120 C   0  0  0  0  0  0  0  0  0  0  0  0
   -1.1750   -5.3640  -24.8760 H   0  0  0  0  0  0  0  0  0  0  0  0
    4.4660   -7.2210  -28.6110 N   0  0  0  0  0  0  0  0  0  0  0  0
    3.2150   -7.1960  -29.1650 C   0  0  0  0  0  0  0  0  0  0  0  0
    2.9720   -7.7340  -30.2350 O   0  0  0  0  0  0  0  0  0  0  0  0
    5.1820   -7.7440  -29.0970 H   0  0  0  0  0  0  0  0  0  0  0  0
    4.6860   -6.8080  -27.7150 H   0  0  0  0  0  0  0  0  0  0  0  0
  1  6  1  0  0  0  0
  2  3  1  0  0  0  0
  2  1  2  0  0  0  0
  3  4  2  0  0  0  0
  4  5  1  0  0  0  0
  5  7  1  0  0  0  0
  6  5  2  0  0  0  0
  7 10  1  0  0  0  0
  8  7  1  0  0  0  0
  8  9  2  0  0  0  0
 11 12  1  0  0  0  0
 11  8  1  0  0  0  0
 13 12  2  0  0  0  0
 14 13  1  0  0  0  0
 15 14  2  0  0  0  0
 15 16  1  0  0  0  0
 16 11  2  0  0  0  0
 17 18  1  0  0  0  0
 17 14  1  0  0  0  0
 19 17  1  0  0  0  0
 20 17  1  0  0  0  0
 21  1  1  0  0  0  0
 22 32  1  0  0  0  0
 23 24  1  0  0  0  0
 23 22  2  0  0  0  0
 24 25  2  0  0  0  0
 25 26  1  0  0  0  0
 26 27  1  0  0  0  0
 27 29  2  0  0  0  0
 27 28  1  0  0  0  0
 28 21  1  0  0  0  0
 30 29  1  0  0  0  0
 31 30  2  0  0  0  0
 32 31  1  0  0  0  0
 32 26  2  0  0  0  0
 33 28  1  0  0  0  0
 34 38  1  0  0  0  0
 35 34  1  0  0  0  0
 35 22  1  0  0  0  0
 36 35  2  0  0  0  0
 37 34  1  0  0  0  0
M  END
>  <minimizedAffinity>
-8.02302456

$$$$

 OpenBabel10152419473D

 38 41  0  0  0  0  0  0  0  0999 V2000
    1.9360  -11.6480  -26.5200 C   0  0  0  0  0  0  0  0  0  0  0  0
    2.6880  -12.4110  -25.6230 C   0  0  0  0  0  3  0  0  0  0  0  0
    4.0700  -12.2430  -25.5560 C   0  0  0  0  0  3  0  0  0  0  0  0
    4.7150  -11.3240  -26.3910 C   0  0  0  0  0  3  0  0  0  0  0  0
    3.9890  -10.5780  -27.3200 C   0  0  0  0  0  0  0  0  0  0  0  0
    2.6000  -10.7370  -27.3620 C   0  0  0  0  0  3  0  0  0  0  0  0
    4.5400   -9.6210  -28.1930 N   0  0  0  0  0  0  0  0  0  0  0  0
    4.0650   -8.4250  -28.6740 C   0  0  0  0  0  0  0  0  0  0  0  0
    4.5960   -7.8910  -29.6460 O   0  0  0  0  0  0  0  0  0  0  0  0
    5.4430   -9.8510  -28.5950 H   0  0  0  0  0  0  0  0  0  0  0  0
    2.9760   -7.7120  -28.0010 C   0  0  0  0  0  0  0  0  0  0  0  0
    2.1750   -6.7870  -28.6690 C   0  0  0  0  0  3  0  0  0  0  0  0
    1.1770   -6.1210  -27.9580 C   0  0  0  0  0  3  0  0  0  0  0  0
    1.0010   -6.3980  -26.5980 C   0  0  0  0  0  0  0  0  0  0  0  0
    1.7580   -7.3400  -25.9550 N   0  0  0  0  0  0  0  0  0  0  0  0
    2.7110   -7.9850  -26.6710 C   0  0  0  0  0  3  0  0  0  0  0  0
   -0.0620   -5.6430  -25.8060 C   0  0  0  0  0  0  0  0  0  0  0  0
   -1.3330   -5.9710  -26.1710 F   0  0  0  0  0  0  0  0  0  0  0  0
    0.0170   -5.8570  -24.4610 F   0  0  0  0  0  0  0  0  0  0  0  0
    0.0230   -4.2870  -25.9600 F   0  0  0  0  0  0  0  0  0  0  0  0
    0.4360  -11.8010  -26.6220 C   0  0  0  0  0  2  0  0  0  0  0  0
   -2.2810   -8.7780  -22.0800 C   0  0  0  0  0  0  0  0  0  0  0  0
   -2.8240   -7.6990  -22.7980 C   0  0  0  0  0  3  0  0  0  0  0  0
   -2.5790   -7.5910  -24.1560 C   0  0  0  0  0  3  0  0  0  0  0  0
   -1.7920   -8.5560  -24.7800 C   0  0  0  0  0  3  0  0  0  0  0  0
   -1.2320   -9.6430  -24.0530 C   0  0  0  0  0  0  0  0  0  0  0  0
   -0.4350  -10.6540  -24.6300 C   0  0  0  0  0  0  0  0  0  0  0  0
   -0.1870  -10.6520  -25.9980 N   0  0  0  0  0  0  0  0  0  0  0  0
    0.0350  -11.6870  -23.9140 N   0  0  0  0  0  0  0  0  0  0  0  0
   -0.2690  -11.7090  -22.6160 C   0  0  0  0  0  3  0  0  0  0  0  0
   -1.0110  -10.8070  -21.9710 N   0  0  0  0  0  0  0  0  0  0  0  0
   -1.4840   -9.7650  -22.6750 C   0  0  0  0  0  0  0  0  0  0  0  0
    0.0290   -9.7580  -26.4160 H   0  0  0  0  0  0  0  0  0  0  0  0
   -3.0600   -7.6880  -20.0800 N   0  0  0  0  0  0  0  0  0  0  0  0
   -2.5720   -8.8400  -20.6340 C   0  0  0  0  0  0  0  0  0  0  0  0
   -2.3420   -9.8340  -19.9610 O   0  0  0  0  0  0  0  0  0  0  0  0
   -3.2700   -7.6990  -19.0900 H   0  0  0  0  0  0  0  0  0  0  0  0
   -3.2840   -6.8630  -20.6180 H   0  0  0  0  0  0  0  0  0  0  0  0
  1  2  1  0  0  0  0
  2  3  2  0  0  0  0
  4  3  1  0  0  0  0
  5  4  2  0  0  0  0
  6  5  1  0  0  0  0
  6  1  2  0  0  0  0
  7  5  1  0  0  0  0
  8  7  1  0  0  0  0
  8 11  1  0  0  0  0
  9  8  2  0  0  0  0
 10  7  1  0  0  0  0
 11 16  1  0  0  0  0
 12 11  2  0  0  0  0
 12 13  1  0  0  0  0
 13 14  2  0  0  0  0
 14 15  1  0  0  0  0
 14 17  1  0  0  0  0
 16 15  2  0  0  0  0
 17 19  1  0  0  0  0
 18 17  1  0  0  0  0
 20 17  1  0  0  0  0
 21  1  1  0  0  0  0
 21 28  1  0  0  0  0
 22 35  1  0  0  0  0
 23 22  2  0  0  0  0
 24 23  1  0  0  0  0
 25 24  2  0  0  0  0
 25 26  1  0  0  0  0
 26 32  1  0  0  0  0
 27 26  2  0  0  0  0
 27 29  1  0  0  0  0
 28 27  1  0  0  0  0
 29 30  2  0  0  0  0
 30 31  1  0  0  0  0
 32 22  1  0  0  0  0
 32 31  2  0  0  0  0
 33 28  1  0  0  0  0
 34 37  1  0  0  0  0
 35 34  1  0  0  0  0
 35 36  2  0  0  0  0
 38 34  1  0  0  0  0
M  END
>  <minimizedAffinity>
-7.91132116

$$$$

 OpenBabel10152419473D

 38 41  0  0  0  0  0  0  0  0999 V2000
   -0.3210   -6.1800  -27.4410 C   0  0  0  0  0  0  0  0  0  0  0  0
   -0.1650   -4.9690  -26.7630 C   0  0  0  0  0  3  0  0  0  0  0  0
    0.9580   -4.1780  -27.0030 C   0  0  0  0  0  3  0  0  0  0  0  0
    1.9380   -4.5940  -27.9120 C   0  0  0  0  0  3  0  0  0  0  0  0
    1.8200   -5.8170  -28.5730 C   0  0  0  0  0  0  0  0  0  0  0  0
    0.6790   -6.5910  -28.3420 C   0  0  0  0  0  3  0  0  0  0  0  0
    2.7410   -6.3170  -29.5120 N   0  0  0  0  0  0  0  0  0  0  0  0
    3.6690   -7.3280  -29.4510 C   0  0  0  0  0  0  0  0  0  0  0  0
    4.5620   -7.4050  -30.2930 O   0  0  0  0  0  0  0  0  0  0  0  0
    2.7820   -5.8280  -30.4010 H   0  0  0  0  0  0  0  0  0  0  0  0
    3.5760   -8.3860  -28.4410 C   0  0  0  0  0  0  0  0  0  0  0  0
    3.2680   -8.1110  -27.1100 C   0  0  0  0  0  3  0  0  0  0  0  0
    3.2280   -9.1620  -26.1940 C   0  0  0  0  0  3  0  0  0  0  0  0
    3.4920  -10.4640  -26.6330 C   0  0  0  0  0  0  0  0  0  0  0  0
    3.7490  -10.7390  -27.9490 N   0  0  0  0  0  0  0  0  0  0  0  0
    3.7670   -9.7020  -28.8220 C   0  0  0  0  0  3  0  0  0  0  0  0
    3.4900  -11.6130  -25.6290 C   0  0  0  0  0  0  0  0  0  0  0  0
    4.7220  -12.1650  -25.4460 F   0  0  0  0  0  0  0  0  0  0  0  0
    3.0490  -11.2450  -24.3920 F   0  0  0  0  0  0  0  0  0  0  0  0
    2.6780  -12.6480  -26.0060 F   0  0  0  0  0  0  0  0  0  0  0  0
   -1.5240   -7.0660  -27.2070 C   0  0  0  0  0  2  0  0  0  0  0  0
   -1.1590  -10.1840  -21.9830 C   0  0  0  0  0  0  0  0  0  0  0  0
   -0.1080  -11.0620  -22.2990 C   0  0  0  0  0  3  0  0  0  0  0  0
    0.4500  -11.0310  -23.5650 C   0  0  0  0  0  3  0  0  0  0  0  0
   -0.0490  -10.1300  -24.5010 C   0  0  0  0  0  3  0  0  0  0  0  0
   -1.1200   -9.2480  -24.1880 C   0  0  0  0  0  0  0  0  0  0  0  0
   -1.6620   -8.3090  -25.0910 C   0  0  0  0  0  0  0  0  0  0  0  0
   -1.1230   -8.1740  -26.3650 N   0  0  0  0  0  0  0  0  0  0  0  0
   -2.6430   -7.4640  -24.7380 N   0  0  0  0  0  0  0  0  0  0  0  0
   -3.1020   -7.5620  -23.4910 C   0  0  0  0  0  3  0  0  0  0  0  0
   -2.6650   -8.4110  -22.5600 N   0  0  0  0  0  0  0  0  0  0  0  0
   -1.6860   -9.2660  -22.9020 C   0  0  0  0  0  0  0  0  0  0  0  0
   -0.8910   -9.0290  -26.8500 H   0  0  0  0  0  0  0  0  0  0  0  0
   -1.7040   -9.0950  -19.9070 N   0  0  0  0  0  0  0  0  0  0  0  0
   -1.7180  -10.2630  -20.6190 C   0  0  0  0  0  0  0  0  0  0  0  0
   -2.1160  -11.3120  -20.1340 O   0  0  0  0  0  0  0  0  0  0  0  0
   -2.0810   -9.1170  -18.9680 H   0  0  0  0  0  0  0  0  0  0  0  0
   -1.4060   -8.2110  -20.2930 H   0  0  0  0  0  0  0  0  0  0  0  0
  1 21  1  0  0  0  0
  1  2  1  0  0  0  0
  3  2  2  0  0  0  0
  4  3  1  0  0  0  0
  5  6  1  0  0  0  0
  5  4  2  0  0  0  0
  6  1  2  0  0  0  0
  7  8  1  0  0  0  0
  7  5  1  0  0  0  0
  8 11  1  0  0  0  0
  9  8  2  0  0  0  0
 10  7  1  0  0  0  0
 11 12  1  0  0  0  0
 12 13  2  0  0  0  0
 14 13  1  0  0  0  0
 14 17  1  0  0  0  0
 15 14  2  0  0  0  0
 16 11  2  0  0  0  0
 16 15  1  0  0  0  0
 17 18  1  0  0  0  0
 17 19  1  0  0  0  0
 20 17  1  0  0  0  0
 21 28  1  0  0  0  0
 22 35  1  0  0  0  0
 23 22  1  0  0  0  0
 24 23  2  0  0  0  0
 25 26  2  0  0  0  0
 25 24  1  0  0  0  0
 26 32  1  0  0  0  0
 27 29  2  0  0  0  0
 27 26  1  0  0  0  0
 28 27  1  0  0  0  0
 29 30  1  0  0  0  0
 30 31  2  0  0  0  0
 32 31  1  0  0  0  0
 32 22  2  0  0  0  0
 33 28  1  0  0  0  0
 34 37  1  0  0  0  0
 35 36  2  0  0  0  0
 35 34  1  0  0  0  0
 38 34  1  0  0  0  0
M  END
>  <minimizedAffinity>
-7.14612865

$$$$
