
 OpenBabel10152419473D

 38 41  0  0  0  0  0  0  0  0999 V2000
    1.9790  -11.8600  -26.4190 C   0  0  0  0  0  0  0  0  0  0  0  0
    2.7830  -12.5350  -25.4970 C   0  0  0  0  0  3  0  0  0  0  0  0
    4.1470  -12.2520  -25.4260 C   0  0  0  0  0  3  0  0  0  0  0  0
    4.7200  -11.3040  -26.2800 C   0  0  0  0  0  3  0  0  0  0  0  0
    3.9430  -10.6440  -27.2330 C   0  0  0  0  0  0  0  0  0  0  0  0
    2.5730  -10.9170  -27.2790 C   0  0  0  0  0  3  0  0  0  0  0  0
    4.4210   -9.6660  -28.1260 N   0  0  0  0  0  0  0  0  0  0  0  0
    3.9190   -8.4510  -28.5240 C   0  0  0  0  0  0  0  0  0  0  0  0
    4.3610   -7.8930  -29.5260 O   0  0  0  0  0  0  0  0  0  0  0  0
    5.2780   -9.8940  -28.6200 H   0  0  0  0  0  0  0  0  0  0  0  0
    2.9090   -7.7480  -27.7280 C   0  0  0  0  0  0  0  0  0  0  0  0
    2.7060   -8.0290  -26.3780 C   0  0  0  0  0  3  0  0  0  0  0  0
    1.7050   -7.3450  -25.6880 C   0  0  0  0  0  3  0  0  0  0  0  0
    0.9360   -6.3910  -26.3640 C   0  0  0  0  0  0  0  0  0  0  0  0
    1.1680   -6.0830  -27.6770 N   0  0  0  0  0  0  0  0  0  0  0  0
    2.1550   -6.7510  -28.3210 C   0  0  0  0  0  3  0  0  0  0  0  0
   -0.1860   -5.6670  -25.6260 C   0  0  0  0  0  0  0  0  0  0  0  0
   -0.2250   -4.3310  -25.8900 F   0  0  0  0  0  0  0  0  0  0  0  0
   -1.4260   -6.1520  -25.9260 F   0  0  0  0  0  0  0  0  0  0  0  0
   -0.0810   -5.7680  -24.2660 F   0  0  0  0  0  0  0  0  0  0  0  0
    0.4970  -12.1380  -26.5260 C   0  0  0  0  0  2  0  0  0  0  0  0
   -1.9030   -9.9140  -21.3830 C   0  0  0  0  0  0  0  0  0  0  0  0
   -1.7010  -11.0110  -20.5290 C   0  0  0  0  0  3  0  0  0  0  0  0
   -1.1420  -12.1740  -21.0300 C   0  0  0  0  0  3  0  0  0  0  0  0
   -0.7950  -12.2290  -22.3770 C   0  0  0  0  0  3  0  0  0  0  0  0
   -1.0080  -11.1250  -23.2470 C   0  0  0  0  0  0  0  0  0  0  0  0
   -0.6690  -11.1190  -24.6170 C   0  0  0  0  0  0  0  0  0  0  0  0
   -0.0520  -12.2260  -25.1880 N   0  0  0  0  0  0  0  0  0  0  0  0
   -0.8450  -10.0370  -25.3910 N   0  0  0  0  0  0  0  0  0  0  0  0
   -1.3770   -8.9610  -24.8100 C   0  0  0  0  0  3  0  0  0  0  0  0
   -1.7330   -8.8590  -23.5290 N   0  0  0  0  0  0  0  0  0  0  0  0
   -1.5660   -9.9370  -22.7440 C   0  0  0  0  0  0  0  0  0  0  0  0
   -0.4130  -13.1310  -24.9220 H   0  0  0  0  0  0  0  0  0  0  0  0
   -3.5800   -8.1900  -21.4710 N   0  0  0  0  0  0  0  0  0  0  0  0
   -2.5060   -8.7020  -20.7950 C   0  0  0  0  0  0  0  0  0  0  0  0
   -2.0470   -8.1560  -19.8030 O   0  0  0  0  0  0  0  0  0  0  0  0
   -4.0170   -7.3590  -21.0930 H   0  0  0  0  0  0  0  0  0  0  0  0
   -3.9950   -8.6360  -22.2780 H   0  0  0  0  0  0  0  0  0  0  0  0
  1  2  1  0  0  0  0
  2  3  2  0  0  0  0
  4  3  1  0  0  0  0
  5  4  2  0  0  0  0
  6  5  1  0  0  0  0
  6  1  2  0  0  0  0
  7  5  1  0  0  0  0
  8  7  1  0  0  0  0
  8 11  1  0  0  0  0
  9  8  2  0  0  0  0
 10  7  1  0  0  0  0
 11 12  1  0  0  0  0
 12 13  2  0  0  0  0
 14 13  1  0  0  0  0
 14 17  1  0  0  0  0
 15 14  2  0  0  0  0
 16 11  2  0  0  0  0
 16 15  1  0  0  0  0
 17 20  1  0  0  0  0
 18 17  1  0  0  0  0
 19 17  1  0  0  0  0
 21  1  1  0  0  0  0
 21 28  1  0  0  0  0
 22 35  1  0  0  0  0
 22 23  1  0  0  0  0
 24 23  2  0  0  0  0
 25 24  1  0  0  0  0
 26 32  1  0  0  0  0
 26 25  2  0  0  0  0
 27 26  1  0  0  0  0
 28 33  1  0  0  0  0
 28 27  1  0  0  0  0
 29 30  1  0  0  0  0
 29 27  2  0  0  0  0
 30 31  2  0  0  0  0
 31 32  1  0  0  0  0
 32 22  2  0  0  0  0
 34 37  1  0  0  0  0
 34 35  1  0  0  0  0
 35 36  2  0  0  0  0
 38 34  1  0  0  0  0
M  END
>  <minimizedAffinity>
-9.61135578

$$$$
