
 OpenBabel10152419473D

 38 41  0  0  0  0  0  0  0  0999 V2000
   -0.3210   -6.1800  -27.4410 C   0  0  0  0  0  0  0  0  0  0  0  0
   -0.1650   -4.9690  -26.7630 C   0  0  0  0  0  3  0  0  0  0  0  0
    0.9580   -4.1780  -27.0030 C   0  0  0  0  0  3  0  0  0  0  0  0
    1.9380   -4.5940  -27.9120 C   0  0  0  0  0  3  0  0  0  0  0  0
    1.8200   -5.8170  -28.5730 C   0  0  0  0  0  0  0  0  0  0  0  0
    0.6790   -6.5910  -28.3420 C   0  0  0  0  0  3  0  0  0  0  0  0
    2.7410   -6.3170  -29.5120 N   0  0  0  0  0  0  0  0  0  0  0  0
    3.6690   -7.3280  -29.4510 C   0  0  0  0  0  0  0  0  0  0  0  0
    4.5620   -7.4050  -30.2930 O   0  0  0  0  0  0  0  0  0  0  0  0
    2.7820   -5.8280  -30.4010 H   0  0  0  0  0  0  0  0  0  0  0  0
    3.5760   -8.3860  -28.4410 C   0  0  0  0  0  0  0  0  0  0  0  0
    3.2680   -8.1110  -27.1100 C   0  0  0  0  0  3  0  0  0  0  0  0
    3.2280   -9.1620  -26.1940 C   0  0  0  0  0  3  0  0  0  0  0  0
    3.4920  -10.4640  -26.6330 C   0  0  0  0  0  0  0  0  0  0  0  0
    3.7490  -10.7390  -27.9490 N   0  0  0  0  0  0  0  0  0  0  0  0
    3.7670   -9.7020  -28.8220 C   0  0  0  0  0  3  0  0  0  0  0  0
    3.4900  -11.6130  -25.6290 C   0  0  0  0  0  0  0  0  0  0  0  0
    4.7220  -12.1650  -25.4460 F   0  0  0  0  0  0  0  0  0  0  0  0
    3.0490  -11.2450  -24.3920 F   0  0  0  0  0  0  0  0  0  0  0  0
    2.6780  -12.6480  -26.0060 F   0  0  0  0  0  0  0  0  0  0  0  0
   -1.5240   -7.0660  -27.2070 C   0  0  0  0  0  2  0  0  0  0  0  0
   -1.1590  -10.1840  -21.9830 C   0  0  0  0  0  0  0  0  0  0  0  0
   -0.1080  -11.0620  -22.2990 C   0  0  0  0  0  3  0  0  0  0  0  0
    0.4500  -11.0310  -23.5650 C   0  0  0  0  0  3  0  0  0  0  0  0
   -0.0490  -10.1300  -24.5010 C   0  0  0  0  0  3  0  0  0  0  0  0
   -1.1200   -9.2480  -24.1880 C   0  0  0  0  0  0  0  0  0  0  0  0
   -1.6620   -8.3090  -25.0910 C   0  0  0  0  0  0  0  0  0  0  0  0
   -1.1230   -8.1740  -26.3650 N   0  0  0  0  0  0  0  0  0  0  0  0
   -2.6430   -7.4640  -24.7380 N   0  0  0  0  0  0  0  0  0  0  0  0
   -3.1020   -7.5620  -23.4910 C   0  0  0  0  0  3  0  0  0  0  0  0
   -2.6650   -8.4110  -22.5600 N   0  0  0  0  0  0  0  0  0  0  0  0
   -1.6860   -9.2660  -22.9020 C   0  0  0  0  0  0  0  0  0  0  0  0
   -0.8910   -9.0290  -26.8500 H   0  0  0  0  0  0  0  0  0  0  0  0
   -1.7040   -9.0950  -19.9070 N   0  0  0  0  0  0  0  0  0  0  0  0
   -1.7180  -10.2630  -20.6190 C   0  0  0  0  0  0  0  0  0  0  0  0
   -2.1160  -11.3120  -20.1340 O   0  0  0  0  0  0  0  0  0  0  0  0
   -2.0810   -9.1170  -18.9680 H   0  0  0  0  0  0  0  0  0  0  0  0
   -1.4060   -8.2110  -20.2930 H   0  0  0  0  0  0  0  0  0  0  0  0
  1 21  1  0  0  0  0
  1  2  1  0  0  0  0
  3  2  2  0  0  0  0
  4  3  1  0  0  0  0
  5  6  1  0  0  0  0
  5  4  2  0  0  0  0
  6  1  2  0  0  0  0
  7  8  1  0  0  0  0
  7  5  1  0  0  0  0
  8 11  1  0  0  0  0
  9  8  2  0  0  0  0
 10  7  1  0  0  0  0
 11 12  1  0  0  0  0
 12 13  2  0  0  0  0
 14 13  1  0  0  0  0
 14 17  1  0  0  0  0
 15 14  2  0  0  0  0
 16 11  2  0  0  0  0
 16 15  1  0  0  0  0
 17 18  1  0  0  0  0
 17 19  1  0  0  0  0
 20 17  1  0  0  0  0
 21 28  1  0  0  0  0
 22 35  1  0  0  0  0
 23 22  1  0  0  0  0
 24 23  2  0  0  0  0
 25 26  2  0  0  0  0
 25 24  1  0  0  0  0
 26 32  1  0  0  0  0
 27 29  2  0  0  0  0
 27 26  1  0  0  0  0
 28 27  1  0  0  0  0
 29 30  1  0  0  0  0
 30 31  2  0  0  0  0
 32 31  1  0  0  0  0
 32 22  2  0  0  0  0
 33 28  1  0  0  0  0
 34 37  1  0  0  0  0
 35 36  2  0  0  0  0
 35 34  1  0  0  0  0
 38 34  1  0  0  0  0
M  END
>  <minimizedAffinity>
-7.14612865

$$$$
