
 OpenBabel11232420153D

 42 47  0  0  1  0  0  0  0  0999 V2000
   -0.6820    0.8680  -22.0560 C   0  0  0  0  0  0  0  0  0  0  0  0
   -0.0410    2.0530  -21.6720 C   0  0  0  0  0  3  0  0  0  0  0  0
   -0.3690    2.6600  -20.4570 C   0  0  0  0  0  3  0  0  0  0  0  0
   -1.3570    2.0980  -19.6480 C   0  0  0  0  0  0  0  0  0  0  0  0
   -2.0050    0.9210  -20.0400 C   0  0  0  0  0  0  0  0  0  0  0  0
   -1.6760    0.3080  -21.2480 C   0  0  0  0  0  3  0  0  0  0  0  0
   -2.9920    0.3770  -19.1390 C   0  0  0  0  0  0  0  0  0  0  0  0
   -3.6090   -0.7830  -19.1650 N   0  0  0  0  0  0  0  0  0  0  0  0
   -4.4400   -0.7850  -18.0610 C   0  0  0  0  0  0  0  0  0  0  0  0
   -4.3240    0.4030  -17.3480 C   0  0  0  0  0  0  0  0  0  0  0  0
   -3.3840    1.1140  -18.0600 N   0  0  0  0  0  0  0  0  0  0  0  0
   -2.8890    2.4600  -17.8350 C   0  0  0  0  0  2  0  0  0  0  0  0
   -1.6070    2.7150  -18.4480 O   0  0  0  0  0  0  0  0  0  0  0  0
   -4.9340    0.8840  -16.1160 C   0  0  0  0  0  0  0  0  0  0  0  0
   -5.6910    0.0200  -15.3140 C   0  0  0  0  0  3  0  0  0  0  0  0
   -6.2810    0.4880  -14.1390 C   0  0  0  0  0  3  0  0  0  0  0  0
   -6.1180    1.8200  -13.7590 C   0  0  0  0  0  3  0  0  0  0  0  0
   -5.3640    2.6840  -14.5500 C   0  0  0  0  0  3  0  0  0  0  0  0
   -4.7720    2.2180  -15.7260 C   0  0  0  0  0  3  0  0  0  0  0  0
   -5.2800   -1.9370  -17.7690 C   0  0  0  0  0  0  0  0  0  0  0  0
   -5.4450   -3.0000  -18.6570 C   0  0  0  0  0  3  0  0  0  0  0  0
   -6.2320   -4.1070  -18.3060 C   0  0  0  0  0  3  0  0  0  0  0  0
   -6.8770   -4.2070  -17.0550 C   0  0  0  0  0  0  0  0  0  0  0  0
   -6.6940   -3.1200  -16.1780 C   0  0  0  0  0  3  0  0  0  0  0  0
   -5.9120   -2.0130  -16.5240 C   0  0  0  0  0  3  0  0  0  0  0  0
   -7.7080   -5.4790  -16.6400 C   0  0  1  0  0  0  0  0  0  0  0  0
   -7.0050   -6.6530  -15.8910 C   0  0  0  0  0  2  0  0  0  0  0  0
   -8.3770   -6.9270  -15.2020 C   0  0  1  0  0  0  0  0  0  0  0  0
   -8.2930   -7.4140  -13.7690 C   0  0  0  0  0  1  0  0  0  0  0  0
   -8.6670   -5.4100  -15.4090 C   0  0  0  0  0  2  0  0  0  0  0  0
   -8.4140   -5.9690  -17.8520 N   0  0  0  0  0  4  0  0  0  0  0  0
   -9.0660   -5.2730  -18.2290 H   0  0  0  0  0  0  0  0  0  0  0  0
   -7.7580   -6.2170  -18.6020 H   0  0  0  0  0  0  0  0  0  0  0  0
   -8.9590   -6.8230  -17.6220 H   0  0  0  0  0  0  0  0  0  0  0  0
   -9.2470   -7.7770  -15.9980 O   0  0  0  0  0  0  0  0  0  0  0  0
   -9.8450   -8.2230  -15.3610 H   0  0  0  0  0  0  0  0  0  0  0  0
   -0.6750   -1.1120  -23.5310 N   0  0  0  0  0  0  0  0  0  0  0  0
   -0.3770    0.2140  -23.3460 C   0  0  0  0  0  0  0  0  0  0  0  0
    0.1240    0.8740  -24.2500 O   0  0  0  0  0  0  0  0  0  0  0  0
   -0.3560   -1.4650  -24.4270 H   0  0  0  0  0  0  0  0  0  0  0  0
   -2.7160   -2.4410  -23.2690 C   0  0  0  0  0  1  0  0  0  0  0  0
   -1.3990   -2.0100  -22.6510 C   0  0  0  0  0  2  0  0  0  0  0  0
  1  2  2  0  0  0  0
  1  6  1  0  0  0  0
  2  3  1  0  0  0  0
  3  4  2  0  0  0  0
  4 13  1  0  0  0  0
  5  4  1  0  0  0  0
  5  7  1  0  0  0  0
  6  5  2  0  0  0  0
  7 11  1  0  0  0  0
  8  7  2  0  0  0  0
  8  9  1  0  0  0  0
  9 20  1  0  0  0  0
  9 10  2  0  0  0  0
 10 14  1  0  0  0  0
 11 12  1  0  0  0  0
 11 10  1  0  0  0  0
 13 12  1  0  0  0  0
 14 19  2  0  0  0  0
 14 15  1  0  0  0  0
 15 16  2  0  0  0  0
 16 17  1  0  0  0  0
 18 17  2  0  0  0  0
 19 18  1  0  0  0  0
 20 25  1  0  0  0  0
 21 22  1  0  0  0  0
 21 20  2  0  0  0  0
 22 23  2  0  0  0  0
 23 26  1  0  0  0  0
 23 24  1  0  0  0  0
 25 24  2  0  0  0  0
 26 31  1  6  0  0  0
 26 27  1  0  0  0  0
 26 30  1  0  0  0  0
 27 28  1  0  0  0  0
 28 29  1  1  0  0  0
 30 28  1  0  0  0  0
 31 34  1  0  0  0  0
 32 31  1  0  0  0  0
 33 31  1  0  0  0  0
 35 36  1  0  0  0  0
 35 28  1  0  0  0  0
 37 38  1  0  0  0  0
 37 42  1  0  0  0  0
 38  1  1  0  0  0  0
 39 38  2  0  0  0  0
 40 37  1  0  0  0  0
 41 42  1  0  0  0  0
M  END
>  <minimizedAffinity>
61.4494705

$$$$
