
 OpenBabel11232418533D

 35 39  0  0  1  0  0  0  0  0999 V2000
    9.4120   -7.0950   11.6020 O   0  0  0  0  0  0  0  0  0  0  0  0
    9.9450   -8.3310   15.0640 C   0  0  0  0  0  0  0  0  0  0  0  0
    9.6360   -7.1250   15.6890 C   0  0  0  0  0  3  0  0  0  0  0  0
    9.2250   -6.0140   15.0360 N   0  0  0  0  0  0  0  0  0  0  0  0
    9.1150   -6.0950   13.6920 C   0  0  0  0  0  3  0  0  0  0  0  0
    9.4310   -7.2300   12.9560 C   0  0  0  0  0  0  0  0  0  0  0  0
    9.8020   -8.3660   13.6670 C   0  0  0  0  0  3  0  0  0  0  0  0
    9.7160  -14.1440   15.4640 C   0  0  0  0  0  1  0  0  0  0  0  0
   10.5320  -13.2430   16.3150 C   0  0  0  0  0  0  0  0  0  0  0  0
   11.3160  -13.7550   17.2720 N   0  0  0  0  0  0  0  0  0  0  0  0
   11.9030  -12.6830   17.8240 N   0  0  0  0  0  0  0  0  0  0  0  0
   11.5320  -11.4940   17.2590 C   0  0  0  0  0  0  0  0  0  0  0  0
   11.9010  -10.1860   17.5220 C   0  0  0  0  0  3  0  0  0  0  0  0
   11.3570   -9.1900   16.7770 N   0  0  0  0  0  0  0  0  0  0  0  0
   10.4620   -9.4980   15.7900 C   0  0  0  0  0  0  0  0  0  0  0  0
   10.0630  -10.8020   15.4910 C   0  0  0  0  0  3  0  0  0  0  0  0
   10.6260  -11.8270   16.2600 C   0  0  0  0  0  0  0  0  0  0  0  0
   12.5540  -12.8380   18.5860 H   0  0  0  0  0  0  0  0  0  0  0  0
    8.5030   -7.8830   10.8240 C   0  0  0  0  0  2  0  0  0  0  0  0
    7.7170   -7.0030    9.8240 C   0  0  1  0  0  3  0  0  0  0  0  0
    7.1210   -7.8520    8.7280 N   0  0  0  0  0  4  0  0  0  0  0  0
    6.5060   -8.6010    9.0790 H   0  0  0  0  0  0  0  0  0  0  0  0
    6.5800   -7.2920    8.0560 H   0  0  0  0  0  0  0  0  0  0  0  0
    7.8650   -8.3150    8.1860 H   0  0  0  0  0  0  0  0  0  0  0  0
    6.5810   -6.2140   10.4900 C   0  0  0  0  0  2  0  0  0  0  0  0
    6.6990   -4.7260   10.3840 C   0  0  0  0  0  0  0  0  0  0  0  0
    7.0940   -3.8340   11.3640 C   0  0  0  0  0  3  0  0  0  0  0  0
    7.0800   -2.5700   10.8310 N   0  0  0  0  0  0  0  0  0  0  0  0
    6.7100   -2.6180    9.5100 C   0  0  0  0  0  0  0  0  0  0  0  0
    6.5860   -1.5820    8.5760 C   0  0  0  0  0  3  0  0  0  0  0  0
    6.2050   -1.9240    7.2750 C   0  0  0  0  0  3  0  0  0  0  0  0
    5.9570   -3.2480    6.9280 C   0  0  0  0  0  3  0  0  0  0  0  0
    6.0830   -4.2710    7.8760 C   0  0  0  0  0  3  0  0  0  0  0  0
    6.4660   -3.9540    9.1960 C   0  0  0  0  0  0  0  0  0  0  0  0
    7.3280   -1.7190   11.3220 H   0  0  0  0  0  0  0  0  0  0  0  0
  1  6  1  0  0  0  0
  2  3  1  0  0  0  0
  2 15  1  0  0  0  0
  4  3  2  0  0  0  0
  5  4  1  0  0  0  0
  6  7  1  0  0  0  0
  6  5  2  0  0  0  0
  7  2  2  0  0  0  0
  8  9  1  0  0  0  0
  9 10  2  0  0  0  0
 10 11  1  0  0  0  0
 11 18  1  0  0  0  0
 12 13  1  0  0  0  0
 12 11  1  0  0  0  0
 14 13  2  0  0  0  0
 15 14  1  0  0  0  0
 16 15  2  0  0  0  0
 16 17  1  0  0  0  0
 17  9  1  0  0  0  0
 17 12  2  0  0  0  0
 19  1  1  0  0  0  0
 20 25  1  1  0  0  0
 20 19  1  0  0  0  0
 21 22  1  0  0  0  0
 21 20  1  0  0  0  0
 23 21  1  0  0  0  0
 24 21  1  0  0  0  0
 26 25  1  0  0  0  0
 26 27  2  0  0  0  0
 28 35  1  0  0  0  0
 28 27  1  0  0  0  0
 29 28  1  0  0  0  0
 30 29  2  0  0  0  0
 31 30  1  0  0  0  0
 32 31  2  0  0  0  0
 32 33  1  0  0  0  0
 33 34  2  0  0  0  0
 34 29  1  0  0  0  0
 34 26  1  0  0  0  0
M  END
>  <minimizedAffinity>
-10.3879471

$$$$
