
 OpenBabel11232418533D

 35 39  0  0  1  0  0  0  0  0999 V2000
    8.0470   -7.0840    8.8550 O   0  0  0  0  0  0  0  0  0  0  0  0
    8.0900   -8.0760   12.4350 C   0  0  0  0  0  0  0  0  0  0  0  0
    6.8310   -8.6700   12.4280 C   0  0  0  0  0  3  0  0  0  0  0  0
    6.0550   -8.7940   11.3270 N   0  0  0  0  0  0  0  0  0  0  0  0
    6.5470   -8.3030   10.1690 C   0  0  0  0  0  3  0  0  0  0  0  0
    7.7710   -7.6560   10.0600 C   0  0  0  0  0  0  0  0  0  0  0  0
    8.5610   -7.5920   11.2020 C   0  0  0  0  0  3  0  0  0  0  0  0
   11.4350  -10.7700   16.3800 C   0  0  0  0  0  1  0  0  0  0  0  0
   11.0710   -9.3310   16.3820 C   0  0  0  0  0  0  0  0  0  0  0  0
   11.5320   -8.5250   17.3460 N   0  0  0  0  0  0  0  0  0  0  0  0
   11.0280   -7.3220   17.0390 N   0  0  0  0  0  0  0  0  0  0  0  0
   10.2590   -7.3150   15.9070 C   0  0  0  0  0  0  0  0  0  0  0  0
    9.5760   -6.3020   15.2550 C   0  0  0  0  0  3  0  0  0  0  0  0
    8.8860   -6.6010   14.1250 N   0  0  0  0  0  0  0  0  0  0  0  0
    8.8780   -7.8870   13.6600 C   0  0  0  0  0  0  0  0  0  0  0  0
    9.5530   -8.9370   14.2850 C   0  0  0  0  0  3  0  0  0  0  0  0
   10.2650   -8.6260   15.4490 C   0  0  0  0  0  0  0  0  0  0  0  0
   11.2550   -6.5430   17.6470 H   0  0  0  0  0  0  0  0  0  0  0  0
    7.0130   -6.9760    7.8690 C   0  0  0  0  0  2  0  0  0  0  0  0
    7.0900   -5.6210    7.1270 C   0  0  1  0  0  3  0  0  0  0  0  0
    7.1340   -5.8380    5.6340 N   0  0  0  0  0  4  0  0  0  0  0  0
    6.3330   -6.3780    5.2750 H   0  0  0  0  0  0  0  0  0  0  0  0
    7.1720   -4.9510    5.1150 H   0  0  0  0  0  0  0  0  0  0  0  0
    7.9820   -6.3620    5.3720 H   0  0  0  0  0  0  0  0  0  0  0  0
    5.9020   -4.7010    7.4430 C   0  0  0  0  0  2  0  0  0  0  0  0
    6.2600   -3.4180    8.1250 C   0  0  0  0  0  0  0  0  0  0  0  0
    6.2590   -2.1430    7.5890 C   0  0  0  0  0  3  0  0  0  0  0  0
    6.6320   -1.2600    8.5710 N   0  0  0  0  0  0  0  0  0  0  0  0
    6.8500   -1.9280    9.7500 C   0  0  0  0  0  0  0  0  0  0  0  0
    7.2180   -1.4320   11.0070 C   0  0  0  0  0  3  0  0  0  0  0  0
    7.3530   -2.3500   12.0520 C   0  0  0  0  0  3  0  0  0  0  0  0
    7.1310   -3.7070   11.8450 C   0  0  0  0  0  3  0  0  0  0  0  0
    6.7680   -4.1870   10.5810 C   0  0  0  0  0  3  0  0  0  0  0  0
    6.6240   -3.2820    9.5070 C   0  0  0  0  0  0  0  0  0  0  0  0
    6.7150   -0.2560    8.4620 H   0  0  0  0  0  0  0  0  0  0  0  0
  1  6  1  0  0  0  0
  2 15  1  0  0  0  0
  3  2  1  0  0  0  0
  4  3  2  0  0  0  0
  5  4  1  0  0  0  0
  6  5  2  0  0  0  0
  6  7  1  0  0  0  0
  7  2  2  0  0  0  0
  8  9  1  0  0  0  0
  9 10  2  0  0  0  0
 11 10  1  0  0  0  0
 11 18  1  0  0  0  0
 12 11  1  0  0  0  0
 13 12  2  0  0  0  0
 14 13  1  0  0  0  0
 15 14  2  0  0  0  0
 15 16  1  0  0  0  0
 16 17  2  0  0  0  0
 17 12  1  0  0  0  0
 17  9  1  0  0  0  0
 19  1  1  0  0  0  0
 20 25  1  6  0  0  0
 20 19  1  0  0  0  0
 21 20  1  0  0  0  0
 22 21  1  0  0  0  0
 23 21  1  0  0  0  0
 24 21  1  0  0  0  0
 25 26  1  0  0  0  0
 26 34  1  0  0  0  0
 27 26  2  0  0  0  0
 27 28  1  0  0  0  0
 28 29  1  0  0  0  0
 29 30  1  0  0  0  0
 30 31  2  0  0  0  0
 32 31  1  0  0  0  0
 33 32  2  0  0  0  0
 34 29  2  0  0  0  0
 34 33  1  0  0  0  0
 35 28  1  0  0  0  0
M  END
>  <minimizedAffinity>
-10.6028852

$$$$
