
 OpenBabel11232418533D

 35 39  0  0  1  0  0  0  0  0999 V2000
    6.3870   -9.3130   12.2810 O   0  0  0  0  0  0  0  0  0  0  0  0
    7.0290   -5.9040   10.9520 C   0  0  0  0  0  0  0  0  0  0  0  0
    7.1500   -6.2970    9.6220 C   0  0  0  0  0  3  0  0  0  0  0  0
    6.9720   -7.5640    9.1830 N   0  0  0  0  0  0  0  0  0  0  0  0
    6.6620   -8.4980   10.1090 C   0  0  0  0  0  3  0  0  0  0  0  0
    6.5520   -8.2340   11.4680 C   0  0  0  0  0  0  0  0  0  0  0  0
    6.6920   -6.9110   11.8730 C   0  0  0  0  0  3  0  0  0  0  0  0
    6.6310   -0.2640    9.5270 C   0  0  0  0  0  1  0  0  0  0  0  0
    7.1970   -0.8070   10.7870 C   0  0  0  0  0  0  0  0  0  0  0  0
    7.6640    0.0260   11.7250 N   0  0  0  0  0  0  0  0  0  0  0  0
    8.0790   -0.7860   12.7080 N   0  0  0  0  0  0  0  0  0  0  0  0
    7.8950   -2.1150   12.4450 C   0  0  0  0  0  0  0  0  0  0  0  0
    8.1730   -3.2540   13.1820 C   0  0  0  0  0  3  0  0  0  0  0  0
    7.8690   -4.4660   12.6520 N   0  0  0  0  0  0  0  0  0  0  0  0
    7.3010   -4.5360   11.4100 C   0  0  0  0  0  0  0  0  0  0  0  0
    7.0030   -3.4140   10.6350 C   0  0  0  0  0  3  0  0  0  0  0  0
    7.3160   -2.1660   11.1840 C   0  0  0  0  0  0  0  0  0  0  0  0
    8.4770   -0.3600   13.5390 H   0  0  0  0  0  0  0  0  0  0  0  0
    6.9360   -9.2950   13.6040 C   0  0  0  0  0  2  0  0  0  0  0  0
    8.0460  -10.3610   13.7620 C   0  0  1  0  0  3  0  0  0  0  0  0
    7.7120  -11.5950   12.9580 N   0  0  0  0  0  4  0  0  0  0  0  0
    7.5630  -11.4030   11.9560 H   0  0  0  0  0  0  0  0  0  0  0  0
    8.4410  -12.3160   13.0350 H   0  0  0  0  0  0  0  0  0  0  0  0
    6.8420  -12.0250   13.3060 H   0  0  0  0  0  0  0  0  0  0  0  0
    9.4250   -9.8570   13.3130 C   0  0  0  0  0  2  0  0  0  0  0  0
    9.8190   -8.5230   13.8640 C   0  0  0  0  0  0  0  0  0  0  0  0
    9.7710   -7.2950   13.2290 C   0  0  0  0  0  3  0  0  0  0  0  0
   10.2050   -6.3340   14.1080 N   0  0  0  0  0  0  0  0  0  0  0  0
   10.5090   -6.9050   15.3190 C   0  0  0  0  0  0  0  0  0  0  0  0
   10.9590   -6.3090   16.5030 C   0  0  0  0  0  3  0  0  0  0  0  0
   11.1740   -7.1390   17.6060 C   0  0  0  0  0  3  0  0  0  0  0  0
   10.9490   -8.5090   17.5240 C   0  0  0  0  0  3  0  0  0  0  0  0
   10.5020   -9.0900   16.3310 C   0  0  0  0  0  3  0  0  0  0  0  0
   10.2770   -8.2750   15.2020 C   0  0  0  0  0  0  0  0  0  0  0  0
   10.2720   -5.3430   13.9130 H   0  0  0  0  0  0  0  0  0  0  0  0
  1 19  1  0  0  0  0
  2 15  1  0  0  0  0
  2  7  1  0  0  0  0
  3  2  2  0  0  0  0
  4  3  1  0  0  0  0
  4  5  2  0  0  0  0
  5  6  1  0  0  0  0
  6  7  2  0  0  0  0
  6  1  1  0  0  0  0
  8  9  1  0  0  0  0
  9 17  1  0  0  0  0
  9 10  2  0  0  0  0
 10 11  1  0  0  0  0
 11 18  1  0  0  0  0
 12 11  1  0  0  0  0
 12 13  1  0  0  0  0
 14 13  2  0  0  0  0
 15 14  1  0  0  0  0
 16 17  1  0  0  0  0
 16 15  2  0  0  0  0
 17 12  2  0  0  0  0
 20 19  1  6  0  0  0
 20 25  1  0  0  0  0
 21 23  1  0  0  0  0
 21 24  1  0  0  0  0
 21 20  1  0  0  0  0
 22 21  1  0  0  0  0
 25 26  1  0  0  0  0
 26 34  1  0  0  0  0
 27 26  2  0  0  0  0
 27 28  1  0  0  0  0
 28 29  1  0  0  0  0
 29 30  1  0  0  0  0
 30 31  2  0  0  0  0
 32 31  1  0  0  0  0
 33 32  2  0  0  0  0
 34 29  2  0  0  0  0
 34 33  1  0  0  0  0
 35 28  1  0  0  0  0
M  END
>  <minimizedAffinity>
-10.6096907

$$$$
