
 OpenBabel10152419293D

 38 42  0  0  0  0  0  0  0  0999 V2000
    9.7350  -12.3020   13.8770 C   0  0  0  0  0  0  0  0  0  0  0  0
   10.7840  -13.2240   13.9130 C   0  0  0  0  0  3  0  0  0  0  0  0
   10.5120  -14.5890   13.9250 C   0  0  0  0  0  3  0  0  0  0  0  0
    9.1900  -15.0510   13.9140 C   0  0  0  0  0  3  0  0  0  0  0  0
    8.1250  -14.1530   13.9250 C   0  0  0  0  0  0  0  0  0  0  0  0
    8.4120  -12.7780   13.9010 C   0  0  0  0  0  3  0  0  0  0  0  0
    6.7610  -14.5010   13.9040 N   0  0  0  0  0  0  0  0  0  0  0  0
    5.7130  -14.2130   13.0640 C   0  0  0  0  0  0  0  0  0  0  0  0
    4.5670  -14.5110   13.3990 O   0  0  0  0  0  0  0  0  0  0  0  0
    6.4280  -15.0440   14.6930 H   0  0  0  0  0  0  0  0  0  0  0  0
    5.9020  -13.5920   11.7460 C   0  0  0  0  0  0  0  0  0  0  0  0
    7.1180  -13.7920   11.0900 C   0  0  0  0  0  3  0  0  0  0  0  0
    7.3540  -13.1960    9.8470 C   0  0  0  0  0  3  0  0  0  0  0  0
    6.3590  -12.3750    9.2790 C   0  0  0  0  0  0  0  0  0  0  0  0
    6.2690  -11.6330    8.0690 C   0  0  0  0  0  3  0  0  0  0  0  0
    5.0480  -11.0000    8.0540 C   0  0  0  0  0  3  0  0  0  0  0  0
    4.3920  -11.3260    9.2120 N   0  0  0  0  0  0  0  0  0  0  0  0
    5.1670  -12.1690    9.9750 C   0  0  0  0  0  0  0  0  0  0  0  0
    4.9060  -12.7570   11.2200 C   0  0  0  0  0  3  0  0  0  0  0  0
    3.4710  -10.9990    9.4710 H   0  0  0  0  0  0  0  0  0  0  0  0
   10.0180  -10.8210   13.8180 C   0  0  0  0  0  2  0  0  0  0  0  0
    6.9380   -8.9940    8.8820 C   0  0  0  0  0  0  0  0  0  0  0  0
    5.6960   -8.7130    9.4700 C   0  0  0  0  0  3  0  0  0  0  0  0
    5.5470   -8.8450   10.8400 C   0  0  0  0  0  3  0  0  0  0  0  0
    6.6370   -9.2570   11.6020 C   0  0  0  0  0  3  0  0  0  0  0  0
    7.8990   -9.5330   11.0060 C   0  0  0  0  0  0  0  0  0  0  0  0
    9.0380   -9.9560   11.7240 C   0  0  0  0  0  0  0  0  0  0  0  0
    8.9650  -10.1310   13.1030 N   0  0  0  0  0  0  0  0  0  0  0  0
   10.1970  -10.2450   11.1110 N   0  0  0  0  0  0  0  0  0  0  0  0
   10.2390  -10.0780    9.7880 C   0  0  0  0  0  3  0  0  0  0  0  0
    9.2350   -9.6540    9.0180 N   0  0  0  0  0  0  0  0  0  0  0  0
    8.0570   -9.4040    9.6160 C   0  0  0  0  0  0  0  0  0  0  0  0
    8.5030   -9.3890   13.6110 H   0  0  0  0  0  0  0  0  0  0  0  0
    8.2890   -8.8250    6.9030 N   0  0  0  0  0  0  0  0  0  0  0  0
    7.0230   -8.8790    7.4160 C   0  0  0  0  0  0  0  0  0  0  0  0
    6.0270   -8.7660    6.7170 O   0  0  0  0  0  0  0  0  0  0  0  0
    8.3810   -8.7370    5.9010 H   0  0  0  0  0  0  0  0  0  0  0  0
    9.1220   -8.9260    7.4660 H   0  0  0  0  0  0  0  0  0  0  0  0
  1  6  2  0  0  0  0
  1  2  1  0  0  0  0
  2  3  2  0  0  0  0
  4  3  1  0  0  0  0
  4  5  2  0  0  0  0
  6  5  1  0  0  0  0
  7  5  1  0  0  0  0
  7 10  1  0  0  0  0
  8  9  2  0  0  0  0
  8  7  1  0  0  0  0
 11  8  1  0  0  0  0
 12 11  2  0  0  0  0
 13 12  1  0  0  0  0
 14 13  2  0  0  0  0
 14 18  1  0  0  0  0
 15 14  1  0  0  0  0
 16 15  2  0  0  0  0
 16 17  1  0  0  0  0
 17 20  1  0  0  0  0
 17 18  1  0  0  0  0
 18 19  2  0  0  0  0
 19 11  1  0  0  0  0
 21  1  1  0  0  0  0
 22 23  2  0  0  0  0
 22 32  1  0  0  0  0
 23 24  1  0  0  0  0
 24 25  2  0  0  0  0
 26 25  1  0  0  0  0
 26 27  1  0  0  0  0
 27 28  1  0  0  0  0
 28 33  1  0  0  0  0
 28 21  1  0  0  0  0
 29 27  2  0  0  0  0
 30 29  1  0  0  0  0
 31 32  1  0  0  0  0
 31 30  2  0  0  0  0
 32 26  2  0  0  0  0
 34 35  1  0  0  0  0
 34 38  1  0  0  0  0
 35 22  1  0  0  0  0
 36 35  2  0  0  0  0
 37 34  1  0  0  0  0
M  END
>  <minimizedAffinity>
18.9353752

$$$$

 OpenBabel10152419293D

 38 42  0  0  0  0  0  0  0  0999 V2000
    8.0400  -14.0350   13.2630 C   0  0  0  0  0  0  0  0  0  0  0  0
    8.9160  -15.0210   12.8040 C   0  0  0  0  0  3  0  0  0  0  0  0
   10.2820  -14.7610   12.7310 C   0  0  0  0  0  3  0  0  0  0  0  0
   10.7880  -13.5100   13.1040 C   0  0  0  0  0  3  0  0  0  0  0  0
    9.9310  -12.4930   13.5210 C   0  0  0  0  0  0  0  0  0  0  0  0
    8.5570  -12.7720   13.6020 C   0  0  0  0  0  3  0  0  0  0  0  0
   10.3270  -11.2050   13.9290 N   0  0  0  0  0  0  0  0  0  0  0  0
   10.1590   -9.9440   13.4110 C   0  0  0  0  0  0  0  0  0  0  0  0
   10.7840   -9.0010   13.8960 O   0  0  0  0  0  0  0  0  0  0  0  0
   10.9090  -11.1610   14.7580 H   0  0  0  0  0  0  0  0  0  0  0  0
    9.2240   -9.6550   12.3160 C   0  0  0  0  0  0  0  0  0  0  0  0
    7.8550   -9.7360   12.5780 C   0  0  0  0  0  3  0  0  0  0  0  0
    6.9280   -9.4980   11.5580 C   0  0  0  0  0  3  0  0  0  0  0  0
    7.3930   -9.2010   10.2610 C   0  0  0  0  0  0  0  0  0  0  0  0
    6.7490   -8.9180    9.0260 C   0  0  0  0  0  3  0  0  0  0  0  0
    7.7270   -8.7170    8.0780 C   0  0  0  0  0  3  0  0  0  0  0  0
    8.9420   -8.8700    8.6910 N   0  0  0  0  0  0  0  0  0  0  0  0
    8.7690   -9.1600   10.0250 C   0  0  0  0  0  0  0  0  0  0  0  0
    9.7170   -9.3920   11.0300 C   0  0  0  0  0  3  0  0  0  0  0  0
    9.8390   -8.7810    8.2330 H   0  0  0  0  0  0  0  0  0  0  0  0
    6.5630  -14.3200   13.3880 C   0  0  0  0  0  2  0  0  0  0  0  0
    5.0280  -10.8550    8.6110 C   0  0  0  0  0  0  0  0  0  0  0  0
    3.7040  -10.5490    8.9580 C   0  0  0  0  0  3  0  0  0  0  0  0
    3.1940  -11.0020   10.1630 C   0  0  0  0  0  3  0  0  0  0  0  0
    4.0120  -11.7540   11.0020 C   0  0  0  0  0  3  0  0  0  0  0  0
    5.3580  -12.0550   10.6550 C   0  0  0  0  0  0  0  0  0  0  0  0
    6.2330  -12.8140   11.4620 C   0  0  0  0  0  0  0  0  0  0  0  0
    5.7910  -13.3210   12.6790 N   0  0  0  0  0  0  0  0  0  0  0  0
    7.4830  -13.1080   11.0700 N   0  0  0  0  0  0  0  0  0  0  0  0
    7.8800  -12.6170    9.8950 C   0  0  0  0  0  3  0  0  0  0  0  0
    7.1490  -11.8650    9.0710 N   0  0  0  0  0  0  0  0  0  0  0  0
    5.8800  -11.6020    9.4320 C   0  0  0  0  0  0  0  0  0  0  0  0
    5.2760  -12.6720   13.2600 H   0  0  0  0  0  0  0  0  0  0  0  0
    4.9240   -9.2290    6.8460 N   0  0  0  0  0  0  0  0  0  0  0  0
    5.4990  -10.3840    7.2980 C   0  0  0  0  0  0  0  0  0  0  0  0
    6.2970  -11.0240    6.6290 O   0  0  0  0  0  0  0  0  0  0  0  0
    5.2200   -8.8840    5.9440 H   0  0  0  0  0  0  0  0  0  0  0  0
    4.2710   -8.6840    7.3900 H   0  0  0  0  0  0  0  0  0  0  0  0
  1 21  1  0  0  0  0
  1  6  1  0  0  0  0
  2  1  2  0  0  0  0
  3  2  1  0  0  0  0
  3  4  2  0  0  0  0
  4  5  1  0  0  0  0
  5  6  2  0  0  0  0
  5  7  1  0  0  0  0
  7 10  1  0  0  0  0
  8  9  2  0  0  0  0
  8  7  1  0  0  0  0
 11 12  1  0  0  0  0
 11  8  1  0  0  0  0
 13 12  2  0  0  0  0
 14 13  1  0  0  0  0
 15 14  1  0  0  0  0
 16 17  1  0  0  0  0
 16 15  2  0  0  0  0
 17 18  1  0  0  0  0
 18 14  2  0  0  0  0
 18 19  1  0  0  0  0
 19 11  2  0  0  0  0
 20 17  1  0  0  0  0
 22 23  2  0  0  0  0
 22 32  1  0  0  0  0
 23 24  1  0  0  0  0
 24 25  2  0  0  0  0
 26 25  1  0  0  0  0
 26 27  1  0  0  0  0
 27 28  1  0  0  0  0
 28 33  1  0  0  0  0
 28 21  1  0  0  0  0
 29 27  2  0  0  0  0
 30 29  1  0  0  0  0
 31 32  1  0  0  0  0
 31 30  2  0  0  0  0
 32 26  2  0  0  0  0
 34 35  1  0  0  0  0
 34 38  1  0  0  0  0
 35 22  1  0  0  0  0
 36 35  2  0  0  0  0
 37 34  1  0  0  0  0
M  END
>  <minimizedAffinity>
19.9648247

$$$$

 OpenBabel10152419293D

 38 42  0  0  0  0  0  0  0  0999 V2000
    7.9080  -13.9590   13.1960 C   0  0  0  0  0  0  0  0  0  0  0  0
    8.7020  -15.0850   12.9620 C   0  0  0  0  0  3  0  0  0  0  0  0
   10.0890  -14.9820   13.0130 C   0  0  0  0  0  3  0  0  0  0  0  0
   10.7010  -13.7530   13.2850 C   0  0  0  0  0  3  0  0  0  0  0  0
    9.9350  -12.6050   13.4750 C   0  0  0  0  0  0  0  0  0  0  0  0
    8.5360  -12.7240   13.4330 C   0  0  0  0  0  3  0  0  0  0  0  0
   10.4390  -11.3230   13.7640 N   0  0  0  0  0  0  0  0  0  0  0  0
   10.0010  -10.0440   13.5180 C   0  0  0  0  0  0  0  0  0  0  0  0
   10.7530   -9.0940   13.7300 O   0  0  0  0  0  0  0  0  0  0  0  0
   11.3500  -11.2930   14.2080 H   0  0  0  0  0  0  0  0  0  0  0  0
    8.6420   -9.7500   13.0440 C   0  0  0  0  0  0  0  0  0  0  0  0
    8.4970   -9.1230   11.8050 C   0  0  0  0  0  3  0  0  0  0  0  0
    7.2230   -8.7960   11.3270 C   0  0  0  0  0  3  0  0  0  0  0  0
    6.0950   -9.0870   12.1210 C   0  0  0  0  0  0  0  0  0  0  0  0
    4.6970   -8.8940   11.9500 C   0  0  0  0  0  3  0  0  0  0  0  0
    4.0670   -9.3670   13.0790 C   0  0  0  0  0  3  0  0  0  0  0  0
    5.0310   -9.8380   13.9310 N   0  0  0  0  0  0  0  0  0  0  0  0
    6.2780   -9.6850   13.3690 C   0  0  0  0  0  0  0  0  0  0  0  0
    7.5420  -10.0240   13.8690 C   0  0  0  0  0  3  0  0  0  0  0  0
    4.8550  -10.2430   14.8410 H   0  0  0  0  0  0  0  0  0  0  0  0
    6.4020  -14.0680   13.1880 C   0  0  0  0  0  2  0  0  0  0  0  0
    6.2170  -10.4470    8.2850 C   0  0  0  0  0  0  0  0  0  0  0  0
    4.8330  -10.2320    8.2030 C   0  0  0  0  0  3  0  0  0  0  0  0
    4.0020  -10.7740    9.1680 C   0  0  0  0  0  3  0  0  0  0  0  0
    4.5640  -11.5230   10.1990 C   0  0  0  0  0  3  0  0  0  0  0  0
    5.9680  -11.7320   10.2880 C   0  0  0  0  0  0  0  0  0  0  0  0
    6.5940  -12.4830   11.3060 C   0  0  0  0  0  0  0  0  0  0  0  0
    5.8270  -13.0760   12.3030 N   0  0  0  0  0  0  0  0  0  0  0  0
    7.9210  -12.6880   11.3220 N   0  0  0  0  0  0  0  0  0  0  0  0
    8.6330  -12.1160   10.3500 C   0  0  0  0  0  3  0  0  0  0  0  0
    8.1490  -11.3620    9.3610 N   0  0  0  0  0  0  0  0  0  0  0  0
    6.8170  -11.1880    9.3090 C   0  0  0  0  0  0  0  0  0  0  0  0
    5.1130  -12.4880   12.7110 H   0  0  0  0  0  0  0  0  0  0  0  0
    8.2770   -9.4300    7.5840 N   0  0  0  0  0  0  0  0  0  0  0  0
    7.0440   -9.8830    7.2050 C   0  0  0  0  0  0  0  0  0  0  0  0
    6.6250   -9.7640    6.0630 O   0  0  0  0  0  0  0  0  0  0  0  0
    8.8660   -9.0290    6.8670 H   0  0  0  0  0  0  0  0  0  0  0  0
    8.6420   -9.5290    8.5210 H   0  0  0  0  0  0  0  0  0  0  0  0
  1  6  1  0  0  0  0
  2  3  1  0  0  0  0
  2  1  2  0  0  0  0
  3  4  2  0  0  0  0
  4  5  1  0  0  0  0
  5  7  1  0  0  0  0
  6  5  2  0  0  0  0
  7 10  1  0  0  0  0
  8  9  2  0  0  0  0
  8  7  1  0  0  0  0
 11  8  1  0  0  0  0
 11 19  1  0  0  0  0
 12 11  2  0  0  0  0
 13 12  1  0  0  0  0
 13 14  2  0  0  0  0
 14 18  1  0  0  0  0
 15 14  1  0  0  0  0
 15 16  2  0  0  0  0
 16 17  1  0  0  0  0
 17 20  1  0  0  0  0
 18 19  2  0  0  0  0
 18 17  1  0  0  0  0
 21  1  1  0  0  0  0
 22 32  1  0  0  0  0
 23 22  2  0  0  0  0
 23 24  1  0  0  0  0
 24 25  2  0  0  0  0
 25 26  1  0  0  0  0
 26 27  1  0  0  0  0
 27 29  2  0  0  0  0
 27 28  1  0  0  0  0
 28 33  1  0  0  0  0
 28 21  1  0  0  0  0
 30 29  1  0  0  0  0
 31 30  2  0  0  0  0
 32 31  1  0  0  0  0
 32 26  2  0  0  0  0
 34 38  1  0  0  0  0
 35 34  1  0  0  0  0
 35 22  1  0  0  0  0
 36 35  2  0  0  0  0
 37 34  1  0  0  0  0
M  END
>  <minimizedAffinity>
21.7638664

$$$$
