
 OpenBabel10152419293D

 38 42  0  0  0  0  0  0  0  0999 V2000
    9.7350  -12.3020   13.8770 C   0  0  0  0  0  0  0  0  0  0  0  0
   10.7840  -13.2240   13.9130 C   0  0  0  0  0  3  0  0  0  0  0  0
   10.5120  -14.5890   13.9250 C   0  0  0  0  0  3  0  0  0  0  0  0
    9.1900  -15.0510   13.9140 C   0  0  0  0  0  3  0  0  0  0  0  0
    8.1250  -14.1530   13.9250 C   0  0  0  0  0  0  0  0  0  0  0  0
    8.4120  -12.7780   13.9010 C   0  0  0  0  0  3  0  0  0  0  0  0
    6.7610  -14.5010   13.9040 N   0  0  0  0  0  0  0  0  0  0  0  0
    5.7130  -14.2130   13.0640 C   0  0  0  0  0  0  0  0  0  0  0  0
    4.5670  -14.5110   13.3990 O   0  0  0  0  0  0  0  0  0  0  0  0
    6.4280  -15.0440   14.6930 H   0  0  0  0  0  0  0  0  0  0  0  0
    5.9020  -13.5920   11.7460 C   0  0  0  0  0  0  0  0  0  0  0  0
    7.1180  -13.7920   11.0900 C   0  0  0  0  0  3  0  0  0  0  0  0
    7.3540  -13.1960    9.8470 C   0  0  0  0  0  3  0  0  0  0  0  0
    6.3590  -12.3750    9.2790 C   0  0  0  0  0  0  0  0  0  0  0  0
    6.2690  -11.6330    8.0690 C   0  0  0  0  0  3  0  0  0  0  0  0
    5.0480  -11.0000    8.0540 C   0  0  0  0  0  3  0  0  0  0  0  0
    4.3920  -11.3260    9.2120 N   0  0  0  0  0  0  0  0  0  0  0  0
    5.1670  -12.1690    9.9750 C   0  0  0  0  0  0  0  0  0  0  0  0
    4.9060  -12.7570   11.2200 C   0  0  0  0  0  3  0  0  0  0  0  0
    3.4710  -10.9990    9.4710 H   0  0  0  0  0  0  0  0  0  0  0  0
   10.0180  -10.8210   13.8180 C   0  0  0  0  0  2  0  0  0  0  0  0
    6.9380   -8.9940    8.8820 C   0  0  0  0  0  0  0  0  0  0  0  0
    5.6960   -8.7130    9.4700 C   0  0  0  0  0  3  0  0  0  0  0  0
    5.5470   -8.8450   10.8400 C   0  0  0  0  0  3  0  0  0  0  0  0
    6.6370   -9.2570   11.6020 C   0  0  0  0  0  3  0  0  0  0  0  0
    7.8990   -9.5330   11.0060 C   0  0  0  0  0  0  0  0  0  0  0  0
    9.0380   -9.9560   11.7240 C   0  0  0  0  0  0  0  0  0  0  0  0
    8.9650  -10.1310   13.1030 N   0  0  0  0  0  0  0  0  0  0  0  0
   10.1970  -10.2450   11.1110 N   0  0  0  0  0  0  0  0  0  0  0  0
   10.2390  -10.0780    9.7880 C   0  0  0  0  0  3  0  0  0  0  0  0
    9.2350   -9.6540    9.0180 N   0  0  0  0  0  0  0  0  0  0  0  0
    8.0570   -9.4040    9.6160 C   0  0  0  0  0  0  0  0  0  0  0  0
    8.5030   -9.3890   13.6110 H   0  0  0  0  0  0  0  0  0  0  0  0
    8.2890   -8.8250    6.9030 N   0  0  0  0  0  0  0  0  0  0  0  0
    7.0230   -8.8790    7.4160 C   0  0  0  0  0  0  0  0  0  0  0  0
    6.0270   -8.7660    6.7170 O   0  0  0  0  0  0  0  0  0  0  0  0
    8.3810   -8.7370    5.9010 H   0  0  0  0  0  0  0  0  0  0  0  0
    9.1220   -8.9260    7.4660 H   0  0  0  0  0  0  0  0  0  0  0  0
  1  6  2  0  0  0  0
  1  2  1  0  0  0  0
  2  3  2  0  0  0  0
  4  3  1  0  0  0  0
  4  5  2  0  0  0  0
  6  5  1  0  0  0  0
  7  5  1  0  0  0  0
  7 10  1  0  0  0  0
  8  9  2  0  0  0  0
  8  7  1  0  0  0  0
 11  8  1  0  0  0  0
 12 11  2  0  0  0  0
 13 12  1  0  0  0  0
 14 13  2  0  0  0  0
 14 18  1  0  0  0  0
 15 14  1  0  0  0  0
 16 15  2  0  0  0  0
 16 17  1  0  0  0  0
 17 20  1  0  0  0  0
 17 18  1  0  0  0  0
 18 19  2  0  0  0  0
 19 11  1  0  0  0  0
 21  1  1  0  0  0  0
 22 23  2  0  0  0  0
 22 32  1  0  0  0  0
 23 24  1  0  0  0  0
 24 25  2  0  0  0  0
 26 25  1  0  0  0  0
 26 27  1  0  0  0  0
 27 28  1  0  0  0  0
 28 33  1  0  0  0  0
 28 21  1  0  0  0  0
 29 27  2  0  0  0  0
 30 29  1  0  0  0  0
 31 32  1  0  0  0  0
 31 30  2  0  0  0  0
 32 26  2  0  0  0  0
 34 35  1  0  0  0  0
 34 38  1  0  0  0  0
 35 22  1  0  0  0  0
 36 35  2  0  0  0  0
 37 34  1  0  0  0  0
M  END
>  <minimizedAffinity>
18.9353752

$$$$
