
 OpenBabel10152419293D

 38 42  0  0  0  0  0  0  0  0999 V2000
    7.9080  -13.9590   13.1960 C   0  0  0  0  0  0  0  0  0  0  0  0
    8.7020  -15.0850   12.9620 C   0  0  0  0  0  3  0  0  0  0  0  0
   10.0890  -14.9820   13.0130 C   0  0  0  0  0  3  0  0  0  0  0  0
   10.7010  -13.7530   13.2850 C   0  0  0  0  0  3  0  0  0  0  0  0
    9.9350  -12.6050   13.4750 C   0  0  0  0  0  0  0  0  0  0  0  0
    8.5360  -12.7240   13.4330 C   0  0  0  0  0  3  0  0  0  0  0  0
   10.4390  -11.3230   13.7640 N   0  0  0  0  0  0  0  0  0  0  0  0
   10.0010  -10.0440   13.5180 C   0  0  0  0  0  0  0  0  0  0  0  0
   10.7530   -9.0940   13.7300 O   0  0  0  0  0  0  0  0  0  0  0  0
   11.3500  -11.2930   14.2080 H   0  0  0  0  0  0  0  0  0  0  0  0
    8.6420   -9.7500   13.0440 C   0  0  0  0  0  0  0  0  0  0  0  0
    8.4970   -9.1230   11.8050 C   0  0  0  0  0  3  0  0  0  0  0  0
    7.2230   -8.7960   11.3270 C   0  0  0  0  0  3  0  0  0  0  0  0
    6.0950   -9.0870   12.1210 C   0  0  0  0  0  0  0  0  0  0  0  0
    4.6970   -8.8940   11.9500 C   0  0  0  0  0  3  0  0  0  0  0  0
    4.0670   -9.3670   13.0790 C   0  0  0  0  0  3  0  0  0  0  0  0
    5.0310   -9.8380   13.9310 N   0  0  0  0  0  0  0  0  0  0  0  0
    6.2780   -9.6850   13.3690 C   0  0  0  0  0  0  0  0  0  0  0  0
    7.5420  -10.0240   13.8690 C   0  0  0  0  0  3  0  0  0  0  0  0
    4.8550  -10.2430   14.8410 H   0  0  0  0  0  0  0  0  0  0  0  0
    6.4020  -14.0680   13.1880 C   0  0  0  0  0  2  0  0  0  0  0  0
    6.2170  -10.4470    8.2850 C   0  0  0  0  0  0  0  0  0  0  0  0
    4.8330  -10.2320    8.2030 C   0  0  0  0  0  3  0  0  0  0  0  0
    4.0020  -10.7740    9.1680 C   0  0  0  0  0  3  0  0  0  0  0  0
    4.5640  -11.5230   10.1990 C   0  0  0  0  0  3  0  0  0  0  0  0
    5.9680  -11.7320   10.2880 C   0  0  0  0  0  0  0  0  0  0  0  0
    6.5940  -12.4830   11.3060 C   0  0  0  0  0  0  0  0  0  0  0  0
    5.8270  -13.0760   12.3030 N   0  0  0  0  0  0  0  0  0  0  0  0
    7.9210  -12.6880   11.3220 N   0  0  0  0  0  0  0  0  0  0  0  0
    8.6330  -12.1160   10.3500 C   0  0  0  0  0  3  0  0  0  0  0  0
    8.1490  -11.3620    9.3610 N   0  0  0  0  0  0  0  0  0  0  0  0
    6.8170  -11.1880    9.3090 C   0  0  0  0  0  0  0  0  0  0  0  0
    5.1130  -12.4880   12.7110 H   0  0  0  0  0  0  0  0  0  0  0  0
    8.2770   -9.4300    7.5840 N   0  0  0  0  0  0  0  0  0  0  0  0
    7.0440   -9.8830    7.2050 C   0  0  0  0  0  0  0  0  0  0  0  0
    6.6250   -9.7640    6.0630 O   0  0  0  0  0  0  0  0  0  0  0  0
    8.8660   -9.0290    6.8670 H   0  0  0  0  0  0  0  0  0  0  0  0
    8.6420   -9.5290    8.5210 H   0  0  0  0  0  0  0  0  0  0  0  0
  1  6  1  0  0  0  0
  2  3  1  0  0  0  0
  2  1  2  0  0  0  0
  3  4  2  0  0  0  0
  4  5  1  0  0  0  0
  5  7  1  0  0  0  0
  6  5  2  0  0  0  0
  7 10  1  0  0  0  0
  8  9  2  0  0  0  0
  8  7  1  0  0  0  0
 11  8  1  0  0  0  0
 11 19  1  0  0  0  0
 12 11  2  0  0  0  0
 13 12  1  0  0  0  0
 13 14  2  0  0  0  0
 14 18  1  0  0  0  0
 15 14  1  0  0  0  0
 15 16  2  0  0  0  0
 16 17  1  0  0  0  0
 17 20  1  0  0  0  0
 18 19  2  0  0  0  0
 18 17  1  0  0  0  0
 21  1  1  0  0  0  0
 22 32  1  0  0  0  0
 23 22  2  0  0  0  0
 23 24  1  0  0  0  0
 24 25  2  0  0  0  0
 25 26  1  0  0  0  0
 26 27  1  0  0  0  0
 27 29  2  0  0  0  0
 27 28  1  0  0  0  0
 28 33  1  0  0  0  0
 28 21  1  0  0  0  0
 30 29  1  0  0  0  0
 31 30  2  0  0  0  0
 32 31  1  0  0  0  0
 32 26  2  0  0  0  0
 34 38  1  0  0  0  0
 35 34  1  0  0  0  0
 35 22  1  0  0  0  0
 36 35  2  0  0  0  0
 37 34  1  0  0  0  0
M  END
>  <minimizedAffinity>
21.7638664

$$$$
