
 OpenBabel11232420253D

 39 44  0  0  1  0  0  0  0  0999 V2000
    0.4840    6.0760   -6.6720 C   0  0  0  0  0  0  0  0  0  0  0  0
    1.3580    5.2950   -7.3670 N   0  0  0  0  0  0  0  0  0  0  0  0
    2.6580    5.6570   -7.4040 C   0  0  0  0  0  0  0  0  0  0  0  0
    3.5360    4.7600   -8.1540 C   0  0  0  0  0  3  0  0  0  0  0  0
    4.8460    5.0220   -8.2500 C   0  0  0  0  0  3  0  0  0  0  0  0
    5.3850    6.1760   -7.6340 C   0  0  0  0  0  0  0  0  0  0  0  0
    6.6190    6.6210   -7.6080 N   0  0  0  0  0  0  0  0  0  0  0  0
    6.6290    7.7840   -6.8960 N   0  0  0  0  0  0  0  0  0  0  0  0
    5.3980    8.0440   -6.4900 C   0  0  0  0  0  0  0  0  0  0  0  0
    4.5530    7.0360   -6.9220 N   0  0  0  0  0  0  0  0  0  0  0  0
    3.1620    6.7940   -6.7780 C   0  0  0  0  0  0  0  0  0  0  0  0
    2.2700    7.5820   -6.0590 C   0  0  0  0  0  3  0  0  0  0  0  0
    0.9010    7.2350   -5.9850 C   0  0  0  0  0  0  0  0  0  0  0  0
    0.0100    8.0830   -5.1730 C   0  0  0  0  0  0  0  0  0  0  0  0
   -0.9080    8.9500   -5.7900 C   0  0  0  0  0  3  0  0  0  0  0  0
   -1.7530    9.7600   -5.0270 C   0  0  0  0  0  3  0  0  0  0  0  0
   -1.6880    9.7190   -3.6370 C   0  0  0  0  0  3  0  0  0  0  0  0
   -0.7780    8.8730   -3.0090 C   0  0  0  0  0  3  0  0  0  0  0  0
    0.0680    8.0630   -3.7710 C   0  0  0  0  0  3  0  0  0  0  0  0
   -3.5890    4.4720   -6.7930 C   0  0  0  0  0  0  0  0  0  0  0  0
   -2.7010    4.2270   -5.7300 C   0  0  0  0  0  3  0  0  0  0  0  0
   -1.4030    4.7570   -5.6960 C   0  0  0  0  0  3  0  0  0  0  0  0
   -0.9060    5.5650   -6.7300 C   0  0  0  0  0  0  0  0  0  0  0  0
   -1.7730    5.8140   -7.8000 C   0  0  0  0  0  3  0  0  0  0  0  0
   -3.0810    5.3040   -7.8170 C   0  0  0  0  0  3  0  0  0  0  0  0
   -6.2260    0.6130   -7.4250 C   0  0  0  0  0  1  0  0  0  0  0  0
   -5.2110    1.7360   -7.2910 C   0  0  2  0  0  0  0  0  0  0  0  0
   -5.3680    2.5950   -6.0020 C   0  0  0  0  0  2  0  0  0  0  0  0
   -5.0620    3.8530   -6.8650 C   0  0  2  0  0  0  0  0  0  0  0  0
   -5.5340    3.0190   -8.0990 C   0  0  0  0  0  2  0  0  0  0  0  0
   -6.0200    4.9570   -6.6010 N   0  0  0  0  0  4  0  0  0  0  0  0
   -7.0020    4.6810   -6.7170 H   0  0  0  0  0  0  0  0  0  0  0  0
   -5.9180    5.3220   -5.6470 H   0  0  0  0  0  0  0  0  0  0  0  0
   -5.8410    5.7480   -7.2360 H   0  0  0  0  0  0  0  0  0  0  0  0
   -3.8820    1.2220   -7.4920 O   0  0  0  0  0  0  0  0  0  0  0  0
   -3.9140    0.6450   -8.2780 H   0  0  0  0  0  0  0  0  0  0  0  0
    5.0270    9.2430   -5.7170 C   0  0  0  0  0  3  0  0  0  0  0  0
    5.4950    9.1770   -4.4400 F   0  0  0  0  0  0  0  0  0  0  0  0
    5.5550   10.3720   -6.2630 F   0  0  0  0  0  0  0  0  0  0  0  0
  1 13  1  0  0  0  0
  2  1  2  0  0  0  0
  3  2  1  0  0  0  0
  3 11  2  0  0  0  0
  4  3  1  0  0  0  0
  5  4  2  0  0  0  0
  5  6  1  0  0  0  0
  6  7  2  0  0  0  0
  6 10  1  0  0  0  0
  7  8  1  0  0  0  0
  8  9  2  0  0  0  0
  9 37  1  0  0  0  0
 10 11  1  0  0  0  0
 10  9  1  0  0  0  0
 11 12  1  0  0  0  0
 12 13  2  0  0  0  0
 13 14  1  0  0  0  0
 14 19  1  0  0  0  0
 15 14  2  0  0  0  0
 15 16  1  0  0  0  0
 16 17  2  0  0  0  0
 17 18  1  0  0  0  0
 19 18  2  0  0  0  0
 20 21  1  0  0  0  0
 21 22  2  0  0  0  0
 23  1  1  0  0  0  0
 23 22  1  0  0  0  0
 24 23  2  0  0  0  0
 25 24  1  0  0  0  0
 25 20  2  0  0  0  0
 27 26  1  6  0  0  0
 27 28  1  0  0  0  0
 29 20  1  0  0  0  0
 29 31  1  1  0  0  0
 29 28  1  0  0  0  0
 30 27  1  0  0  0  0
 30 29  1  0  0  0  0
 31 33  1  0  0  0  0
 32 31  1  0  0  0  0
 34 31  1  0  0  0  0
 35 27  1  0  0  0  0
 36 35  1  0  0  0  0
 37 38  1  0  0  0  0
 39 37  1  0  0  0  0
M  END
>  <minimizedAffinity>
-12.936471

$$$$
