
 OpenBabel11232420253D

 39 44  0  0  1  0  0  0  0  0999 V2000
   -0.3560    5.4750   -6.5190 C   0  0  0  0  0  0  0  0  0  0  0  0
   -0.3560    4.2300   -7.0740 N   0  0  0  0  0  0  0  0  0  0  0  0
   -1.5110    3.5330   -7.0920 C   0  0  0  0  0  0  0  0  0  0  0  0
   -1.4360    2.2140   -7.7190 C   0  0  0  0  0  3  0  0  0  0  0  0
   -2.5260    1.4390   -7.7960 C   0  0  0  0  0  3  0  0  0  0  0  0
   -3.7550    1.8900   -7.2600 C   0  0  0  0  0  0  0  0  0  0  0  0
   -4.9270    1.3000   -7.2210 N   0  0  0  0  0  0  0  0  0  0  0  0
   -5.7950    2.1380   -6.5840 N   0  0  0  0  0  0  0  0  0  0  0  0
   -5.1480    3.2360   -6.2370 C   0  0  0  0  0  0  0  0  0  0  0  0
   -3.8330    3.1430   -6.6570 N   0  0  0  0  0  0  0  0  0  0  0  0
   -2.7100    4.0080   -6.5650 C   0  0  0  0  0  0  0  0  0  0  0  0
   -2.7100    5.2830   -6.0120 C   0  0  0  0  0  3  0  0  0  0  0  0
   -1.5240    6.0530   -5.9800 C   0  0  0  0  0  0  0  0  0  0  0  0
   -1.5930    7.4140   -5.4200 C   0  0  0  0  0  0  0  0  0  0  0  0
   -1.4080    8.5370   -6.2460 C   0  0  0  0  0  3  0  0  0  0  0  0
   -1.4680    9.8300   -5.7220 C   0  0  0  0  0  3  0  0  0  0  0  0
   -1.7060   10.0210   -4.3640 C   0  0  0  0  0  3  0  0  0  0  0  0
   -1.8810    8.9200   -3.5280 C   0  0  0  0  0  3  0  0  0  0  0  0
   -1.8210    7.6270   -4.0520 C   0  0  0  0  0  3  0  0  0  0  0  0
    3.5450    7.4620   -6.6030 C   0  0  0  0  0  0  0  0  0  0  0  0
    2.5410    7.7860   -5.6730 C   0  0  0  0  0  3  0  0  0  0  0  0
    1.3000    7.1330   -5.6470 C   0  0  0  0  0  3  0  0  0  0  0  0
    0.9800    6.1150   -6.5570 C   0  0  0  0  0  0  0  0  0  0  0  0
    1.9650    5.7830   -7.4950 C   0  0  0  0  0  3  0  0  0  0  0  0
    3.2160    6.4200   -7.5000 C   0  0  0  0  0  3  0  0  0  0  0  0
    6.1890   11.0420   -5.0400 C   0  0  0  0  0  1  0  0  0  0  0  0
    5.1720    9.9880   -5.4460 C   0  0  2  0  0  0  0  0  0  0  0  0
    5.6810    8.5220   -5.3270 C   0  0  0  0  0  2  0  0  0  0  0  0
    4.9560    8.2150   -6.6680 C   0  0  2  0  0  0  0  0  0  0  0  0
    5.0470    9.7440   -6.9720 C   0  0  0  0  0  2  0  0  0  0  0  0
    5.8190    7.4550   -7.6090 N   0  0  0  0  0  4  0  0  0  0  0  0
    6.7200    7.9120   -7.7920 H   0  0  0  0  0  0  0  0  0  0  0  0
    6.0230    6.5130   -7.2540 H   0  0  0  0  0  0  0  0  0  0  0  0
    5.3430    7.3300   -8.5130 H   0  0  0  0  0  0  0  0  0  0  0  0
    3.9220   10.2290   -4.7760 O   0  0  0  0  0  0  0  0  0  0  0  0
    3.7360   11.1840   -4.8520 H   0  0  0  0  0  0  0  0  0  0  0  0
   -5.7680    4.3520   -5.4990 C   0  0  0  0  0  3  0  0  0  0  0  0
   -6.1640    5.3460   -6.3410 F   0  0  0  0  0  0  0  0  0  0  0  0
   -6.8800    3.9490   -4.8270 F   0  0  0  0  0  0  0  0  0  0  0  0
  1 13  1  0  0  0  0
  2  1  2  0  0  0  0
  3  2  1  0  0  0  0
  3 11  2  0  0  0  0
  4  3  1  0  0  0  0
  5  4  2  0  0  0  0
  5  6  1  0  0  0  0
  6  7  2  0  0  0  0
  6 10  1  0  0  0  0
  7  8  1  0  0  0  0
  8  9  2  0  0  0  0
  9 37  1  0  0  0  0
 10 11  1  0  0  0  0
 10  9  1  0  0  0  0
 11 12  1  0  0  0  0
 12 13  2  0  0  0  0
 13 14  1  0  0  0  0
 14 19  1  0  0  0  0
 15 16  1  0  0  0  0
 15 14  2  0  0  0  0
 16 17  2  0  0  0  0
 17 18  1  0  0  0  0
 19 18  2  0  0  0  0
 20 21  1  0  0  0  0
 21 22  2  0  0  0  0
 23  1  1  0  0  0  0
 23 22  1  0  0  0  0
 24 23  2  0  0  0  0
 25 24  1  0  0  0  0
 25 20  2  0  0  0  0
 27 28  1  0  0  0  0
 27 26  1  1  0  0  0
 27 35  1  0  0  0  0
 29 31  1  6  0  0  0
 29 20  1  0  0  0  0
 29 28  1  0  0  0  0
 30 29  1  0  0  0  0
 30 27  1  0  0  0  0
 31 33  1  0  0  0  0
 32 31  1  0  0  0  0
 34 31  1  0  0  0  0
 36 35  1  0  0  0  0
 37 39  1  0  0  0  0
 38 37  1  0  0  0  0
M  END
>  <minimizedAffinity>
-11.2799749

$$$$
