
 OpenBabel11232420253D

 39 44  0  0  1  0  0  0  0  0999 V2000
   -0.4740    4.9200   -6.8290 C   0  0  0  0  0  0  0  0  0  0  0  0
   -0.8540    3.7220   -7.3580 N   0  0  0  0  0  0  0  0  0  0  0  0
   -2.1060    3.2800   -7.1180 C   0  0  0  0  0  0  0  0  0  0  0  0
   -2.4450    1.9960   -7.7330 C   0  0  0  0  0  3  0  0  0  0  0  0
   -3.6630    1.4670   -7.5650 C   0  0  0  0  0  3  0  0  0  0  0  0
   -4.6270    2.1430   -6.7800 C   0  0  0  0  0  0  0  0  0  0  0  0
   -5.8610    1.8080   -6.4830 N   0  0  0  0  0  0  0  0  0  0  0  0
   -6.3780    2.7840   -5.6820 N   0  0  0  0  0  0  0  0  0  0  0  0
   -5.4560    3.7120   -5.4950 C   0  0  0  0  0  0  0  0  0  0  0  0
   -4.3100    3.3630   -6.1880 N   0  0  0  0  0  0  0  0  0  0  0  0
   -3.0380    3.9740   -6.3500 C   0  0  0  0  0  0  0  0  0  0  0  0
   -2.6520    5.2000   -5.8240 C   0  0  0  0  0  3  0  0  0  0  0  0
   -1.3530    5.7070   -6.0570 C   0  0  0  0  0  0  0  0  0  0  0  0
   -1.0130    7.0330   -5.5100 C   0  0  0  0  0  0  0  0  0  0  0  0
   -0.4340    7.1530   -4.2350 C   0  0  0  0  0  3  0  0  0  0  0  0
   -0.1120    8.4060   -3.7080 C   0  0  0  0  0  3  0  0  0  0  0  0
   -0.3730    9.5580   -4.4450 C   0  0  0  0  0  3  0  0  0  0  0  0
   -0.9560    9.4600   -5.7060 C   0  0  0  0  0  3  0  0  0  0  0  0
   -1.2770    8.2070   -6.2330 C   0  0  0  0  0  3  0  0  0  0  0  0
    3.6900    5.8470   -7.8150 C   0  0  0  0  0  0  0  0  0  0  0  0
    3.0130    4.7260   -8.3280 C   0  0  0  0  0  3  0  0  0  0  0  0
    1.6750    4.4460   -8.0150 C   0  0  0  0  0  3  0  0  0  0  0  0
    0.9270    5.2700   -7.1620 C   0  0  0  0  0  0  0  0  0  0  0  0
    1.5850    6.3880   -6.6370 C   0  0  0  0  0  3  0  0  0  0  0  0
    2.9160    6.6790   -6.9740 C   0  0  0  0  0  3  0  0  0  0  0  0
    7.3310    5.2100  -10.7460 C   0  0  0  0  0  1  0  0  0  0  0  0
    6.0600    5.2580   -9.9130 C   0  0  2  0  0  0  0  0  0  0  0  0
    5.5790    6.6940   -9.5560 C   0  0  0  0  0  2  0  0  0  0  0  0
    5.2240    6.1680   -8.1360 C   0  0  2  0  0  0  0  0  0  0  0  0
    6.2570    5.0240   -8.3930 C   0  0  0  0  0  2  0  0  0  0  0  0
    5.7210    7.0710   -7.0660 N   0  0  0  0  0  4  0  0  0  0  0  0
    6.7270    7.2630   -7.1300 H   0  0  0  0  0  0  0  0  0  0  0  0
    5.2370    7.9770   -7.0860 H   0  0  0  0  0  0  0  0  0  0  0  0
    5.5390    6.6640   -6.1380 H   0  0  0  0  0  0  0  0  0  0  0  0
    5.0460    4.4350  -10.5170 O   0  0  0  0  0  0  0  0  0  0  0  0
    5.4710    3.5920  -10.7640 H   0  0  0  0  0  0  0  0  0  0  0  0
   -5.6560    4.9050   -4.6520 C   0  0  0  0  0  3  0  0  0  0  0  0
   -6.9530    5.3180   -4.6740 F   0  0  0  0  0  0  0  0  0  0  0  0
   -5.3530    4.6530   -3.3500 F   0  0  0  0  0  0  0  0  0  0  0  0
  1 13  1  0  0  0  0
  2  3  1  0  0  0  0
  2  1  2  0  0  0  0
  3 11  2  0  0  0  0
  4  5  2  0  0  0  0
  4  3  1  0  0  0  0
  5  6  1  0  0  0  0
  6  7  2  0  0  0  0
  6 10  1  0  0  0  0
  7  8  1  0  0  0  0
  8  9  2  0  0  0  0
  9 37  1  0  0  0  0
 10  9  1  0  0  0  0
 11 10  1  0  0  0  0
 11 12  1  0  0  0  0
 13 12  2  0  0  0  0
 13 14  1  0  0  0  0
 14 15  1  0  0  0  0
 15 16  2  0  0  0  0
 17 16  1  0  0  0  0
 18 17  2  0  0  0  0
 19 18  1  0  0  0  0
 19 14  2  0  0  0  0
 20 25  1  0  0  0  0
 21 22  1  0  0  0  0
 21 20  2  0  0  0  0
 22 23  2  0  0  0  0
 23  1  1  0  0  0  0
 23 24  1  0  0  0  0
 25 24  2  0  0  0  0
 27 26  1  6  0  0  0
 27 28  1  0  0  0  0
 27 30  1  0  0  0  0
 28 29  1  0  0  0  0
 29 20  1  0  0  0  0
 29 31  1  1  0  0  0
 30 29  1  0  0  0  0
 31 34  1  0  0  0  0
 32 31  1  0  0  0  0
 33 31  1  0  0  0  0
 35 27  1  0  0  0  0
 36 35  1  0  0  0  0
 37 39  1  0  0  0  0
 38 37  1  0  0  0  0
M  END
>  <minimizedAffinity>
-10.7887707

$$$$
