
 OpenBabel11232420253D

 39 44  0  0  1  0  0  0  0  0999 V2000
    1.3250    6.7340   -6.3250 C   0  0  0  0  0  0  0  0  0  0  0  0
    1.9240    5.7760   -7.0870 N   0  0  0  0  0  0  0  0  0  0  0  0
    1.1440    4.8960   -7.7470 C   0  0  0  0  0  0  0  0  0  0  0  0
    1.8590    3.9100   -8.5570 C   0  0  0  0  0  3  0  0  0  0  0  0
    1.1810    2.9930   -9.2580 C   0  0  0  0  0  3  0  0  0  0  0  0
   -0.2330    2.9660   -9.2110 C   0  0  0  0  0  0  0  0  0  0  0  0
   -1.0830    2.1620   -9.8050 N   0  0  0  0  0  0  0  0  0  0  0  0
   -2.3410    2.5330   -9.4300 N   0  0  0  0  0  0  0  0  0  0  0  0
   -2.2520    3.5640   -8.6080 C   0  0  0  0  0  0  0  0  0  0  0  0
   -0.9200    3.8990   -8.4380 N   0  0  0  0  0  0  0  0  0  0  0  0
   -0.2480    4.9010   -7.6900 C   0  0  0  0  0  0  0  0  0  0  0  0
   -0.8570    5.8870   -6.9220 C   0  0  0  0  0  3  0  0  0  0  0  0
   -0.0780    6.8360   -6.2210 C   0  0  0  0  0  0  0  0  0  0  0  0
   -0.7780    7.8850   -5.4580 C   0  0  0  0  0  0  0  0  0  0  0  0
   -1.1490    9.0910   -6.0760 C   0  0  0  0  0  3  0  0  0  0  0  0
   -1.8090   10.0920   -5.3590 C   0  0  0  0  0  3  0  0  0  0  0  0
   -2.1020    9.9040   -4.0110 C   0  0  0  0  0  3  0  0  0  0  0  0
   -1.7330    8.7190   -3.3790 C   0  0  0  0  0  3  0  0  0  0  0  0
   -1.0730    7.7190   -4.0960 C   0  0  0  0  0  3  0  0  0  0  0  0
    4.2930    9.2700   -4.3420 C   0  0  0  0  0  0  0  0  0  0  0  0
    4.6100    8.4150   -5.4130 C   0  0  0  0  0  3  0  0  0  0  0  0
    3.6480    7.6160   -6.0480 C   0  0  0  0  0  3  0  0  0  0  0  0
    2.3030    7.6190   -5.6490 C   0  0  0  0  0  0  0  0  0  0  0  0
    1.9700    8.4590   -4.5810 C   0  0  0  0  0  3  0  0  0  0  0  0
    2.9310    9.2770   -3.9650 C   0  0  0  0  0  3  0  0  0  0  0  0
    6.5460   10.1700   -0.2970 C   0  0  0  0  0  1  0  0  0  0  0  0
    5.6890    9.7550   -1.4820 C   0  0  2  0  0  0  0  0  0  0  0  0
    6.4920    9.4360   -2.7760 C   0  0  0  0  0  2  0  0  0  0  0  0
    5.3810   10.1660   -3.5840 C   0  0  2  0  0  0  0  0  0  0  0  0
    5.0330   10.9230   -2.2630 C   0  0  0  0  0  2  0  0  0  0  0  0
    5.9460   11.1130   -4.5800 N   0  0  0  0  0  4  0  0  0  0  0  0
    6.5910   11.7980   -4.1700 H   0  0  0  0  0  0  0  0  0  0  0  0
    6.4590   10.6170   -5.3190 H   0  0  0  0  0  0  0  0  0  0  0  0
    5.1920   11.6350   -5.0480 H   0  0  0  0  0  0  0  0  0  0  0  0
    4.7770    8.7140   -1.0880 O   0  0  0  0  0  0  0  0  0  0  0  0
    4.3860    8.9840   -0.2350 H   0  0  0  0  0  0  0  0  0  0  0  0
   -3.4170    4.2100   -7.9770 C   0  0  0  0  0  3  0  0  0  0  0  0
   -3.3970    4.0620   -6.6230 F   0  0  0  0  0  0  0  0  0  0  0  0
   -3.4370    5.5490   -8.2190 F   0  0  0  0  0  0  0  0  0  0  0  0
  1 13  1  0  0  0  0
  1 23  1  0  0  0  0
  2  1  2  0  0  0  0
  3 11  2  0  0  0  0
  3  2  1  0  0  0  0
  4  3  1  0  0  0  0
  5  6  1  0  0  0  0
  5  4  2  0  0  0  0
  6 10  1  0  0  0  0
  7  8  1  0  0  0  0
  7  6  2  0  0  0  0
  8  9  2  0  0  0  0
  9 10  1  0  0  0  0
  9 37  1  0  0  0  0
 10 11  1  0  0  0  0
 11 12  1  0  0  0  0
 12 13  2  0  0  0  0
 13 14  1  0  0  0  0
 14 19  1  0  0  0  0
 15 14  2  0  0  0  0
 15 16  1  0  0  0  0
 16 17  2  0  0  0  0
 17 18  1  0  0  0  0
 19 18  2  0  0  0  0
 20 25  1  0  0  0  0
 20 29  1  0  0  0  0
 21 20  2  0  0  0  0
 22 23  2  0  0  0  0
 22 21  1  0  0  0  0
 23 24  1  0  0  0  0
 24 25  2  0  0  0  0
 27 35  1  0  0  0  0
 27 26  1  1  0  0  0
 28 27  1  0  0  0  0
 29 31  1  6  0  0  0
 29 28  1  0  0  0  0
 29 30  1  0  0  0  0
 30 27  1  0  0  0  0
 31 32  1  0  0  0  0
 33 31  1  0  0  0  0
 34 31  1  0  0  0  0
 35 36  1  0  0  0  0
 37 38  1  0  0  0  0
 39 37  1  0  0  0  0
M  END
>  <minimizedAffinity>
-11.6642771

$$$$
