
 OpenBabel11232420253D

 39 44  0  0  1  0  0  0  0  0999 V2000
   -0.4520    4.9160   -6.9030 C   0  0  0  0  0  0  0  0  0  0  0  0
   -0.6350    3.6720   -7.4290 N   0  0  0  0  0  0  0  0  0  0  0  0
   -1.8480    3.0940   -7.3130 C   0  0  0  0  0  0  0  0  0  0  0  0
   -1.9710    1.7680   -7.9180 C   0  0  0  0  0  3  0  0  0  0  0  0
   -3.1340    1.1070   -7.8650 C   0  0  0  0  0  3  0  0  0  0  0  0
   -4.2490    1.6840   -7.2140 C   0  0  0  0  0  0  0  0  0  0  0  0
   -5.4630    1.2160   -7.0410 N   0  0  0  0  0  0  0  0  0  0  0  0
   -6.1720    2.1430   -6.3350 N   0  0  0  0  0  0  0  0  0  0  0  0
   -5.3860    3.1740   -6.0790 C   0  0  0  0  0  0  0  0  0  0  0  0
   -4.1380    2.9440   -6.6320 N   0  0  0  0  0  0  0  0  0  0  0  0
   -2.9320    3.6930   -6.6740 C   0  0  0  0  0  0  0  0  0  0  0  0
   -2.7470    4.9670   -6.1500 C   0  0  0  0  0  3  0  0  0  0  0  0
   -1.4940    5.6140   -6.2580 C   0  0  0  0  0  0  0  0  0  0  0  0
   -1.3680    6.9810   -5.7210 C   0  0  0  0  0  0  0  0  0  0  0  0
   -1.3920    8.0910   -6.5830 C   0  0  0  0  0  3  0  0  0  0  0  0
   -1.2690    9.3900   -6.0830 C   0  0  0  0  0  3  0  0  0  0  0  0
   -1.1130    9.5970   -4.7150 C   0  0  0  0  0  3  0  0  0  0  0  0
   -1.0770    8.5080   -3.8470 C   0  0  0  0  0  3  0  0  0  0  0  0
   -1.2000    7.2100   -4.3470 C   0  0  0  0  0  3  0  0  0  0  0  0
    3.6630    6.2940   -7.4830 C   0  0  0  0  0  0  0  0  0  0  0  0
    3.1010    5.2330   -8.2150 C   0  0  0  0  0  3  0  0  0  0  0  0
    1.7770    4.8090   -8.0300 C   0  0  0  0  0  3  0  0  0  0  0  0
    0.9290    5.4170   -7.0930 C   0  0  0  0  0  0  0  0  0  0  0  0
    1.4730    6.4710   -6.3490 C   0  0  0  0  0  3  0  0  0  0  0  0
    2.7910    6.9100   -6.5570 C   0  0  0  0  0  3  0  0  0  0  0  0
    6.6410    9.9350   -7.8340 C   0  0  0  0  0  1  0  0  0  0  0  0
    5.5240    8.9080   -7.7450 C   0  0  2  0  0  0  0  0  0  0  0  0
    5.7350    7.8210   -6.6510 C   0  0  0  0  0  2  0  0  0  0  0  0
    5.1800    6.7730   -7.6580 C   0  0  2  0  0  0  0  0  0  0  0  0
    5.5920    7.7660   -8.7910 C   0  0  0  0  0  2  0  0  0  0  0  0
    6.0250    5.5530   -7.7160 N   0  0  0  0  0  4  0  0  0  0  0  0
    7.0110    5.7510   -7.9220 H   0  0  0  0  0  0  0  0  0  0  0  0
    5.9980    5.0350   -6.8300 H   0  0  0  0  0  0  0  0  0  0  0  0
    5.6790    4.9090   -8.4410 H   0  0  0  0  0  0  0  0  0  0  0  0
    4.2500    9.5740   -7.6710 O   0  0  0  0  0  0  0  0  0  0  0  0
    4.2550   10.2760   -8.3480 H   0  0  0  0  0  0  0  0  0  0  0  0
   -5.8110    4.3540   -5.3040 C   0  0  0  0  0  3  0  0  0  0  0  0
   -6.2240    5.3630   -6.1200 F   0  0  0  0  0  0  0  0  0  0  0  0
   -6.8600    4.0640   -4.4880 F   0  0  0  0  0  0  0  0  0  0  0  0
  1 13  1  0  0  0  0
  2  3  1  0  0  0  0
  2  1  2  0  0  0  0
  3 11  2  0  0  0  0
  4  5  2  0  0  0  0
  4  3  1  0  0  0  0
  5  6  1  0  0  0  0
  6  7  2  0  0  0  0
  6 10  1  0  0  0  0
  7  8  1  0  0  0  0
  8  9  2  0  0  0  0
  9 37  1  0  0  0  0
 10  9  1  0  0  0  0
 11 10  1  0  0  0  0
 11 12  1  0  0  0  0
 13 12  2  0  0  0  0
 13 14  1  0  0  0  0
 14 19  1  0  0  0  0
 15 16  1  0  0  0  0
 15 14  2  0  0  0  0
 16 17  2  0  0  0  0
 17 18  1  0  0  0  0
 19 18  2  0  0  0  0
 20 25  1  0  0  0  0
 21 22  1  0  0  0  0
 21 20  2  0  0  0  0
 22 23  2  0  0  0  0
 23  1  1  0  0  0  0
 23 24  1  0  0  0  0
 25 24  2  0  0  0  0
 27 26  1  6  0  0  0
 27 35  1  0  0  0  0
 27 28  1  0  0  0  0
 29 31  1  6  0  0  0
 29 20  1  0  0  0  0
 29 28  1  0  0  0  0
 30 27  1  0  0  0  0
 30 29  1  0  0  0  0
 31 33  1  0  0  0  0
 32 31  1  0  0  0  0
 34 31  1  0  0  0  0
 36 35  1  0  0  0  0
 37 39  1  0  0  0  0
 38 37  1  0  0  0  0
M  END
>  <minimizedAffinity>
-10.7752151

$$$$
