
 OpenBabel11232420253D

 39 44  0  0  1  0  0  0  0  0999 V2000
    0.4770    5.8640   -6.7980 C   0  0  0  0  0  0  0  0  0  0  0  0
    1.2600    5.0370   -7.5470 N   0  0  0  0  0  0  0  0  0  0  0  0
    2.5310    5.4100   -7.8040 C   0  0  0  0  0  0  0  0  0  0  0  0
    3.3140    4.4630   -8.5980 C   0  0  0  0  0  3  0  0  0  0  0  0
    4.5880    4.7310   -8.9060 C   0  0  0  0  0  3  0  0  0  0  0  0
    5.1830    5.9400   -8.4730 C   0  0  0  0  0  0  0  0  0  0  0  0
    6.3970    6.4010   -8.6650 N   0  0  0  0  0  0  0  0  0  0  0  0
    6.4810    7.6210   -8.0600 N   0  0  0  0  0  0  0  0  0  0  0  0
    5.3170    7.8990   -7.5010 C   0  0  0  0  0  0  0  0  0  0  0  0
    4.4430    6.8480   -7.7210 N   0  0  0  0  0  0  0  0  0  0  0  0
    3.0930    6.6030   -7.3540 C   0  0  0  0  0  0  0  0  0  0  0  0
    2.2960    7.4380   -6.5800 C   0  0  0  0  0  3  0  0  0  0  0  0
    0.9620    7.0820   -6.2780 C   0  0  0  0  0  0  0  0  0  0  0  0
    0.1770    7.9850   -5.4170 C   0  0  0  0  0  0  0  0  0  0  0  0
    0.3860    8.0080   -4.0270 C   0  0  0  0  0  3  0  0  0  0  0  0
   -0.3560    8.8580   -3.2040 C   0  0  0  0  0  3  0  0  0  0  0  0
   -1.3230    9.6930   -3.7570 C   0  0  0  0  0  3  0  0  0  0  0  0
   -1.5510    9.6780   -5.1310 C   0  0  0  0  0  3  0  0  0  0  0  0
   -0.8090    8.8270   -5.9550 C   0  0  0  0  0  3  0  0  0  0  0  0
   -3.6130    4.3940   -6.2700 C   0  0  0  0  0  0  0  0  0  0  0  0
   -3.2500    5.2980   -7.2840 C   0  0  0  0  0  3  0  0  0  0  0  0
   -1.9330    5.7520   -7.4510 C   0  0  0  0  0  3  0  0  0  0  0  0
   -0.8930    5.3330   -6.6090 C   0  0  0  0  0  0  0  0  0  0  0  0
   -1.2370    4.4370   -5.5900 C   0  0  0  0  0  3  0  0  0  0  0  0
   -2.5510    3.9650   -5.4420 C   0  0  0  0  0  3  0  0  0  0  0  0
   -7.5520    4.7310   -3.6960 C   0  0  0  0  0  1  0  0  0  0  0  0
   -6.1890    4.7390   -4.3690 C   0  0  2  0  0  0  0  0  0  0  0  0
   -6.2330    4.9590   -5.9090 C   0  0  0  0  0  2  0  0  0  0  0  0
   -5.1140    3.8870   -6.0440 C   0  0  2  0  0  0  0  0  0  0  0  0
   -5.5870    3.3400   -4.6600 C   0  0  0  0  0  2  0  0  0  0  0  0
   -5.4130    2.8990   -7.1120 N   0  0  0  0  0  4  0  0  0  0  0  0
   -6.3260    2.4430   -7.0000 H   0  0  0  0  0  0  0  0  0  0  0  0
   -5.4040    3.3360   -8.0410 H   0  0  0  0  0  0  0  0  0  0  0  0
   -4.6960    2.1610   -7.1300 H   0  0  0  0  0  0  0  0  0  0  0  0
   -5.3040    5.6370   -3.6760 O   0  0  0  0  0  0  0  0  0  0  0  0
   -5.4090    5.4620   -2.7220 H   0  0  0  0  0  0  0  0  0  0  0  0
    5.0330    9.1550   -6.7850 C   0  0  0  0  0  3  0  0  0  0  0  0
    5.3230    9.0480   -5.4580 F   0  0  0  0  0  0  0  0  0  0  0  0
    5.7850   10.1840   -7.2620 F   0  0  0  0  0  0  0  0  0  0  0  0
  1 23  1  0  0  0  0
  1 13  1  0  0  0  0
  2  1  2  0  0  0  0
  3  2  1  0  0  0  0
  3 11  2  0  0  0  0
  4  3  1  0  0  0  0
  5  4  2  0  0  0  0
  5  6  1  0  0  0  0
  6 10  1  0  0  0  0
  7  6  2  0  0  0  0
  7  8  1  0  0  0  0
  8  9  2  0  0  0  0
  9 37  1  0  0  0  0
 10  9  1  0  0  0  0
 10 11  1  0  0  0  0
 11 12  1  0  0  0  0
 12 13  2  0  0  0  0
 13 14  1  0  0  0  0
 14 15  1  0  0  0  0
 15 16  2  0  0  0  0
 17 16  1  0  0  0  0
 18 17  2  0  0  0  0
 19 14  2  0  0  0  0
 19 18  1  0  0  0  0
 20 29  1  0  0  0  0
 20 25  1  0  0  0  0
 21 20  2  0  0  0  0
 22 21  1  0  0  0  0
 22 23  2  0  0  0  0
 23 24  1  0  0  0  0
 24 25  2  0  0  0  0
 27 26  1  1  0  0  0
 27 35  1  0  0  0  0
 28 27  1  0  0  0  0
 29 31  1  6  0  0  0
 29 28  1  0  0  0  0
 29 30  1  0  0  0  0
 30 27  1  0  0  0  0
 31 32  1  0  0  0  0
 33 31  1  0  0  0  0
 34 31  1  0  0  0  0
 35 36  1  0  0  0  0
 37 38  1  0  0  0  0
 39 37  1  0  0  0  0
M  END
>  <minimizedAffinity>
-13.0530109

$$$$

 OpenBabel11232420253D

 39 44  0  0  1  0  0  0  0  0999 V2000
    0.4840    6.0760   -6.6720 C   0  0  0  0  0  0  0  0  0  0  0  0
    1.3580    5.2950   -7.3670 N   0  0  0  0  0  0  0  0  0  0  0  0
    2.6580    5.6570   -7.4040 C   0  0  0  0  0  0  0  0  0  0  0  0
    3.5360    4.7600   -8.1540 C   0  0  0  0  0  3  0  0  0  0  0  0
    4.8460    5.0220   -8.2500 C   0  0  0  0  0  3  0  0  0  0  0  0
    5.3850    6.1760   -7.6340 C   0  0  0  0  0  0  0  0  0  0  0  0
    6.6190    6.6210   -7.6080 N   0  0  0  0  0  0  0  0  0  0  0  0
    6.6290    7.7840   -6.8960 N   0  0  0  0  0  0  0  0  0  0  0  0
    5.3980    8.0440   -6.4900 C   0  0  0  0  0  0  0  0  0  0  0  0
    4.5530    7.0360   -6.9220 N   0  0  0  0  0  0  0  0  0  0  0  0
    3.1620    6.7940   -6.7780 C   0  0  0  0  0  0  0  0  0  0  0  0
    2.2700    7.5820   -6.0590 C   0  0  0  0  0  3  0  0  0  0  0  0
    0.9010    7.2350   -5.9850 C   0  0  0  0  0  0  0  0  0  0  0  0
    0.0100    8.0830   -5.1730 C   0  0  0  0  0  0  0  0  0  0  0  0
   -0.9080    8.9500   -5.7900 C   0  0  0  0  0  3  0  0  0  0  0  0
   -1.7530    9.7600   -5.0270 C   0  0  0  0  0  3  0  0  0  0  0  0
   -1.6880    9.7190   -3.6370 C   0  0  0  0  0  3  0  0  0  0  0  0
   -0.7780    8.8730   -3.0090 C   0  0  0  0  0  3  0  0  0  0  0  0
    0.0680    8.0630   -3.7710 C   0  0  0  0  0  3  0  0  0  0  0  0
   -3.5890    4.4720   -6.7930 C   0  0  0  0  0  0  0  0  0  0  0  0
   -2.7010    4.2270   -5.7300 C   0  0  0  0  0  3  0  0  0  0  0  0
   -1.4030    4.7570   -5.6960 C   0  0  0  0  0  3  0  0  0  0  0  0
   -0.9060    5.5650   -6.7300 C   0  0  0  0  0  0  0  0  0  0  0  0
   -1.7730    5.8140   -7.8000 C   0  0  0  0  0  3  0  0  0  0  0  0
   -3.0810    5.3040   -7.8170 C   0  0  0  0  0  3  0  0  0  0  0  0
   -6.2260    0.6130   -7.4250 C   0  0  0  0  0  1  0  0  0  0  0  0
   -5.2110    1.7360   -7.2910 C   0  0  2  0  0  0  0  0  0  0  0  0
   -5.3680    2.5950   -6.0020 C   0  0  0  0  0  2  0  0  0  0  0  0
   -5.0620    3.8530   -6.8650 C   0  0  2  0  0  0  0  0  0  0  0  0
   -5.5340    3.0190   -8.0990 C   0  0  0  0  0  2  0  0  0  0  0  0
   -6.0200    4.9570   -6.6010 N   0  0  0  0  0  4  0  0  0  0  0  0
   -7.0020    4.6810   -6.7170 H   0  0  0  0  0  0  0  0  0  0  0  0
   -5.9180    5.3220   -5.6470 H   0  0  0  0  0  0  0  0  0  0  0  0
   -5.8410    5.7480   -7.2360 H   0  0  0  0  0  0  0  0  0  0  0  0
   -3.8820    1.2220   -7.4920 O   0  0  0  0  0  0  0  0  0  0  0  0
   -3.9140    0.6450   -8.2780 H   0  0  0  0  0  0  0  0  0  0  0  0
    5.0270    9.2430   -5.7170 C   0  0  0  0  0  3  0  0  0  0  0  0
    5.4950    9.1770   -4.4400 F   0  0  0  0  0  0  0  0  0  0  0  0
    5.5550   10.3720   -6.2630 F   0  0  0  0  0  0  0  0  0  0  0  0
  1 13  1  0  0  0  0
  2  1  2  0  0  0  0
  3  2  1  0  0  0  0
  3 11  2  0  0  0  0
  4  3  1  0  0  0  0
  5  4  2  0  0  0  0
  5  6  1  0  0  0  0
  6  7  2  0  0  0  0
  6 10  1  0  0  0  0
  7  8  1  0  0  0  0
  8  9  2  0  0  0  0
  9 37  1  0  0  0  0
 10 11  1  0  0  0  0
 10  9  1  0  0  0  0
 11 12  1  0  0  0  0
 12 13  2  0  0  0  0
 13 14  1  0  0  0  0
 14 19  1  0  0  0  0
 15 14  2  0  0  0  0
 15 16  1  0  0  0  0
 16 17  2  0  0  0  0
 17 18  1  0  0  0  0
 19 18  2  0  0  0  0
 20 21  1  0  0  0  0
 21 22  2  0  0  0  0
 23  1  1  0  0  0  0
 23 22  1  0  0  0  0
 24 23  2  0  0  0  0
 25 24  1  0  0  0  0
 25 20  2  0  0  0  0
 27 26  1  6  0  0  0
 27 28  1  0  0  0  0
 29 20  1  0  0  0  0
 29 31  1  1  0  0  0
 29 28  1  0  0  0  0
 30 27  1  0  0  0  0
 30 29  1  0  0  0  0
 31 33  1  0  0  0  0
 32 31  1  0  0  0  0
 34 31  1  0  0  0  0
 35 27  1  0  0  0  0
 36 35  1  0  0  0  0
 37 38  1  0  0  0  0
 39 37  1  0  0  0  0
M  END
>  <minimizedAffinity>
-12.936471

$$$$

 OpenBabel11232420253D

 39 44  0  0  1  0  0  0  0  0999 V2000
    1.3250    6.7340   -6.3250 C   0  0  0  0  0  0  0  0  0  0  0  0
    1.9240    5.7760   -7.0870 N   0  0  0  0  0  0  0  0  0  0  0  0
    1.1440    4.8960   -7.7470 C   0  0  0  0  0  0  0  0  0  0  0  0
    1.8590    3.9100   -8.5570 C   0  0  0  0  0  3  0  0  0  0  0  0
    1.1810    2.9930   -9.2580 C   0  0  0  0  0  3  0  0  0  0  0  0
   -0.2330    2.9660   -9.2110 C   0  0  0  0  0  0  0  0  0  0  0  0
   -1.0830    2.1620   -9.8050 N   0  0  0  0  0  0  0  0  0  0  0  0
   -2.3410    2.5330   -9.4300 N   0  0  0  0  0  0  0  0  0  0  0  0
   -2.2520    3.5640   -8.6080 C   0  0  0  0  0  0  0  0  0  0  0  0
   -0.9200    3.8990   -8.4380 N   0  0  0  0  0  0  0  0  0  0  0  0
   -0.2480    4.9010   -7.6900 C   0  0  0  0  0  0  0  0  0  0  0  0
   -0.8570    5.8870   -6.9220 C   0  0  0  0  0  3  0  0  0  0  0  0
   -0.0780    6.8360   -6.2210 C   0  0  0  0  0  0  0  0  0  0  0  0
   -0.7780    7.8850   -5.4580 C   0  0  0  0  0  0  0  0  0  0  0  0
   -1.1490    9.0910   -6.0760 C   0  0  0  0  0  3  0  0  0  0  0  0
   -1.8090   10.0920   -5.3590 C   0  0  0  0  0  3  0  0  0  0  0  0
   -2.1020    9.9040   -4.0110 C   0  0  0  0  0  3  0  0  0  0  0  0
   -1.7330    8.7190   -3.3790 C   0  0  0  0  0  3  0  0  0  0  0  0
   -1.0730    7.7190   -4.0960 C   0  0  0  0  0  3  0  0  0  0  0  0
    4.2930    9.2700   -4.3420 C   0  0  0  0  0  0  0  0  0  0  0  0
    4.6100    8.4150   -5.4130 C   0  0  0  0  0  3  0  0  0  0  0  0
    3.6480    7.6160   -6.0480 C   0  0  0  0  0  3  0  0  0  0  0  0
    2.3030    7.6190   -5.6490 C   0  0  0  0  0  0  0  0  0  0  0  0
    1.9700    8.4590   -4.5810 C   0  0  0  0  0  3  0  0  0  0  0  0
    2.9310    9.2770   -3.9650 C   0  0  0  0  0  3  0  0  0  0  0  0
    6.5460   10.1700   -0.2970 C   0  0  0  0  0  1  0  0  0  0  0  0
    5.6890    9.7550   -1.4820 C   0  0  2  0  0  0  0  0  0  0  0  0
    6.4920    9.4360   -2.7760 C   0  0  0  0  0  2  0  0  0  0  0  0
    5.3810   10.1660   -3.5840 C   0  0  2  0  0  0  0  0  0  0  0  0
    5.0330   10.9230   -2.2630 C   0  0  0  0  0  2  0  0  0  0  0  0
    5.9460   11.1130   -4.5800 N   0  0  0  0  0  4  0  0  0  0  0  0
    6.5910   11.7980   -4.1700 H   0  0  0  0  0  0  0  0  0  0  0  0
    6.4590   10.6170   -5.3190 H   0  0  0  0  0  0  0  0  0  0  0  0
    5.1920   11.6350   -5.0480 H   0  0  0  0  0  0  0  0  0  0  0  0
    4.7770    8.7140   -1.0880 O   0  0  0  0  0  0  0  0  0  0  0  0
    4.3860    8.9840   -0.2350 H   0  0  0  0  0  0  0  0  0  0  0  0
   -3.4170    4.2100   -7.9770 C   0  0  0  0  0  3  0  0  0  0  0  0
   -3.3970    4.0620   -6.6230 F   0  0  0  0  0  0  0  0  0  0  0  0
   -3.4370    5.5490   -8.2190 F   0  0  0  0  0  0  0  0  0  0  0  0
  1 13  1  0  0  0  0
  1 23  1  0  0  0  0
  2  1  2  0  0  0  0
  3 11  2  0  0  0  0
  3  2  1  0  0  0  0
  4  3  1  0  0  0  0
  5  6  1  0  0  0  0
  5  4  2  0  0  0  0
  6 10  1  0  0  0  0
  7  8  1  0  0  0  0
  7  6  2  0  0  0  0
  8  9  2  0  0  0  0
  9 10  1  0  0  0  0
  9 37  1  0  0  0  0
 10 11  1  0  0  0  0
 11 12  1  0  0  0  0
 12 13  2  0  0  0  0
 13 14  1  0  0  0  0
 14 19  1  0  0  0  0
 15 14  2  0  0  0  0
 15 16  1  0  0  0  0
 16 17  2  0  0  0  0
 17 18  1  0  0  0  0
 19 18  2  0  0  0  0
 20 25  1  0  0  0  0
 20 29  1  0  0  0  0
 21 20  2  0  0  0  0
 22 23  2  0  0  0  0
 22 21  1  0  0  0  0
 23 24  1  0  0  0  0
 24 25  2  0  0  0  0
 27 35  1  0  0  0  0
 27 26  1  1  0  0  0
 28 27  1  0  0  0  0
 29 31  1  6  0  0  0
 29 28  1  0  0  0  0
 29 30  1  0  0  0  0
 30 27  1  0  0  0  0
 31 32  1  0  0  0  0
 33 31  1  0  0  0  0
 34 31  1  0  0  0  0
 35 36  1  0  0  0  0
 37 38  1  0  0  0  0
 39 37  1  0  0  0  0
M  END
>  <minimizedAffinity>
-11.6642771

$$$$

 OpenBabel11232420253D

 39 44  0  0  1  0  0  0  0  0999 V2000
    0.5960    5.6240   -6.8490 C   0  0  0  0  0  0  0  0  0  0  0  0
    1.4400    4.8190   -7.5550 N   0  0  0  0  0  0  0  0  0  0  0  0
    2.7140    5.2250   -7.7400 C   0  0  0  0  0  0  0  0  0  0  0  0
    3.5620    4.3000   -8.4910 C   0  0  0  0  0  3  0  0  0  0  0  0
    4.8450    4.6020   -8.7280 C   0  0  0  0  0  3  0  0  0  0  0  0
    5.3840    5.8240   -8.2620 C   0  0  0  0  0  0  0  0  0  0  0  0
    6.5940    6.3160   -8.3860 N   0  0  0  0  0  0  0  0  0  0  0  0
    6.6140    7.5360   -7.7760 N   0  0  0  0  0  0  0  0  0  0  0  0
    5.4140    7.7830   -7.2820 C   0  0  0  0  0  0  0  0  0  0  0  0
    4.5800    6.7110   -7.5500 N   0  0  0  0  0  0  0  0  0  0  0  0
    3.2190    6.4310   -7.2590 C   0  0  0  0  0  0  0  0  0  0  0  0
    2.3600    7.2430   -6.5290 C   0  0  0  0  0  3  0  0  0  0  0  0
    1.0200    6.8530   -6.3020 C   0  0  0  0  0  0  0  0  0  0  0  0
    0.1670    7.7340   -5.4850 C   0  0  0  0  0  0  0  0  0  0  0  0
   -0.8390    8.5130   -6.0840 C   0  0  0  0  0  3  0  0  0  0  0  0
   -1.6490    9.3530   -5.3170 C   0  0  0  0  0  3  0  0  0  0  0  0
   -1.4620    9.4330   -3.9400 C   0  0  0  0  0  3  0  0  0  0  0  0
   -0.4640    8.6770   -3.3300 C   0  0  0  0  0  3  0  0  0  0  0  0
    0.3470    7.8370   -4.0970 C   0  0  0  0  0  3  0  0  0  0  0  0
   -3.3930    3.8550   -6.4890 C   0  0  0  0  0  0  0  0  0  0  0  0
   -2.3230    3.5090   -5.6440 C   0  0  0  0  0  3  0  0  0  0  0  0
   -1.0530    4.0930   -5.7610 C   0  0  0  0  0  3  0  0  0  0  0  0
   -0.7690    5.0590   -6.7370 C   0  0  0  0  0  0  0  0  0  0  0  0
   -1.8200    5.4110   -7.5920 C   0  0  0  0  0  3  0  0  0  0  0  0
   -3.0970    4.8450   -7.4540 C   0  0  0  0  0  3  0  0  0  0  0  0
   -6.8140    1.5010   -8.7270 C   0  0  0  0  0  1  0  0  0  0  0  0
   -5.6250    2.2900   -8.2020 C   0  0  2  0  0  0  0  0  0  0  0  0
   -4.9990    1.7170   -6.8970 C   0  0  0  0  0  2  0  0  0  0  0  0
   -4.8400    3.1800   -6.3920 C   0  0  2  0  0  0  0  0  0  0  0  0
   -5.9830    3.5600   -7.3870 C   0  0  0  0  0  2  0  0  0  0  0  0
   -5.3100    3.3410   -4.9920 N   0  0  0  0  0  4  0  0  0  0  0  0
   -6.2740    3.0210   -4.8470 H   0  0  0  0  0  0  0  0  0  0  0  0
   -4.7160    2.8210   -4.3350 H   0  0  0  0  0  0  0  0  0  0  0  0
   -5.2640    4.3290   -4.7080 H   0  0  0  0  0  0  0  0  0  0  0  0
   -4.6750    2.5080   -9.2600 O   0  0  0  0  0  0  0  0  0  0  0  0
   -5.1800    2.7940  -10.0440 H   0  0  0  0  0  0  0  0  0  0  0  0
    5.0590    9.0300   -6.5810 C   0  0  0  0  0  3  0  0  0  0  0  0
    3.9890    9.6410   -7.1610 F   0  0  0  0  0  0  0  0  0  0  0  0
    4.7130    8.7940   -5.2860 F   0  0  0  0  0  0  0  0  0  0  0  0
  1 23  1  0  0  0  0
  1 13  1  0  0  0  0
  2  1  2  0  0  0  0
  3  2  1  0  0  0  0
  3 11  2  0  0  0  0
  4  3  1  0  0  0  0
  5  4  2  0  0  0  0
  5  6  1  0  0  0  0
  6 10  1  0  0  0  0
  7  6  2  0  0  0  0
  7  8  1  0  0  0  0
  8  9  2  0  0  0  0
  9 37  1  0  0  0  0
 10  9  1  0  0  0  0
 10 11  1  0  0  0  0
 11 12  1  0  0  0  0
 12 13  2  0  0  0  0
 13 14  1  0  0  0  0
 14 19  1  0  0  0  0
 15 14  2  0  0  0  0
 15 16  1  0  0  0  0
 16 17  2  0  0  0  0
 17 18  1  0  0  0  0
 19 18  2  0  0  0  0
 20 29  1  0  0  0  0
 20 21  1  0  0  0  0
 22 21  2  0  0  0  0
 23 22  1  0  0  0  0
 24 25  1  0  0  0  0
 24 23  2  0  0  0  0
 25 20  2  0  0  0  0
 27 26  1  6  0  0  0
 27 30  1  0  0  0  0
 27 28  1  0  0  0  0
 28 29  1  0  0  0  0
 29 31  1  1  0  0  0
 30 29  1  0  0  0  0
 31 32  1  0  0  0  0
 31 34  1  0  0  0  0
 31 33  1  0  0  0  0
 35 27  1  0  0  0  0
 36 35  1  0  0  0  0
 37 39  1  0  0  0  0
 38 37  1  0  0  0  0
M  END
>  <minimizedAffinity>
-11.3021688

$$$$

 OpenBabel11232420253D

 39 44  0  0  1  0  0  0  0  0999 V2000
   -0.3560    5.4750   -6.5190 C   0  0  0  0  0  0  0  0  0  0  0  0
   -0.3560    4.2300   -7.0740 N   0  0  0  0  0  0  0  0  0  0  0  0
   -1.5110    3.5330   -7.0920 C   0  0  0  0  0  0  0  0  0  0  0  0
   -1.4360    2.2140   -7.7190 C   0  0  0  0  0  3  0  0  0  0  0  0
   -2.5260    1.4390   -7.7960 C   0  0  0  0  0  3  0  0  0  0  0  0
   -3.7550    1.8900   -7.2600 C   0  0  0  0  0  0  0  0  0  0  0  0
   -4.9270    1.3000   -7.2210 N   0  0  0  0  0  0  0  0  0  0  0  0
   -5.7950    2.1380   -6.5840 N   0  0  0  0  0  0  0  0  0  0  0  0
   -5.1480    3.2360   -6.2370 C   0  0  0  0  0  0  0  0  0  0  0  0
   -3.8330    3.1430   -6.6570 N   0  0  0  0  0  0  0  0  0  0  0  0
   -2.7100    4.0080   -6.5650 C   0  0  0  0  0  0  0  0  0  0  0  0
   -2.7100    5.2830   -6.0120 C   0  0  0  0  0  3  0  0  0  0  0  0
   -1.5240    6.0530   -5.9800 C   0  0  0  0  0  0  0  0  0  0  0  0
   -1.5930    7.4140   -5.4200 C   0  0  0  0  0  0  0  0  0  0  0  0
   -1.4080    8.5370   -6.2460 C   0  0  0  0  0  3  0  0  0  0  0  0
   -1.4680    9.8300   -5.7220 C   0  0  0  0  0  3  0  0  0  0  0  0
   -1.7060   10.0210   -4.3640 C   0  0  0  0  0  3  0  0  0  0  0  0
   -1.8810    8.9200   -3.5280 C   0  0  0  0  0  3  0  0  0  0  0  0
   -1.8210    7.6270   -4.0520 C   0  0  0  0  0  3  0  0  0  0  0  0
    3.5450    7.4620   -6.6030 C   0  0  0  0  0  0  0  0  0  0  0  0
    2.5410    7.7860   -5.6730 C   0  0  0  0  0  3  0  0  0  0  0  0
    1.3000    7.1330   -5.6470 C   0  0  0  0  0  3  0  0  0  0  0  0
    0.9800    6.1150   -6.5570 C   0  0  0  0  0  0  0  0  0  0  0  0
    1.9650    5.7830   -7.4950 C   0  0  0  0  0  3  0  0  0  0  0  0
    3.2160    6.4200   -7.5000 C   0  0  0  0  0  3  0  0  0  0  0  0
    6.1890   11.0420   -5.0400 C   0  0  0  0  0  1  0  0  0  0  0  0
    5.1720    9.9880   -5.4460 C   0  0  2  0  0  0  0  0  0  0  0  0
    5.6810    8.5220   -5.3270 C   0  0  0  0  0  2  0  0  0  0  0  0
    4.9560    8.2150   -6.6680 C   0  0  2  0  0  0  0  0  0  0  0  0
    5.0470    9.7440   -6.9720 C   0  0  0  0  0  2  0  0  0  0  0  0
    5.8190    7.4550   -7.6090 N   0  0  0  0  0  4  0  0  0  0  0  0
    6.7200    7.9120   -7.7920 H   0  0  0  0  0  0  0  0  0  0  0  0
    6.0230    6.5130   -7.2540 H   0  0  0  0  0  0  0  0  0  0  0  0
    5.3430    7.3300   -8.5130 H   0  0  0  0  0  0  0  0  0  0  0  0
    3.9220   10.2290   -4.7760 O   0  0  0  0  0  0  0  0  0  0  0  0
    3.7360   11.1840   -4.8520 H   0  0  0  0  0  0  0  0  0  0  0  0
   -5.7680    4.3520   -5.4990 C   0  0  0  0  0  3  0  0  0  0  0  0
   -6.1640    5.3460   -6.3410 F   0  0  0  0  0  0  0  0  0  0  0  0
   -6.8800    3.9490   -4.8270 F   0  0  0  0  0  0  0  0  0  0  0  0
  1 13  1  0  0  0  0
  2  1  2  0  0  0  0
  3  2  1  0  0  0  0
  3 11  2  0  0  0  0
  4  3  1  0  0  0  0
  5  4  2  0  0  0  0
  5  6  1  0  0  0  0
  6  7  2  0  0  0  0
  6 10  1  0  0  0  0
  7  8  1  0  0  0  0
  8  9  2  0  0  0  0
  9 37  1  0  0  0  0
 10 11  1  0  0  0  0
 10  9  1  0  0  0  0
 11 12  1  0  0  0  0
 12 13  2  0  0  0  0
 13 14  1  0  0  0  0
 14 19  1  0  0  0  0
 15 16  1  0  0  0  0
 15 14  2  0  0  0  0
 16 17  2  0  0  0  0
 17 18  1  0  0  0  0
 19 18  2  0  0  0  0
 20 21  1  0  0  0  0
 21 22  2  0  0  0  0
 23  1  1  0  0  0  0
 23 22  1  0  0  0  0
 24 23  2  0  0  0  0
 25 24  1  0  0  0  0
 25 20  2  0  0  0  0
 27 28  1  0  0  0  0
 27 26  1  1  0  0  0
 27 35  1  0  0  0  0
 29 31  1  6  0  0  0
 29 20  1  0  0  0  0
 29 28  1  0  0  0  0
 30 29  1  0  0  0  0
 30 27  1  0  0  0  0
 31 33  1  0  0  0  0
 32 31  1  0  0  0  0
 34 31  1  0  0  0  0
 36 35  1  0  0  0  0
 37 39  1  0  0  0  0
 38 37  1  0  0  0  0
M  END
>  <minimizedAffinity>
-11.2799749

$$$$

 OpenBabel11232420253D

 39 44  0  0  1  0  0  0  0  0999 V2000
    0.4350    6.2570   -6.2600 C   0  0  0  0  0  0  0  0  0  0  0  0
    0.4140    7.2370   -5.3130 N   0  0  0  0  0  0  0  0  0  0  0  0
    1.5560    7.9060   -5.0510 C   0  0  0  0  0  0  0  0  0  0  0  0
    1.4490    8.9540   -4.0370 C   0  0  0  0  0  3  0  0  0  0  0  0
    2.5210    9.6840   -3.7030 C   0  0  0  0  0  3  0  0  0  0  0  0
    3.7680    9.4360   -4.3240 C   0  0  0  0  0  0  0  0  0  0  0  0
    4.9310   10.0170   -4.1470 N   0  0  0  0  0  0  0  0  0  0  0  0
    5.8320    9.4110   -4.9720 N   0  0  0  0  0  0  0  0  0  0  0  0
    5.2140    8.4600   -5.6510 C   0  0  0  0  0  0  0  0  0  0  0  0
    3.8780    8.4360   -5.2880 N   0  0  0  0  0  0  0  0  0  0  0  0
    2.7680    7.6470   -5.6880 C   0  0  0  0  0  0  0  0  0  0  0  0
    2.7830    6.6560   -6.6620 C   0  0  0  0  0  3  0  0  0  0  0  0
    1.6070    5.9360   -6.9750 C   0  0  0  0  0  0  0  0  0  0  0  0
    1.6730    4.9260   -8.0470 C   0  0  0  0  0  0  0  0  0  0  0  0
    2.8940    4.6340   -8.6790 C   0  0  0  0  0  3  0  0  0  0  0  0
    2.9640    3.6810   -9.6980 C   0  0  0  0  0  3  0  0  0  0  0  0
    1.8130    3.0110  -10.1050 C   0  0  0  0  0  3  0  0  0  0  0  0
    0.5930    3.2950   -9.4970 C   0  0  0  0  0  3  0  0  0  0  0  0
    0.5230    4.2480   -8.4780 C   0  0  0  0  0  3  0  0  0  0  0  0
   -3.5040    4.4210   -6.7910 C   0  0  0  0  0  0  0  0  0  0  0  0
   -3.0480    5.4960   -7.5750 C   0  0  0  0  0  3  0  0  0  0  0  0
   -1.7790    6.0680   -7.4040 C   0  0  0  0  0  3  0  0  0  0  0  0
   -0.8830    5.6020   -6.4310 C   0  0  0  0  0  0  0  0  0  0  0  0
   -1.3210    4.5370   -5.6370 C   0  0  0  0  0  3  0  0  0  0  0  0
   -2.5820    3.9490   -5.8290 C   0  0  0  0  0  3  0  0  0  0  0  0
   -6.0270    0.5220   -7.6170 C   0  0  0  0  0  1  0  0  0  0  0  0
   -5.0430    1.6620   -7.4130 C   0  0  2  0  0  0  0  0  0  0  0  0
   -5.2850    2.4980   -6.1230 C   0  0  0  0  0  2  0  0  0  0  0  0
   -4.9590    3.7740   -6.9500 C   0  0  2  0  0  0  0  0  0  0  0  0
   -5.3480    2.9510   -8.2180 C   0  0  0  0  0  2  0  0  0  0  0  0
   -5.9510    4.8560   -6.7210 N   0  0  0  0  0  4  0  0  0  0  0  0
   -6.9190    4.5630   -6.8920 H   0  0  0  0  0  0  0  0  0  0  0  0
   -5.9060    5.2080   -5.7570 H   0  0  0  0  0  0  0  0  0  0  0  0
   -5.7550    5.6600   -7.3340 H   0  0  0  0  0  0  0  0  0  0  0  0
   -3.6950    1.1770   -7.5510 O   0  0  0  0  0  0  0  0  0  0  0  0
   -3.6740    0.6110   -8.3460 H   0  0  0  0  0  0  0  0  0  0  0  0
    5.8870    7.5750   -6.6170 C   0  0  0  0  0  3  0  0  0  0  0  0
    6.2250    8.2440   -7.7550 F   0  0  0  0  0  0  0  0  0  0  0  0
    7.0440    7.0690   -6.1100 F   0  0  0  0  0  0  0  0  0  0  0  0
  1  2  1  0  0  0  0
  2  3  2  0  0  0  0
  3  4  1  0  0  0  0
  4  5  2  0  0  0  0
  6  7  2  0  0  0  0
  6  5  1  0  0  0  0
  8  7  1  0  0  0  0
  9 10  1  0  0  0  0
  9  8  2  0  0  0  0
 10  6  1  0  0  0  0
 11 10  1  0  0  0  0
 11  3  1  0  0  0  0
 12 11  2  0  0  0  0
 13 12  1  0  0  0  0
 13  1  2  0  0  0  0
 14 13  1  0  0  0  0
 15 14  2  0  0  0  0
 16 15  1  0  0  0  0
 17 16  2  0  0  0  0
 17 18  1  0  0  0  0
 18 19  2  0  0  0  0
 19 14  1  0  0  0  0
 20 25  1  0  0  0  0
 21 22  1  0  0  0  0
 21 20  2  0  0  0  0
 22 23  2  0  0  0  0
 23  1  1  0  0  0  0
 23 24  1  0  0  0  0
 25 24  2  0  0  0  0
 27 26  1  6  0  0  0
 27 28  1  0  0  0  0
 29 20  1  0  0  0  0
 29 31  1  1  0  0  0
 29 28  1  0  0  0  0
 30 27  1  0  0  0  0
 30 29  1  0  0  0  0
 31 33  1  0  0  0  0
 32 31  1  0  0  0  0
 34 31  1  0  0  0  0
 35 27  1  0  0  0  0
 36 35  1  0  0  0  0
 37 39  1  0  0  0  0
 37  9  1  0  0  0  0
 38 37  1  0  0  0  0
M  END
>  <minimizedAffinity>
-10.9580879

$$$$

 OpenBabel11232420253D

 39 44  0  0  1  0  0  0  0  0999 V2000
   -0.4740    4.9200   -6.8290 C   0  0  0  0  0  0  0  0  0  0  0  0
   -0.8540    3.7220   -7.3580 N   0  0  0  0  0  0  0  0  0  0  0  0
   -2.1060    3.2800   -7.1180 C   0  0  0  0  0  0  0  0  0  0  0  0
   -2.4450    1.9960   -7.7330 C   0  0  0  0  0  3  0  0  0  0  0  0
   -3.6630    1.4670   -7.5650 C   0  0  0  0  0  3  0  0  0  0  0  0
   -4.6270    2.1430   -6.7800 C   0  0  0  0  0  0  0  0  0  0  0  0
   -5.8610    1.8080   -6.4830 N   0  0  0  0  0  0  0  0  0  0  0  0
   -6.3780    2.7840   -5.6820 N   0  0  0  0  0  0  0  0  0  0  0  0
   -5.4560    3.7120   -5.4950 C   0  0  0  0  0  0  0  0  0  0  0  0
   -4.3100    3.3630   -6.1880 N   0  0  0  0  0  0  0  0  0  0  0  0
   -3.0380    3.9740   -6.3500 C   0  0  0  0  0  0  0  0  0  0  0  0
   -2.6520    5.2000   -5.8240 C   0  0  0  0  0  3  0  0  0  0  0  0
   -1.3530    5.7070   -6.0570 C   0  0  0  0  0  0  0  0  0  0  0  0
   -1.0130    7.0330   -5.5100 C   0  0  0  0  0  0  0  0  0  0  0  0
   -0.4340    7.1530   -4.2350 C   0  0  0  0  0  3  0  0  0  0  0  0
   -0.1120    8.4060   -3.7080 C   0  0  0  0  0  3  0  0  0  0  0  0
   -0.3730    9.5580   -4.4450 C   0  0  0  0  0  3  0  0  0  0  0  0
   -0.9560    9.4600   -5.7060 C   0  0  0  0  0  3  0  0  0  0  0  0
   -1.2770    8.2070   -6.2330 C   0  0  0  0  0  3  0  0  0  0  0  0
    3.6900    5.8470   -7.8150 C   0  0  0  0  0  0  0  0  0  0  0  0
    3.0130    4.7260   -8.3280 C   0  0  0  0  0  3  0  0  0  0  0  0
    1.6750    4.4460   -8.0150 C   0  0  0  0  0  3  0  0  0  0  0  0
    0.9270    5.2700   -7.1620 C   0  0  0  0  0  0  0  0  0  0  0  0
    1.5850    6.3880   -6.6370 C   0  0  0  0  0  3  0  0  0  0  0  0
    2.9160    6.6790   -6.9740 C   0  0  0  0  0  3  0  0  0  0  0  0
    7.3310    5.2100  -10.7460 C   0  0  0  0  0  1  0  0  0  0  0  0
    6.0600    5.2580   -9.9130 C   0  0  2  0  0  0  0  0  0  0  0  0
    5.5790    6.6940   -9.5560 C   0  0  0  0  0  2  0  0  0  0  0  0
    5.2240    6.1680   -8.1360 C   0  0  2  0  0  0  0  0  0  0  0  0
    6.2570    5.0240   -8.3930 C   0  0  0  0  0  2  0  0  0  0  0  0
    5.7210    7.0710   -7.0660 N   0  0  0  0  0  4  0  0  0  0  0  0
    6.7270    7.2630   -7.1300 H   0  0  0  0  0  0  0  0  0  0  0  0
    5.2370    7.9770   -7.0860 H   0  0  0  0  0  0  0  0  0  0  0  0
    5.5390    6.6640   -6.1380 H   0  0  0  0  0  0  0  0  0  0  0  0
    5.0460    4.4350  -10.5170 O   0  0  0  0  0  0  0  0  0  0  0  0
    5.4710    3.5920  -10.7640 H   0  0  0  0  0  0  0  0  0  0  0  0
   -5.6560    4.9050   -4.6520 C   0  0  0  0  0  3  0  0  0  0  0  0
   -6.9530    5.3180   -4.6740 F   0  0  0  0  0  0  0  0  0  0  0  0
   -5.3530    4.6530   -3.3500 F   0  0  0  0  0  0  0  0  0  0  0  0
  1 13  1  0  0  0  0
  2  3  1  0  0  0  0
  2  1  2  0  0  0  0
  3 11  2  0  0  0  0
  4  5  2  0  0  0  0
  4  3  1  0  0  0  0
  5  6  1  0  0  0  0
  6  7  2  0  0  0  0
  6 10  1  0  0  0  0
  7  8  1  0  0  0  0
  8  9  2  0  0  0  0
  9 37  1  0  0  0  0
 10  9  1  0  0  0  0
 11 10  1  0  0  0  0
 11 12  1  0  0  0  0
 13 12  2  0  0  0  0
 13 14  1  0  0  0  0
 14 15  1  0  0  0  0
 15 16  2  0  0  0  0
 17 16  1  0  0  0  0
 18 17  2  0  0  0  0
 19 18  1  0  0  0  0
 19 14  2  0  0  0  0
 20 25  1  0  0  0  0
 21 22  1  0  0  0  0
 21 20  2  0  0  0  0
 22 23  2  0  0  0  0
 23  1  1  0  0  0  0
 23 24  1  0  0  0  0
 25 24  2  0  0  0  0
 27 26  1  6  0  0  0
 27 28  1  0  0  0  0
 27 30  1  0  0  0  0
 28 29  1  0  0  0  0
 29 20  1  0  0  0  0
 29 31  1  1  0  0  0
 30 29  1  0  0  0  0
 31 34  1  0  0  0  0
 32 31  1  0  0  0  0
 33 31  1  0  0  0  0
 35 27  1  0  0  0  0
 36 35  1  0  0  0  0
 37 39  1  0  0  0  0
 38 37  1  0  0  0  0
M  END
>  <minimizedAffinity>
-10.7887707

$$$$

 OpenBabel11232420253D

 39 44  0  0  1  0  0  0  0  0999 V2000
   -0.4520    4.9160   -6.9030 C   0  0  0  0  0  0  0  0  0  0  0  0
   -0.6350    3.6720   -7.4290 N   0  0  0  0  0  0  0  0  0  0  0  0
   -1.8480    3.0940   -7.3130 C   0  0  0  0  0  0  0  0  0  0  0  0
   -1.9710    1.7680   -7.9180 C   0  0  0  0  0  3  0  0  0  0  0  0
   -3.1340    1.1070   -7.8650 C   0  0  0  0  0  3  0  0  0  0  0  0
   -4.2490    1.6840   -7.2140 C   0  0  0  0  0  0  0  0  0  0  0  0
   -5.4630    1.2160   -7.0410 N   0  0  0  0  0  0  0  0  0  0  0  0
   -6.1720    2.1430   -6.3350 N   0  0  0  0  0  0  0  0  0  0  0  0
   -5.3860    3.1740   -6.0790 C   0  0  0  0  0  0  0  0  0  0  0  0
   -4.1380    2.9440   -6.6320 N   0  0  0  0  0  0  0  0  0  0  0  0
   -2.9320    3.6930   -6.6740 C   0  0  0  0  0  0  0  0  0  0  0  0
   -2.7470    4.9670   -6.1500 C   0  0  0  0  0  3  0  0  0  0  0  0
   -1.4940    5.6140   -6.2580 C   0  0  0  0  0  0  0  0  0  0  0  0
   -1.3680    6.9810   -5.7210 C   0  0  0  0  0  0  0  0  0  0  0  0
   -1.3920    8.0910   -6.5830 C   0  0  0  0  0  3  0  0  0  0  0  0
   -1.2690    9.3900   -6.0830 C   0  0  0  0  0  3  0  0  0  0  0  0
   -1.1130    9.5970   -4.7150 C   0  0  0  0  0  3  0  0  0  0  0  0
   -1.0770    8.5080   -3.8470 C   0  0  0  0  0  3  0  0  0  0  0  0
   -1.2000    7.2100   -4.3470 C   0  0  0  0  0  3  0  0  0  0  0  0
    3.6630    6.2940   -7.4830 C   0  0  0  0  0  0  0  0  0  0  0  0
    3.1010    5.2330   -8.2150 C   0  0  0  0  0  3  0  0  0  0  0  0
    1.7770    4.8090   -8.0300 C   0  0  0  0  0  3  0  0  0  0  0  0
    0.9290    5.4170   -7.0930 C   0  0  0  0  0  0  0  0  0  0  0  0
    1.4730    6.4710   -6.3490 C   0  0  0  0  0  3  0  0  0  0  0  0
    2.7910    6.9100   -6.5570 C   0  0  0  0  0  3  0  0  0  0  0  0
    6.6410    9.9350   -7.8340 C   0  0  0  0  0  1  0  0  0  0  0  0
    5.5240    8.9080   -7.7450 C   0  0  2  0  0  0  0  0  0  0  0  0
    5.7350    7.8210   -6.6510 C   0  0  0  0  0  2  0  0  0  0  0  0
    5.1800    6.7730   -7.6580 C   0  0  2  0  0  0  0  0  0  0  0  0
    5.5920    7.7660   -8.7910 C   0  0  0  0  0  2  0  0  0  0  0  0
    6.0250    5.5530   -7.7160 N   0  0  0  0  0  4  0  0  0  0  0  0
    7.0110    5.7510   -7.9220 H   0  0  0  0  0  0  0  0  0  0  0  0
    5.9980    5.0350   -6.8300 H   0  0  0  0  0  0  0  0  0  0  0  0
    5.6790    4.9090   -8.4410 H   0  0  0  0  0  0  0  0  0  0  0  0
    4.2500    9.5740   -7.6710 O   0  0  0  0  0  0  0  0  0  0  0  0
    4.2550   10.2760   -8.3480 H   0  0  0  0  0  0  0  0  0  0  0  0
   -5.8110    4.3540   -5.3040 C   0  0  0  0  0  3  0  0  0  0  0  0
   -6.2240    5.3630   -6.1200 F   0  0  0  0  0  0  0  0  0  0  0  0
   -6.8600    4.0640   -4.4880 F   0  0  0  0  0  0  0  0  0  0  0  0
  1 13  1  0  0  0  0
  2  3  1  0  0  0  0
  2  1  2  0  0  0  0
  3 11  2  0  0  0  0
  4  5  2  0  0  0  0
  4  3  1  0  0  0  0
  5  6  1  0  0  0  0
  6  7  2  0  0  0  0
  6 10  1  0  0  0  0
  7  8  1  0  0  0  0
  8  9  2  0  0  0  0
  9 37  1  0  0  0  0
 10  9  1  0  0  0  0
 11 10  1  0  0  0  0
 11 12  1  0  0  0  0
 13 12  2  0  0  0  0
 13 14  1  0  0  0  0
 14 19  1  0  0  0  0
 15 16  1  0  0  0  0
 15 14  2  0  0  0  0
 16 17  2  0  0  0  0
 17 18  1  0  0  0  0
 19 18  2  0  0  0  0
 20 25  1  0  0  0  0
 21 22  1  0  0  0  0
 21 20  2  0  0  0  0
 22 23  2  0  0  0  0
 23  1  1  0  0  0  0
 23 24  1  0  0  0  0
 25 24  2  0  0  0  0
 27 26  1  6  0  0  0
 27 35  1  0  0  0  0
 27 28  1  0  0  0  0
 29 31  1  6  0  0  0
 29 20  1  0  0  0  0
 29 28  1  0  0  0  0
 30 27  1  0  0  0  0
 30 29  1  0  0  0  0
 31 33  1  0  0  0  0
 32 31  1  0  0  0  0
 34 31  1  0  0  0  0
 36 35  1  0  0  0  0
 37 39  1  0  0  0  0
 38 37  1  0  0  0  0
M  END
>  <minimizedAffinity>
-10.7752151

$$$$

 OpenBabel11232420253D

 39 44  0  0  1  0  0  0  0  0999 V2000
    0.3220    6.1740   -6.2530 C   0  0  0  0  0  0  0  0  0  0  0  0
   -0.1820    7.0040   -5.2970 N   0  0  0  0  0  0  0  0  0  0  0  0
    0.6510    7.8850   -4.7030 C   0  0  0  0  0  0  0  0  0  0  0  0
    0.0330    8.7530   -3.7010 C   0  0  0  0  0  3  0  0  0  0  0  0
    0.7670    9.6670   -3.0550 C   0  0  0  0  0  3  0  0  0  0  0  0
    2.1490    9.7910   -3.3310 C   0  0  0  0  0  0  0  0  0  0  0  0
    3.0440   10.6020   -2.8180 N   0  0  0  0  0  0  0  0  0  0  0  0
    4.2450   10.3240   -3.4020 N   0  0  0  0  0  0  0  0  0  0  0  0
    4.0760    9.3420   -4.2710 C   0  0  0  0  0  0  0  0  0  0  0  0
    2.7450    8.9650   -4.2810 N   0  0  0  0  0  0  0  0  0  0  0  0
    2.0070    7.9910   -5.0050 C   0  0  0  0  0  0  0  0  0  0  0  0
    2.5150    7.1530   -5.9900 C   0  0  0  0  0  3  0  0  0  0  0  0
    1.6760    6.2210   -6.6440 C   0  0  0  0  0  0  0  0  0  0  0  0
    2.2600    5.3880   -7.7100 C   0  0  0  0  0  0  0  0  0  0  0  0
    1.4500    4.5220   -8.4650 C   0  0  0  0  0  3  0  0  0  0  0  0
    1.9960    3.7260   -9.4750 C   0  0  0  0  0  3  0  0  0  0  0  0
    3.3620    3.7780   -9.7400 C   0  0  0  0  0  3  0  0  0  0  0  0
    4.1820    4.6230   -8.9960 C   0  0  0  0  0  3  0  0  0  0  0  0
    3.6360    5.4190   -7.9860 C   0  0  0  0  0  3  0  0  0  0  0  0
   -2.6290    3.3740   -7.8720 C   0  0  0  0  0  0  0  0  0  0  0  0
   -1.7480    3.0390   -6.8280 C   0  0  0  0  0  3  0  0  0  0  0  0
   -0.8160    3.9490   -6.3090 C   0  0  0  0  0  3  0  0  0  0  0  0
   -0.7000    5.2550   -6.8060 C   0  0  0  0  0  0  0  0  0  0  0  0
   -1.5650    5.6050   -7.8490 C   0  0  0  0  0  3  0  0  0  0  0  0
   -2.5150    4.7000   -8.3480 C   0  0  0  0  0  3  0  0  0  0  0  0
   -6.6730    1.0150   -7.2980 C   0  0  0  0  0  1  0  0  0  0  0  0
   -5.3860    1.8230   -7.2730 C   0  0  2  0  0  0  0  0  0  0  0  0
   -5.1820    2.7460   -8.5090 C   0  0  0  0  0  2  0  0  0  0  0  0
   -3.6790    2.3420   -8.4980 C   0  0  2  0  0  0  0  0  0  0  0  0
   -4.1160    1.0570   -7.7250 C   0  0  0  0  0  2  0  0  0  0  0  0
   -3.1890    1.9790   -9.8530 N   0  0  0  0  0  4  0  0  0  0  0  0
   -3.7480    1.2460  -10.3040 H   0  0  0  0  0  0  0  0  0  0  0  0
   -3.1880    2.7910  -10.4810 H   0  0  0  0  0  0  0  0  0  0  0  0
   -2.2160    1.6460   -9.8060 H   0  0  0  0  0  0  0  0  0  0  0  0
   -5.2570    2.5000   -6.0100 O   0  0  0  0  0  0  0  0  0  0  0  0
   -5.4750    1.8520   -5.3140 H   0  0  0  0  0  0  0  0  0  0  0  0
    5.1710    8.7570   -5.0670 C   0  0  0  0  0  3  0  0  0  0  0  0
    5.3660    9.4450   -6.2260 F   0  0  0  0  0  0  0  0  0  0  0  0
    6.3520    8.7940   -4.3930 F   0  0  0  0  0  0  0  0  0  0  0  0
  1  2  1  0  0  0  0
  2  3  2  0  0  0  0
  3  4  1  0  0  0  0
  4  5  2  0  0  0  0
  6  5  1  0  0  0  0
  6  7  2  0  0  0  0
  8  7  1  0  0  0  0
  9  8  2  0  0  0  0
 10  9  1  0  0  0  0
 10  6  1  0  0  0  0
 11  3  1  0  0  0  0
 11 10  1  0  0  0  0
 12 11  2  0  0  0  0
 13  1  2  0  0  0  0
 13 12  1  0  0  0  0
 14 13  1  0  0  0  0
 15 14  2  0  0  0  0
 16 15  1  0  0  0  0
 17 16  2  0  0  0  0
 17 18  1  0  0  0  0
 18 19  2  0  0  0  0
 19 14  1  0  0  0  0
 20 21  1  0  0  0  0
 21 22  2  0  0  0  0
 23 22  1  0  0  0  0
 23  1  1  0  0  0  0
 24 23  2  0  0  0  0
 25 20  2  0  0  0  0
 25 24  1  0  0  0  0
 27 26  1  6  0  0  0
 27 35  1  0  0  0  0
 28 29  1  0  0  0  0
 28 27  1  0  0  0  0
 29 31  1  6  0  0  0
 29 20  1  0  0  0  0
 29 30  1  0  0  0  0
 30 27  1  0  0  0  0
 31 34  1  0  0  0  0
 32 31  1  0  0  0  0
 33 31  1  0  0  0  0
 35 36  1  0  0  0  0
 37 39  1  0  0  0  0
 37  9  1  0  0  0  0
 38 37  1  0  0  0  0
M  END
>  <minimizedAffinity>
-10.7145367

$$$$
