
 OpenBabel11232420253D

 39 44  0  0  1  0  0  0  0  0999 V2000
    0.5960    5.6240   -6.8490 C   0  0  0  0  0  0  0  0  0  0  0  0
    1.4400    4.8190   -7.5550 N   0  0  0  0  0  0  0  0  0  0  0  0
    2.7140    5.2250   -7.7400 C   0  0  0  0  0  0  0  0  0  0  0  0
    3.5620    4.3000   -8.4910 C   0  0  0  0  0  3  0  0  0  0  0  0
    4.8450    4.6020   -8.7280 C   0  0  0  0  0  3  0  0  0  0  0  0
    5.3840    5.8240   -8.2620 C   0  0  0  0  0  0  0  0  0  0  0  0
    6.5940    6.3160   -8.3860 N   0  0  0  0  0  0  0  0  0  0  0  0
    6.6140    7.5360   -7.7760 N   0  0  0  0  0  0  0  0  0  0  0  0
    5.4140    7.7830   -7.2820 C   0  0  0  0  0  0  0  0  0  0  0  0
    4.5800    6.7110   -7.5500 N   0  0  0  0  0  0  0  0  0  0  0  0
    3.2190    6.4310   -7.2590 C   0  0  0  0  0  0  0  0  0  0  0  0
    2.3600    7.2430   -6.5290 C   0  0  0  0  0  3  0  0  0  0  0  0
    1.0200    6.8530   -6.3020 C   0  0  0  0  0  0  0  0  0  0  0  0
    0.1670    7.7340   -5.4850 C   0  0  0  0  0  0  0  0  0  0  0  0
   -0.8390    8.5130   -6.0840 C   0  0  0  0  0  3  0  0  0  0  0  0
   -1.6490    9.3530   -5.3170 C   0  0  0  0  0  3  0  0  0  0  0  0
   -1.4620    9.4330   -3.9400 C   0  0  0  0  0  3  0  0  0  0  0  0
   -0.4640    8.6770   -3.3300 C   0  0  0  0  0  3  0  0  0  0  0  0
    0.3470    7.8370   -4.0970 C   0  0  0  0  0  3  0  0  0  0  0  0
   -3.3930    3.8550   -6.4890 C   0  0  0  0  0  0  0  0  0  0  0  0
   -2.3230    3.5090   -5.6440 C   0  0  0  0  0  3  0  0  0  0  0  0
   -1.0530    4.0930   -5.7610 C   0  0  0  0  0  3  0  0  0  0  0  0
   -0.7690    5.0590   -6.7370 C   0  0  0  0  0  0  0  0  0  0  0  0
   -1.8200    5.4110   -7.5920 C   0  0  0  0  0  3  0  0  0  0  0  0
   -3.0970    4.8450   -7.4540 C   0  0  0  0  0  3  0  0  0  0  0  0
   -6.8140    1.5010   -8.7270 C   0  0  0  0  0  1  0  0  0  0  0  0
   -5.6250    2.2900   -8.2020 C   0  0  2  0  0  0  0  0  0  0  0  0
   -4.9990    1.7170   -6.8970 C   0  0  0  0  0  2  0  0  0  0  0  0
   -4.8400    3.1800   -6.3920 C   0  0  2  0  0  0  0  0  0  0  0  0
   -5.9830    3.5600   -7.3870 C   0  0  0  0  0  2  0  0  0  0  0  0
   -5.3100    3.3410   -4.9920 N   0  0  0  0  0  4  0  0  0  0  0  0
   -6.2740    3.0210   -4.8470 H   0  0  0  0  0  0  0  0  0  0  0  0
   -4.7160    2.8210   -4.3350 H   0  0  0  0  0  0  0  0  0  0  0  0
   -5.2640    4.3290   -4.7080 H   0  0  0  0  0  0  0  0  0  0  0  0
   -4.6750    2.5080   -9.2600 O   0  0  0  0  0  0  0  0  0  0  0  0
   -5.1800    2.7940  -10.0440 H   0  0  0  0  0  0  0  0  0  0  0  0
    5.0590    9.0300   -6.5810 C   0  0  0  0  0  3  0  0  0  0  0  0
    3.9890    9.6410   -7.1610 F   0  0  0  0  0  0  0  0  0  0  0  0
    4.7130    8.7940   -5.2860 F   0  0  0  0  0  0  0  0  0  0  0  0
  1 23  1  0  0  0  0
  1 13  1  0  0  0  0
  2  1  2  0  0  0  0
  3  2  1  0  0  0  0
  3 11  2  0  0  0  0
  4  3  1  0  0  0  0
  5  4  2  0  0  0  0
  5  6  1  0  0  0  0
  6 10  1  0  0  0  0
  7  6  2  0  0  0  0
  7  8  1  0  0  0  0
  8  9  2  0  0  0  0
  9 37  1  0  0  0  0
 10  9  1  0  0  0  0
 10 11  1  0  0  0  0
 11 12  1  0  0  0  0
 12 13  2  0  0  0  0
 13 14  1  0  0  0  0
 14 19  1  0  0  0  0
 15 14  2  0  0  0  0
 15 16  1  0  0  0  0
 16 17  2  0  0  0  0
 17 18  1  0  0  0  0
 19 18  2  0  0  0  0
 20 29  1  0  0  0  0
 20 21  1  0  0  0  0
 22 21  2  0  0  0  0
 23 22  1  0  0  0  0
 24 25  1  0  0  0  0
 24 23  2  0  0  0  0
 25 20  2  0  0  0  0
 27 26  1  6  0  0  0
 27 30  1  0  0  0  0
 27 28  1  0  0  0  0
 28 29  1  0  0  0  0
 29 31  1  1  0  0  0
 30 29  1  0  0  0  0
 31 32  1  0  0  0  0
 31 34  1  0  0  0  0
 31 33  1  0  0  0  0
 35 27  1  0  0  0  0
 36 35  1  0  0  0  0
 37 39  1  0  0  0  0
 38 37  1  0  0  0  0
M  END
>  <minimizedAffinity>
-11.3021688

$$$$
