
 OpenBabel11232420123D

 37 41  0  0  1  0  0  0  0  0999 V2000
   -3.4530    0.6550  -20.4800 C   0  0  1  0  0  3  0  0  0  0  0  0
   -3.0680    0.3440  -19.2520 N   0  0  0  0  0  2  0  0  0  0  0  0
   -2.0980    1.2390  -18.8850 C   0  0  2  0  0  3  0  0  0  0  0  0
   -1.7730    2.0170  -19.9680 C   0  0  0  0  0  2  0  0  0  0  0  0
   -2.5400    1.5430  -21.0090 N   0  0  0  0  0  0  0  0  0  0  0  0
   -1.5130    1.2860  -17.5540 C   0  0  0  0  0  0  0  0  0  0  0  0
   -1.2610    2.5320  -16.9610 C   0  0  0  0  0  3  0  0  0  0  0  0
   -0.7100    2.6140  -15.6800 C   0  0  0  0  0  3  0  0  0  0  0  0
   -0.3970    1.4480  -14.9930 C   0  0  0  0  0  0  0  0  0  0  0  0
    0.1230    1.5420  -13.7600 F   0  0  0  0  0  0  0  0  0  0  0  0
   -0.6110    0.1920  -15.5630 C   0  0  0  0  0  0  0  0  0  0  0  0
   -0.2730   -1.0500  -14.7950 C   0  0  0  0  0  1  0  0  0  0  0  0
   -1.1820    0.1200  -16.8430 C   0  0  0  0  0  3  0  0  0  0  0  0
   -6.9040   -1.8400  -21.2770 N   0  0  0  0  0  0  0  0  0  0  0  0
   -5.6610   -2.1320  -21.9870 C   0  0  0  0  0  2  0  0  0  0  0  0
   -4.4600   -1.4510  -21.3350 C   0  0  0  0  0  2  0  0  0  0  0  0
   -4.7140    0.0510  -21.0700 C   0  0  1  0  0  3  0  0  0  0  0  0
   -6.0200    0.2290  -20.2960 C   0  0  0  0  0  2  0  0  0  0  0  0
   -7.1910   -0.4360  -21.0270 C   0  0  0  0  0  2  0  0  0  0  0  0
   -6.3370   -3.0480  -19.2520 C   0  0  0  0  0  0  0  0  0  0  0  0
   -6.7900   -3.9330  -18.2790 C   0  0  0  0  0  0  0  0  0  0  0  0
   -5.9890   -4.3610  -17.2350 N   0  0  0  0  0  0  0  0  0  0  0  0
   -8.0110   -4.4790  -18.3020 N   0  0  0  0  0  0  0  0  0  0  0  0
   -8.8130   -4.0840  -19.2910 C   0  0  0  0  0  3  0  0  0  0  0  0
   -8.4970   -3.2320  -20.2710 N   0  0  0  0  0  0  0  0  0  0  0  0
   -7.2560   -2.7170  -20.2480 C   0  0  0  0  0  0  0  0  0  0  0  0
   -6.4730   -5.0170  -16.6320 H   0  0  0  0  0  0  0  0  0  0  0  0
   -5.4290   -3.6650  -16.7630 H   0  0  0  0  0  0  0  0  0  0  0  0
   -4.6160   -1.9750  -17.7720 C   0  0  0  0  0  1  0  0  0  0  0  0
   -4.9650   -2.4280  -19.1830 C   0  0  0  0  0  2  0  0  0  0  0  0
   -2.2210    1.8620  -22.3910 C   0  0  0  0  0  2  0  0  0  0  0  0
   -1.4360    0.7720  -23.1150 C   0  0  0  0  0  3  0  0  0  0  0  0
   -0.9900   -0.4840  -22.3300 C   0  0  0  0  0  2  0  0  0  0  0  0
   -1.2600   -1.2840  -23.5400 N   0  0  0  0  0  4  0  0  0  0  0  0
   -2.0260   -2.5150  -23.2150 C   0  0  0  0  0  1  0  0  0  0  0  0
   -2.1440   -0.2250  -24.0620 C   0  0  0  0  0  2  0  0  0  0  0  0
   -0.4280   -1.4630  -24.1200 H   0  0  0  0  0  0  0  0  0  0  0  0
  1  2  1  6  0  0  0
  2  3  1  0  0  0  0
  3  6  1  6  0  0  0
  4  3  1  0  0  0  0
  5  1  1  0  0  0  0
  5  4  1  0  0  0  0
  6  7  2  0  0  0  0
  6 13  1  0  0  0  0
  7  8  1  0  0  0  0
  8  9  2  0  0  0  0
  9 10  1  0  0  0  0
 11  9  1  0  0  0  0
 11 12  1  0  0  0  0
 13 11  2  0  0  0  0
 14 19  1  0  0  0  0
 14 26  1  0  0  0  0
 15 16  1  0  0  0  0
 15 14  1  0  0  0  0
 17 16  1  1  0  0  0
 17  1  1  0  0  0  0
 17 18  1  0  0  0  0
 19 18  1  0  0  0  0
 20 30  1  0  0  0  0
 20 21  1  0  0  0  0
 21 22  1  0  0  0  0
 22 28  1  0  0  0  0
 22 27  1  0  0  0  0
 23 21  2  0  0  0  0
 24 23  1  0  0  0  0
 25 26  1  0  0  0  0
 25 24  2  0  0  0  0
 26 20  2  0  0  0  0
 30 29  1  0  0  0  0
 31  5  1  0  0  0  0
 32 31  1  0  0  0  0
 32 33  1  0  0  0  0
 34 35  1  0  0  0  0
 34 33  1  0  0  0  0
 36 34  1  0  0  0  0
 36 32  1  0  0  0  0
 37 34  1  0  0  0  0
M  END
>  <minimizedAffinity>
-3.61186838

$$$$
