
 OpenBabel11232420473D

 41 47  0  0  1  0  0  0  0  0999 V2000
  -19.1060   24.4260   11.3070 C   0  0  0  0  0  0  0  0  0  0  0  0
  -20.0180   23.6650   11.9680 N   0  0  0  0  0  0  0  0  0  0  0  0
  -20.0520   22.3440   11.6920 C   0  0  0  0  0  0  0  0  0  0  0  0
  -21.0640   21.5790   12.4210 C   0  0  0  0  0  3  0  0  0  0  0  0
  -21.1910   20.2620   12.2190 C   0  0  0  0  0  3  0  0  0  0  0  0
  -20.3460   19.6000   11.2980 C   0  0  0  0  0  0  0  0  0  0  0  0
  -20.3030   18.3360   10.9500 N   0  0  0  0  0  0  0  0  0  0  0  0
  -19.3150   18.1920   10.0210 N   0  0  0  0  0  0  0  0  0  0  0  0
  -18.7590   19.3710    9.8060 C   0  0  0  0  0  0  0  0  0  0  0  0
  -19.3770   20.3200   10.6010 N   0  0  0  0  0  0  0  0  0  0  0  0
  -19.2000   21.7190   10.7780 C   0  0  0  0  0  0  0  0  0  0  0  0
  -18.2580   22.5070   10.1260 C   0  0  0  0  0  3  0  0  0  0  0  0
  -18.1900   23.8920   10.3810 C   0  0  0  0  0  0  0  0  0  0  0  0
  -19.3690   28.6210   12.4010 C   0  0  0  0  0  0  0  0  0  0  0  0
  -18.1410   27.9240   12.3830 C   0  0  0  0  0  3  0  0  0  0  0  0
  -18.0580   26.5740   12.0220 C   0  0  0  0  0  3  0  0  0  0  0  0
  -19.1980   25.8550   11.6440 C   0  0  0  0  0  0  0  0  0  0  0  0
  -20.4230   26.5320   11.6420 C   0  0  0  0  0  3  0  0  0  0  0  0
  -20.5040   27.8800   12.0150 C   0  0  0  0  0  3  0  0  0  0  0  0
  -19.4640   30.1290   12.8970 C   0  0  1  0  0  0  0  0  0  0  0  0
  -20.6930   30.9660   12.4680 C   0  0  0  0  0  2  0  0  0  0  0  0
  -20.8690   31.4950   13.9300 C   0  0  1  0  0  0  0  0  0  0  0  0
  -19.8250   30.4180   14.3740 C   0  0  0  0  0  2  0  0  0  0  0  0
  -18.1820   30.7630   12.5050 N   0  0  0  0  0  4  0  0  0  0  0  0
  -18.0990   31.7400   12.8010 H   0  0  0  0  0  0  0  0  0  0  0  0
  -18.0520   30.7370   11.4830 H   0  0  0  0  0  0  0  0  0  0  0  0
  -17.3820   30.2520   12.9030 H   0  0  0  0  0  0  0  0  0  0  0  0
  -20.5270   32.9700   14.1900 C   0  0  0  0  0  3  0  0  0  0  0  0
  -19.3020   33.5070   14.8840 C   0  0  0  0  0  2  0  0  0  0  0  0
  -19.5350   33.8160   13.4340 C   0  0  0  0  0  2  0  0  0  0  0  0
  -22.1930   31.2150   14.4540 O   0  0  0  0  0  0  0  0  0  0  0  0
  -22.3960   30.2770   14.2940 H   0  0  0  0  0  0  0  0  0  0  0  0
  -17.1700   24.7020    9.6960 C   0  0  0  0  0  0  0  0  0  0  0  0
  -15.8030   24.4970    9.9440 C   0  0  0  0  0  3  0  0  0  0  0  0
  -14.8350   25.2710    9.3000 C   0  0  0  0  0  3  0  0  0  0  0  0
  -15.2180   26.2640    8.4020 C   0  0  0  0  0  3  0  0  0  0  0  0
  -16.5690   26.4880    8.1500 C   0  0  0  0  0  3  0  0  0  0  0  0
  -17.5370   25.7140    8.7930 C   0  0  0  0  0  3  0  0  0  0  0  0
  -17.6560   19.5930    8.8530 C   0  0  0  0  0  3  0  0  0  0  0  0
  -17.0650   18.4200    8.4940 F   0  0  0  0  0  0  0  0  0  0  0  0
  -18.1010   20.1690    7.7030 F   0  0  0  0  0  0  0  0  0  0  0  0
  1 17  1  0  0  0  0
  1  2  1  0  0  0  0
  3  2  2  0  0  0  0
  3  4  1  0  0  0  0
  5  4  2  0  0  0  0
  6  5  1  0  0  0  0
  7  6  2  0  0  0  0
  8  7  1  0  0  0  0
  9  8  2  0  0  0  0
  9 10  1  0  0  0  0
 10 11  1  0  0  0  0
 10  6  1  0  0  0  0
 11  3  1  0  0  0  0
 12 13  1  0  0  0  0
 12 11  2  0  0  0  0
 13  1  2  0  0  0  0
 14 20  1  0  0  0  0
 15 14  1  0  0  0  0
 16 15  2  0  0  0  0
 17 16  1  0  0  0  0
 18 17  2  0  0  0  0
 18 19  1  0  0  0  0
 19 14  2  0  0  0  0
 20 24  1  6  0  0  0
 20 23  1  0  0  0  0
 21 20  1  0  0  0  0
 21 22  1  0  0  0  0
 22 28  1  0  0  0  0
 22 23  1  0  0  0  0
 22 31  1  1  0  0  0
 24 25  1  0  0  0  0
 24 27  1  0  0  0  0
 26 24  1  0  0  0  0
 28 29  1  0  0  0  0
 30 28  1  0  0  0  0
 30 29  1  0  0  0  0
 32 31  1  0  0  0  0
 33 34  1  0  0  0  0
 33 13  1  0  0  0  0
 35 34  2  0  0  0  0
 36 35  1  0  0  0  0
 37 36  2  0  0  0  0
 37 38  1  0  0  0  0
 38 33  2  0  0  0  0
 39  9  1  0  0  0  0
 40 39  1  0  0  0  0
 41 39  1  0  0  0  0
M  END
>  <minimizedAffinity>
-9.45116329

$$$$
