
 OpenBabel11232420473D

 41 47  0  0  1  0  0  0  0  0999 V2000
  -19.9540   21.7540   11.5740 C   0  0  0  0  0  0  0  0  0  0  0  0
  -20.7430   21.4930   12.6490 N   0  0  0  0  0  0  0  0  0  0  0  0
  -21.1190   20.2130   12.8570 C   0  0  0  0  0  0  0  0  0  0  0  0
  -21.9810   19.9970   14.0190 C   0  0  0  0  0  3  0  0  0  0  0  0
  -22.4210   18.7670   14.3150 C   0  0  0  0  0  3  0  0  0  0  0  0
  -22.0530   17.6680   13.5040 C   0  0  0  0  0  0  0  0  0  0  0  0
  -22.3690   16.3990   13.6080 N   0  0  0  0  0  0  0  0  0  0  0  0
  -21.7710   15.7330   12.5800 N   0  0  0  0  0  0  0  0  0  0  0  0
  -21.0900   16.6010   11.8510 C   0  0  0  0  0  0  0  0  0  0  0  0
  -21.2310   17.8650   12.3960 N   0  0  0  0  0  0  0  0  0  0  0  0
  -20.7370   19.1480   12.0390 C   0  0  0  0  0  0  0  0  0  0  0  0
  -19.9110   19.4270   10.9540 C   0  0  0  0  0  3  0  0  0  0  0  0
  -19.4970   20.7510   10.6980 C   0  0  0  0  0  0  0  0  0  0  0  0
  -19.0330   25.9610   11.0080 C   0  0  0  0  0  0  0  0  0  0  0  0
  -20.1710   25.3560   10.4330 C   0  0  0  0  0  3  0  0  0  0  0  0
  -20.4710   24.0020   10.6230 C   0  0  0  0  0  3  0  0  0  0  0  0
  -19.6540   23.1850   11.4140 C   0  0  0  0  0  0  0  0  0  0  0  0
  -18.5280   23.7690   12.0040 C   0  0  0  0  0  3  0  0  0  0  0  0
  -18.2250   25.1220   11.8020 C   0  0  0  0  0  3  0  0  0  0  0  0
  -18.6550   27.4760   10.7130 C   0  0  1  0  0  0  0  0  0  0  0  0
  -19.6150   28.3150    9.8350 C   0  0  0  0  0  2  0  0  0  0  0  0
  -19.5310   29.5060   10.8450 C   0  0  1  0  0  0  0  0  0  0  0  0
  -18.8160   28.5300   11.8360 C   0  0  0  0  0  2  0  0  0  0  0  0
  -17.2740   27.4480   10.1730 N   0  0  0  0  0  4  0  0  0  0  0  0
  -16.8920   28.3770    9.9720 H   0  0  0  0  0  0  0  0  0  0  0  0
  -17.2250   26.8990    9.3030 H   0  0  0  0  0  0  0  0  0  0  0  0
  -16.6300   26.9880   10.8330 H   0  0  0  0  0  0  0  0  0  0  0  0
  -18.7610   30.7570   10.3950 C   0  0  0  0  0  3  0  0  0  0  0  0
  -19.3010   31.9130    9.5930 C   0  0  0  0  0  2  0  0  0  0  0  0
  -18.8380   32.1330   11.0040 C   0  0  0  0  0  2  0  0  0  0  0  0
  -20.8410   29.9040   11.3270 O   0  0  0  0  0  0  0  0  0  0  0  0
  -21.3180   29.1070   11.6180 H   0  0  0  0  0  0  0  0  0  0  0  0
  -18.6060   21.0190    9.5580 C   0  0  0  0  0  0  0  0  0  0  0  0
  -19.1210   21.1570    8.2590 C   0  0  0  0  0  3  0  0  0  0  0  0
  -18.2750   21.4030    7.1750 C   0  0  0  0  0  3  0  0  0  0  0  0
  -16.9000   21.5110    7.3730 C   0  0  0  0  0  3  0  0  0  0  0  0
  -16.3700   21.3680    8.6520 C   0  0  0  0  0  3  0  0  0  0  0  0
  -17.2160   21.1220    9.7360 C   0  0  0  0  0  3  0  0  0  0  0  0
  -20.3210   16.2320   10.6480 C   0  0  0  0  0  3  0  0  0  0  0  0
  -20.7770   16.8890    9.5460 F   0  0  0  0  0  0  0  0  0  0  0  0
  -19.0070   16.5610   10.7780 F   0  0  0  0  0  0  0  0  0  0  0  0
  1  2  1  0  0  0  0
  2  3  2  0  0  0  0
  3  4  1  0  0  0  0
  4  5  2  0  0  0  0
  6  7  2  0  0  0  0
  6  5  1  0  0  0  0
  8  7  1  0  0  0  0
  9 10  1  0  0  0  0
  9  8  2  0  0  0  0
 10  6  1  0  0  0  0
 11 10  1  0  0  0  0
 11  3  1  0  0  0  0
 12 11  2  0  0  0  0
 13 12  1  0  0  0  0
 13  1  2  0  0  0  0
 14 19  1  0  0  0  0
 15 16  1  0  0  0  0
 15 14  2  0  0  0  0
 16 17  2  0  0  0  0
 17  1  1  0  0  0  0
 17 18  1  0  0  0  0
 19 18  2  0  0  0  0
 20 24  1  6  0  0  0
 20 14  1  0  0  0  0
 20 23  1  0  0  0  0
 21 20  1  0  0  0  0
 21 22  1  0  0  0  0
 22 31  1  1  0  0  0
 22 23  1  0  0  0  0
 24 27  1  0  0  0  0
 25 24  1  0  0  0  0
 26 24  1  0  0  0  0
 28 22  1  0  0  0  0
 28 30  1  0  0  0  0
 29 28  1  0  0  0  0
 29 30  1  0  0  0  0
 31 32  1  0  0  0  0
 33 38  1  0  0  0  0
 33 13  1  0  0  0  0
 34 33  2  0  0  0  0
 35 36  2  0  0  0  0
 35 34  1  0  0  0  0
 36 37  1  0  0  0  0
 37 38  2  0  0  0  0
 39 41  1  0  0  0  0
 39  9  1  0  0  0  0
 40 39  1  0  0  0  0
M  END
>  <minimizedAffinity>
-10.9855633

$$$$

 OpenBabel11232420473D

 41 47  0  0  1  0  0  0  0  0999 V2000
  -17.2290   30.8200   11.8040 C   0  0  0  0  0  0  0  0  0  0  0  0
  -16.4140   31.2000   10.7840 N   0  0  0  0  0  0  0  0  0  0  0  0
  -15.8270   32.4130   10.8680 C   0  0  0  0  0  0  0  0  0  0  0  0
  -14.9760   32.7730    9.7340 C   0  0  0  0  0  3  0  0  0  0  0  0
  -14.3500   33.9570    9.7080 C   0  0  0  0  0  3  0  0  0  0  0  0
  -14.5100   34.8680   10.7780 C   0  0  0  0  0  0  0  0  0  0  0  0
  -14.0010   36.0640   10.9520 N   0  0  0  0  0  0  0  0  0  0  0  0
  -14.4580   36.5440   12.1440 N   0  0  0  0  0  0  0  0  0  0  0  0
  -15.2460   35.6370   12.6930 C   0  0  0  0  0  0  0  0  0  0  0  0
  -15.3180   34.5320   11.8630 N   0  0  0  0  0  0  0  0  0  0  0  0
  -16.0030   33.2890   11.9410 C   0  0  0  0  0  0  0  0  0  0  0  0
  -16.8220   32.8770   12.9870 C   0  0  0  0  0  3  0  0  0  0  0  0
  -17.4580   31.6200   12.9390 C   0  0  0  0  0  0  0  0  0  0  0  0
  -19.1320   26.9580   11.2320 C   0  0  0  0  0  0  0  0  0  0  0  0
  -19.8040   28.1730   10.9770 C   0  0  0  0  0  3  0  0  0  0  0  0
  -19.1860   29.4170   11.1530 C   0  0  0  0  0  3  0  0  0  0  0  0
  -17.8560   29.5080   11.5800 C   0  0  0  0  0  0  0  0  0  0  0  0
  -17.1680   28.3140   11.8260 C   0  0  0  0  0  3  0  0  0  0  0  0
  -17.7930   27.0720   11.6590 C   0  0  0  0  0  3  0  0  0  0  0  0
  -19.8710   25.5550   11.1130 C   0  0  1  0  0  0  0  0  0  0  0  0
  -19.1080   24.3780   10.4590 C   0  0  0  0  0  2  0  0  0  0  0  0
  -19.5590   23.4190   11.6100 C   0  0  1  0  0  0  0  0  0  0  0  0
  -20.0560   24.6860   12.3810 C   0  0  0  0  0  2  0  0  0  0  0  0
  -21.1620   25.8370   10.4400 N   0  0  0  0  0  4  0  0  0  0  0  0
  -21.7580   25.0110   10.3310 H   0  0  0  0  0  0  0  0  0  0  0  0
  -21.0130   26.2360    9.5020 H   0  0  0  0  0  0  0  0  0  0  0  0
  -21.7030   26.5390   10.9620 H   0  0  0  0  0  0  0  0  0  0  0  0
  -20.5970   22.3420   11.2630 C   0  0  0  0  0  3  0  0  0  0  0  0
  -20.5810   20.8970   11.6910 C   0  0  0  0  0  2  0  0  0  0  0  0
  -21.6790   21.8050   12.1640 C   0  0  0  0  0  2  0  0  0  0  0  0
  -18.4280   22.7930   12.2700 O   0  0  0  0  0  0  0  0  0  0  0  0
  -17.7810   23.4830   12.4940 H   0  0  0  0  0  0  0  0  0  0  0  0
  -18.3030   31.1960   14.0680 C   0  0  0  0  0  0  0  0  0  0  0  0
  -19.6900   31.4160   14.0500 C   0  0  0  0  0  3  0  0  0  0  0  0
  -20.4920   31.0220   15.1240 C   0  0  0  0  0  3  0  0  0  0  0  0
  -19.9180   30.4060   16.2340 C   0  0  0  0  0  3  0  0  0  0  0  0
  -18.5440   30.1880   16.2740 C   0  0  0  0  0  3  0  0  0  0  0  0
  -17.7420   30.5820   15.2000 C   0  0  0  0  0  3  0  0  0  0  0  0
  -15.9250   35.8210   13.9890 C   0  0  0  0  0  3  0  0  0  0  0  0
  -15.3140   36.7810   14.7380 F   0  0  0  0  0  0  0  0  0  0  0  0
  -17.2140   36.2220   13.8230 F   0  0  0  0  0  0  0  0  0  0  0  0
  1 13  1  0  0  0  0
  2  3  1  0  0  0  0
  2  1  2  0  0  0  0
  3 11  2  0  0  0  0
  4  3  1  0  0  0  0
  5  4  2  0  0  0  0
  5  6  1  0  0  0  0
  6  7  2  0  0  0  0
  6 10  1  0  0  0  0
  7  8  1  0  0  0  0
  8  9  2  0  0  0  0
  9 39  1  0  0  0  0
 10 11  1  0  0  0  0
 10  9  1  0  0  0  0
 11 12  1  0  0  0  0
 13 12  2  0  0  0  0
 13 33  1  0  0  0  0
 14 19  1  0  0  0  0
 15 16  1  0  0  0  0
 15 14  2  0  0  0  0
 16 17  2  0  0  0  0
 17  1  1  0  0  0  0
 17 18  1  0  0  0  0
 19 18  2  0  0  0  0
 20 24  1  6  0  0  0
 20 14  1  0  0  0  0
 20 23  1  0  0  0  0
 21 20  1  0  0  0  0
 21 22  1  0  0  0  0
 22 31  1  1  0  0  0
 22 23  1  0  0  0  0
 24 27  1  0  0  0  0
 25 24  1  0  0  0  0
 26 24  1  0  0  0  0
 28 22  1  0  0  0  0
 28 29  1  0  0  0  0
 28 30  1  0  0  0  0
 29 30  1  0  0  0  0
 31 32  1  0  0  0  0
 33 38  1  0  0  0  0
 34 33  2  0  0  0  0
 34 35  1  0  0  0  0
 35 36  2  0  0  0  0
 36 37  1  0  0  0  0
 38 37  2  0  0  0  0
 39 40  1  0  0  0  0
 41 39  1  0  0  0  0
M  END
>  <minimizedAffinity>
-9.95734215

$$$$

 OpenBabel11232420473D

 41 47  0  0  1  0  0  0  0  0999 V2000
  -19.2730   27.2390   11.9060 C   0  0  0  0  0  0  0  0  0  0  0  0
  -20.1560   27.9630   12.6430 N   0  0  0  0  0  0  0  0  0  0  0  0
  -19.9140   29.2830   12.7930 C   0  0  0  0  0  0  0  0  0  0  0  0
  -20.8890   30.0070   13.6090 C   0  0  0  0  0  3  0  0  0  0  0  0
  -20.7430   31.3190   13.8310 C   0  0  0  0  0  3  0  0  0  0  0  0
  -19.6440   32.0150   13.2760 C   0  0  0  0  0  0  0  0  0  0  0  0
  -19.3120   33.2800   13.3690 N   0  0  0  0  0  0  0  0  0  0  0  0
  -18.1610   33.4640   12.6600 N   0  0  0  0  0  0  0  0  0  0  0  0
  -17.7950   32.3070   12.1370 C   0  0  0  0  0  0  0  0  0  0  0  0
  -18.7110   31.3330   12.4950 N   0  0  0  0  0  0  0  0  0  0  0  0
  -18.8200   29.9420   12.2290 C   0  0  0  0  0  0  0  0  0  0  0  0
  -17.9370   29.1910   11.4590 C   0  0  0  0  0  3  0  0  0  0  0  0
  -18.1490   27.8090   11.2790 C   0  0  0  0  0  0  0  0  0  0  0  0
  -20.1760   22.9950   11.6930 C   0  0  0  0  0  0  0  0  0  0  0  0
  -19.0840   23.4960   12.4340 C   0  0  0  0  0  3  0  0  0  0  0  0
  -18.7990   24.8650   12.5090 C   0  0  0  0  0  3  0  0  0  0  0  0
  -19.6040   25.8060   11.8560 C   0  0  0  0  0  0  0  0  0  0  0  0
  -20.7000   25.3310   11.1270 C   0  0  0  0  0  3  0  0  0  0  0  0
  -20.9750   23.9600   11.0460 C   0  0  0  0  0  3  0  0  0  0  0  0
  -20.4370   21.4340   11.5430 C   0  0  1  0  0  0  0  0  0  0  0  0
  -20.4190   20.8200   10.1230 C   0  0  0  0  0  2  0  0  0  0  0  0
  -19.5270   19.6360   10.6230 C   0  0  1  0  0  0  0  0  0  0  0  0
  -19.3250   20.4370   11.9510 C   0  0  0  0  0  2  0  0  0  0  0  0
  -21.7090   21.1700   12.2580 N   0  0  0  0  0  4  0  0  0  0  0  0
  -21.9780   20.1810   12.2670 H   0  0  0  0  0  0  0  0  0  0  0  0
  -22.4880   21.6970   11.8400 H   0  0  0  0  0  0  0  0  0  0  0  0
  -21.6520   21.4810   13.2380 H   0  0  0  0  0  0  0  0  0  0  0  0
  -20.1850   18.2520   10.7180 C   0  0  0  0  0  3  0  0  0  0  0  0
  -19.9650   17.0800    9.7960 C   0  0  0  0  0  2  0  0  0  0  0  0
  -19.5540   16.9850   11.2370 C   0  0  0  0  0  2  0  0  0  0  0  0
  -18.2950   19.5250    9.8650 O   0  0  0  0  0  0  0  0  0  0  0  0
  -17.8810   20.4050    9.8180 H   0  0  0  0  0  0  0  0  0  0  0  0
  -17.2130   27.0400   10.4430 C   0  0  0  0  0  0  0  0  0  0  0  0
  -17.6140   26.5310    9.1970 C   0  0  0  0  0  3  0  0  0  0  0  0
  -16.7300   25.7940    8.4060 C   0  0  0  0  0  3  0  0  0  0  0  0
  -15.4330   25.5500    8.8500 C   0  0  0  0  0  3  0  0  0  0  0  0
  -15.0200   26.0390   10.0870 C   0  0  0  0  0  3  0  0  0  0  0  0
  -15.9040   26.7760   10.8780 C   0  0  0  0  0  3  0  0  0  0  0  0
  -16.5870   32.1290   11.3110 C   0  0  0  0  0  3  0  0  0  0  0  0
  -16.9020   31.9980    9.9920 F   0  0  0  0  0  0  0  0  0  0  0  0
  -15.7580   33.2040   11.4040 F   0  0  0  0  0  0  0  0  0  0  0  0
  1  2  1  0  0  0  0
  2  3  2  0  0  0  0
  3  4  1  0  0  0  0
  4  5  2  0  0  0  0
  6  7  2  0  0  0  0
  6  5  1  0  0  0  0
  8  7  1  0  0  0  0
  9 10  1  0  0  0  0
  9  8  2  0  0  0  0
 10  6  1  0  0  0  0
 11 10  1  0  0  0  0
 11  3  1  0  0  0  0
 12 11  2  0  0  0  0
 13 12  1  0  0  0  0
 13  1  2  0  0  0  0
 14 15  1  0  0  0  0
 15 16  2  0  0  0  0
 17  1  1  0  0  0  0
 17 16  1  0  0  0  0
 18 17  2  0  0  0  0
 19 18  1  0  0  0  0
 19 14  2  0  0  0  0
 20 14  1  0  0  0  0
 20 23  1  0  0  0  0
 20 24  1  1  0  0  0
 21 22  1  0  0  0  0
 21 20  1  0  0  0  0
 22 31  1  6  0  0  0
 22 28  1  0  0  0  0
 22 23  1  0  0  0  0
 24 25  1  0  0  0  0
 24 27  1  0  0  0  0
 26 24  1  0  0  0  0
 28 30  1  0  0  0  0
 29 28  1  0  0  0  0
 29 30  1  0  0  0  0
 32 31  1  0  0  0  0
 33 38  1  0  0  0  0
 33 13  1  0  0  0  0
 34 33  2  0  0  0  0
 35 36  2  0  0  0  0
 35 34  1  0  0  0  0
 36 37  1  0  0  0  0
 37 38  2  0  0  0  0
 39 41  1  0  0  0  0
 39  9  1  0  0  0  0
 40 39  1  0  0  0  0
M  END
>  <minimizedAffinity>
-9.62807083

$$$$

 OpenBabel11232420473D

 41 47  0  0  1  0  0  0  0  0999 V2000
  -19.1060   24.4260   11.3070 C   0  0  0  0  0  0  0  0  0  0  0  0
  -20.0180   23.6650   11.9680 N   0  0  0  0  0  0  0  0  0  0  0  0
  -20.0520   22.3440   11.6920 C   0  0  0  0  0  0  0  0  0  0  0  0
  -21.0640   21.5790   12.4210 C   0  0  0  0  0  3  0  0  0  0  0  0
  -21.1910   20.2620   12.2190 C   0  0  0  0  0  3  0  0  0  0  0  0
  -20.3460   19.6000   11.2980 C   0  0  0  0  0  0  0  0  0  0  0  0
  -20.3030   18.3360   10.9500 N   0  0  0  0  0  0  0  0  0  0  0  0
  -19.3150   18.1920   10.0210 N   0  0  0  0  0  0  0  0  0  0  0  0
  -18.7590   19.3710    9.8060 C   0  0  0  0  0  0  0  0  0  0  0  0
  -19.3770   20.3200   10.6010 N   0  0  0  0  0  0  0  0  0  0  0  0
  -19.2000   21.7190   10.7780 C   0  0  0  0  0  0  0  0  0  0  0  0
  -18.2580   22.5070   10.1260 C   0  0  0  0  0  3  0  0  0  0  0  0
  -18.1900   23.8920   10.3810 C   0  0  0  0  0  0  0  0  0  0  0  0
  -19.3690   28.6210   12.4010 C   0  0  0  0  0  0  0  0  0  0  0  0
  -18.1410   27.9240   12.3830 C   0  0  0  0  0  3  0  0  0  0  0  0
  -18.0580   26.5740   12.0220 C   0  0  0  0  0  3  0  0  0  0  0  0
  -19.1980   25.8550   11.6440 C   0  0  0  0  0  0  0  0  0  0  0  0
  -20.4230   26.5320   11.6420 C   0  0  0  0  0  3  0  0  0  0  0  0
  -20.5040   27.8800   12.0150 C   0  0  0  0  0  3  0  0  0  0  0  0
  -19.4640   30.1290   12.8970 C   0  0  1  0  0  0  0  0  0  0  0  0
  -20.6930   30.9660   12.4680 C   0  0  0  0  0  2  0  0  0  0  0  0
  -20.8690   31.4950   13.9300 C   0  0  1  0  0  0  0  0  0  0  0  0
  -19.8250   30.4180   14.3740 C   0  0  0  0  0  2  0  0  0  0  0  0
  -18.1820   30.7630   12.5050 N   0  0  0  0  0  4  0  0  0  0  0  0
  -18.0990   31.7400   12.8010 H   0  0  0  0  0  0  0  0  0  0  0  0
  -18.0520   30.7370   11.4830 H   0  0  0  0  0  0  0  0  0  0  0  0
  -17.3820   30.2520   12.9030 H   0  0  0  0  0  0  0  0  0  0  0  0
  -20.5270   32.9700   14.1900 C   0  0  0  0  0  3  0  0  0  0  0  0
  -19.3020   33.5070   14.8840 C   0  0  0  0  0  2  0  0  0  0  0  0
  -19.5350   33.8160   13.4340 C   0  0  0  0  0  2  0  0  0  0  0  0
  -22.1930   31.2150   14.4540 O   0  0  0  0  0  0  0  0  0  0  0  0
  -22.3960   30.2770   14.2940 H   0  0  0  0  0  0  0  0  0  0  0  0
  -17.1700   24.7020    9.6960 C   0  0  0  0  0  0  0  0  0  0  0  0
  -15.8030   24.4970    9.9440 C   0  0  0  0  0  3  0  0  0  0  0  0
  -14.8350   25.2710    9.3000 C   0  0  0  0  0  3  0  0  0  0  0  0
  -15.2180   26.2640    8.4020 C   0  0  0  0  0  3  0  0  0  0  0  0
  -16.5690   26.4880    8.1500 C   0  0  0  0  0  3  0  0  0  0  0  0
  -17.5370   25.7140    8.7930 C   0  0  0  0  0  3  0  0  0  0  0  0
  -17.6560   19.5930    8.8530 C   0  0  0  0  0  3  0  0  0  0  0  0
  -17.0650   18.4200    8.4940 F   0  0  0  0  0  0  0  0  0  0  0  0
  -18.1010   20.1690    7.7030 F   0  0  0  0  0  0  0  0  0  0  0  0
  1 17  1  0  0  0  0
  1  2  1  0  0  0  0
  3  2  2  0  0  0  0
  3  4  1  0  0  0  0
  5  4  2  0  0  0  0
  6  5  1  0  0  0  0
  7  6  2  0  0  0  0
  8  7  1  0  0  0  0
  9  8  2  0  0  0  0
  9 10  1  0  0  0  0
 10 11  1  0  0  0  0
 10  6  1  0  0  0  0
 11  3  1  0  0  0  0
 12 13  1  0  0  0  0
 12 11  2  0  0  0  0
 13  1  2  0  0  0  0
 14 20  1  0  0  0  0
 15 14  1  0  0  0  0
 16 15  2  0  0  0  0
 17 16  1  0  0  0  0
 18 17  2  0  0  0  0
 18 19  1  0  0  0  0
 19 14  2  0  0  0  0
 20 24  1  6  0  0  0
 20 23  1  0  0  0  0
 21 20  1  0  0  0  0
 21 22  1  0  0  0  0
 22 28  1  0  0  0  0
 22 23  1  0  0  0  0
 22 31  1  1  0  0  0
 24 25  1  0  0  0  0
 24 27  1  0  0  0  0
 26 24  1  0  0  0  0
 28 29  1  0  0  0  0
 30 28  1  0  0  0  0
 30 29  1  0  0  0  0
 32 31  1  0  0  0  0
 33 34  1  0  0  0  0
 33 13  1  0  0  0  0
 35 34  2  0  0  0  0
 36 35  1  0  0  0  0
 37 36  2  0  0  0  0
 37 38  1  0  0  0  0
 38 33  2  0  0  0  0
 39  9  1  0  0  0  0
 40 39  1  0  0  0  0
 41 39  1  0  0  0  0
M  END
>  <minimizedAffinity>
-9.45116329

$$$$

 OpenBabel11232420473D

 41 47  0  0  1  0  0  0  0  0999 V2000
  -17.8380   23.2590    9.3720 C   0  0  0  0  0  0  0  0  0  0  0  0
  -16.8700   23.3280    8.4200 N   0  0  0  0  0  0  0  0  0  0  0  0
  -16.5310   22.1870    7.7850 C   0  0  0  0  0  0  0  0  0  0  0  0
  -15.4720   22.3200    6.7840 C   0  0  0  0  0  3  0  0  0  0  0  0
  -15.0510   21.2490    6.0990 C   0  0  0  0  0  3  0  0  0  0  0  0
  -15.6290   19.9800    6.3390 C   0  0  0  0  0  0  0  0  0  0  0  0
  -15.3680   18.8170    5.7930 N   0  0  0  0  0  0  0  0  0  0  0  0
  -16.1910   17.8920    6.3640 N   0  0  0  0  0  0  0  0  0  0  0  0
  -16.9520   18.4970    7.2600 C   0  0  0  0  0  0  0  0  0  0  0  0
  -16.6400   19.8450    7.2890 N   0  0  0  0  0  0  0  0  0  0  0  0
  -17.1230   20.9480    8.0430 C   0  0  0  0  0  0  0  0  0  0  0  0
  -18.1280   20.8980    9.0040 C   0  0  0  0  0  3  0  0  0  0  0  0
  -18.5110   22.0650    9.6940 C   0  0  0  0  0  0  0  0  0  0  0  0
  -18.4730   27.0970   11.3050 C   0  0  0  0  0  0  0  0  0  0  0  0
  -18.5400   26.9400    9.9040 C   0  0  0  0  0  3  0  0  0  0  0  0
  -18.3430   25.7010    9.2830 C   0  0  0  0  0  3  0  0  0  0  0  0
  -18.0850   24.5490   10.0360 C   0  0  0  0  0  0  0  0  0  0  0  0
  -18.0280   24.6800   11.4270 C   0  0  0  0  0  3  0  0  0  0  0  0
  -18.2140   25.9240   12.0440 C   0  0  0  0  0  3  0  0  0  0  0  0
  -18.6100   28.5230   11.9930 C   0  0  1  0  0  0  0  0  0  0  0  0
  -18.8420   29.7560   11.0860 C   0  0  0  0  0  2  0  0  0  0  0  0
  -19.9730   30.2690   12.0360 C   0  0  1  0  0  0  0  0  0  0  0  0
  -19.9130   28.8780   12.7500 C   0  0  0  0  0  2  0  0  0  0  0  0
  -17.4110   28.6710   12.8530 N   0  0  0  0  0  4  0  0  0  0  0  0
  -17.3930   29.5460   13.3870 H   0  0  0  0  0  0  0  0  0  0  0  0
  -16.5460   28.6320   12.2960 H   0  0  0  0  0  0  0  0  0  0  0  0
  -17.3460   27.8980   13.5290 H   0  0  0  0  0  0  0  0  0  0  0  0
  -19.6730   31.5170   12.8790 C   0  0  0  0  0  3  0  0  0  0  0  0
  -20.6740   32.4910   13.4430 C   0  0  0  0  0  2  0  0  0  0  0  0
  -19.8340   31.6610   14.3700 C   0  0  0  0  0  2  0  0  0  0  0  0
  -21.2280   30.4620   11.3330 O   0  0  0  0  0  0  0  0  0  0  0  0
  -21.4150   29.6640   10.8090 H   0  0  0  0  0  0  0  0  0  0  0  0
  -19.5920   21.9920   10.6910 C   0  0  0  0  0  0  0  0  0  0  0  0
  -19.6010   20.9840   11.6690 C   0  0  0  0  0  3  0  0  0  0  0  0
  -20.6300   20.9080   12.6100 C   0  0  0  0  0  3  0  0  0  0  0  0
  -21.6680   21.8360   12.5850 C   0  0  0  0  0  3  0  0  0  0  0  0
  -21.6810   22.8370   11.6180 C   0  0  0  0  0  3  0  0  0  0  0  0
  -20.6520   22.9140   10.6770 C   0  0  0  0  0  3  0  0  0  0  0  0
  -17.9600   17.8000    8.0800 C   0  0  0  0  0  3  0  0  0  0  0  0
  -18.6670   16.9020    7.3400 F   0  0  0  0  0  0  0  0  0  0  0  0
  -17.3800   17.0970    9.0900 F   0  0  0  0  0  0  0  0  0  0  0  0
  1 13  1  0  0  0  0
  1 17  1  0  0  0  0
  2  1  2  0  0  0  0
  3 11  2  0  0  0  0
  3  2  1  0  0  0  0
  4  3  1  0  0  0  0
  5  6  1  0  0  0  0
  5  4  2  0  0  0  0
  6 10  1  0  0  0  0
  7  6  2  0  0  0  0
  7  8  1  0  0  0  0
  8  9  2  0  0  0  0
  9 10  1  0  0  0  0
  9 39  1  0  0  0  0
 10 11  1  0  0  0  0
 11 12  1  0  0  0  0
 12 13  2  0  0  0  0
 13 33  1  0  0  0  0
 14 20  1  0  0  0  0
 14 19  1  0  0  0  0
 15 14  2  0  0  0  0
 16 15  1  0  0  0  0
 16 17  2  0  0  0  0
 17 18  1  0  0  0  0
 18 19  2  0  0  0  0
 20 23  1  0  0  0  0
 20 24  1  1  0  0  0
 21 20  1  0  0  0  0
 21 22  1  0  0  0  0
 22 31  1  6  0  0  0
 22 23  1  0  0  0  0
 22 28  1  0  0  0  0
 24 25  1  0  0  0  0
 24 27  1  0  0  0  0
 26 24  1  0  0  0  0
 28 29  1  0  0  0  0
 28 30  1  0  0  0  0
 29 30  1  0  0  0  0
 32 31  1  0  0  0  0
 33 34  1  0  0  0  0
 34 35  2  0  0  0  0
 36 35  1  0  0  0  0
 37 36  2  0  0  0  0
 38 33  2  0  0  0  0
 38 37  1  0  0  0  0
 39 41  1  0  0  0  0
 40 39  1  0  0  0  0
M  END
>  <minimizedAffinity>
-9.08790302

$$$$

 OpenBabel11232420473D

 41 47  0  0  1  0  0  0  0  0999 V2000
  -17.0730   23.5800    8.9370 C   0  0  0  0  0  0  0  0  0  0  0  0
  -16.2060   23.4240    7.9010 N   0  0  0  0  0  0  0  0  0  0  0  0
  -16.0680   22.1880    7.3780 C   0  0  0  0  0  0  0  0  0  0  0  0
  -15.1090   22.0790    6.2780 C   0  0  0  0  0  3  0  0  0  0  0  0
  -14.8870   20.8970    5.6900 C   0  0  0  0  0  3  0  0  0  0  0  0
  -15.5780   19.7440    6.1290 C   0  0  0  0  0  0  0  0  0  0  0  0
  -15.5110   18.5060    5.7040 N   0  0  0  0  0  0  0  0  0  0  0  0
  -16.3710   17.7580    6.4520 N   0  0  0  0  0  0  0  0  0  0  0  0
  -16.9620   18.5460    7.3340 C   0  0  0  0  0  0  0  0  0  0  0  0
  -16.4950   19.8390    7.1750 N   0  0  0  0  0  0  0  0  0  0  0  0
  -16.7680   21.0690    7.8330 C   0  0  0  0  0  0  0  0  0  0  0  0
  -17.6680   21.2480    8.8780 C   0  0  0  0  0  3  0  0  0  0  0  0
  -17.8420   22.5220    9.4570 C   0  0  0  0  0  0  0  0  0  0  0  0
  -17.1680   27.5980   10.5830 C   0  0  0  0  0  0  0  0  0  0  0  0
  -16.0280   26.7710   10.6810 C   0  0  0  0  0  3  0  0  0  0  0  0
  -15.9960   25.4800   10.1430 C   0  0  0  0  0  3  0  0  0  0  0  0
  -17.1010   24.9540    9.4620 C   0  0  0  0  0  0  0  0  0  0  0  0
  -18.2370   25.7630    9.3420 C   0  0  0  0  0  3  0  0  0  0  0  0
  -18.2680   27.0510    9.8920 C   0  0  0  0  0  3  0  0  0  0  0  0
  -17.2240   29.0290   11.2750 C   0  0  1  0  0  0  0  0  0  0  0  0
  -18.4150   29.9590   10.9410 C   0  0  0  0  0  2  0  0  0  0  0  0
  -18.6030   30.2960   12.4570 C   0  0  1  0  0  0  0  0  0  0  0  0
  -17.6050   29.1320   12.7710 C   0  0  0  0  0  2  0  0  0  0  0  0
  -15.9130   29.6630   10.9910 N   0  0  0  0  0  4  0  0  0  0  0  0
  -15.8040   30.5890   11.4160 H   0  0  0  0  0  0  0  0  0  0  0  0
  -15.7620   29.7690    9.9780 H   0  0  0  0  0  0  0  0  0  0  0  0
  -15.1390   29.0760   11.3310 H   0  0  0  0  0  0  0  0  0  0  0  0
  -18.2180   31.7090   12.9170 C   0  0  0  0  0  3  0  0  0  0  0  0
  -18.9510   32.5670   13.9160 C   0  0  0  0  0  2  0  0  0  0  0  0
  -17.5610   32.0890   14.2190 C   0  0  0  0  0  2  0  0  0  0  0  0
  -19.9460   29.9960   12.9180 O   0  0  0  0  0  0  0  0  0  0  0  0
  -20.1780   29.0960   12.6300 H   0  0  0  0  0  0  0  0  0  0  0  0
  -18.8160   22.6910   10.5480 C   0  0  0  0  0  0  0  0  0  0  0  0
  -20.1680   22.3630   10.3620 C   0  0  0  0  0  3  0  0  0  0  0  0
  -21.0950   22.5320   11.3930 C   0  0  0  0  0  3  0  0  0  0  0  0
  -20.6840   23.0350   12.6260 C   0  0  0  0  0  3  0  0  0  0  0  0
  -19.3480   23.3730   12.8260 C   0  0  0  0  0  3  0  0  0  0  0  0
  -18.4220   23.2050   11.7950 C   0  0  0  0  0  3  0  0  0  0  0  0
  -17.9530   18.0730    8.3170 C   0  0  0  0  0  3  0  0  0  0  0  0
  -18.9450   17.3570    7.7180 F   0  0  0  0  0  0  0  0  0  0  0  0
  -17.3850   17.2490    9.2390 F   0  0  0  0  0  0  0  0  0  0  0  0
  1 13  1  0  0  0  0
  1 17  1  0  0  0  0
  2  1  2  0  0  0  0
  3 11  2  0  0  0  0
  3  2  1  0  0  0  0
  4  3  1  0  0  0  0
  5  6  1  0  0  0  0
  5  4  2  0  0  0  0
  6 10  1  0  0  0  0
  7  6  2  0  0  0  0
  7  8  1  0  0  0  0
  8  9  2  0  0  0  0
  9 39  1  0  0  0  0
 10  9  1  0  0  0  0
 10 11  1  0  0  0  0
 11 12  1  0  0  0  0
 12 13  2  0  0  0  0
 13 33  1  0  0  0  0
 14 15  1  0  0  0  0
 14 20  1  0  0  0  0
 16 15  2  0  0  0  0
 17 16  1  0  0  0  0
 18 17  2  0  0  0  0
 18 19  1  0  0  0  0
 19 14  2  0  0  0  0
 20 24  1  6  0  0  0
 20 23  1  0  0  0  0
 21 20  1  0  0  0  0
 21 22  1  0  0  0  0
 22 23  1  0  0  0  0
 22 28  1  0  0  0  0
 22 31  1  1  0  0  0
 24 27  1  0  0  0  0
 24 25  1  0  0  0  0
 26 24  1  0  0  0  0
 28 29  1  0  0  0  0
 28 30  1  0  0  0  0
 29 30  1  0  0  0  0
 32 31  1  0  0  0  0
 33 38  1  0  0  0  0
 34 33  2  0  0  0  0
 34 35  1  0  0  0  0
 35 36  2  0  0  0  0
 36 37  1  0  0  0  0
 38 37  2  0  0  0  0
 39 41  1  0  0  0  0
 40 39  1  0  0  0  0
M  END
>  <minimizedAffinity>
-8.69281578

$$$$

 OpenBabel11232420473D

 41 47  0  0  1  0  0  0  0  0999 V2000
  -19.2900   27.2040   11.9050 C   0  0  0  0  0  0  0  0  0  0  0  0
  -20.1640   27.9480   12.6340 N   0  0  0  0  0  0  0  0  0  0  0  0
  -19.9090   29.2670   12.7650 C   0  0  0  0  0  0  0  0  0  0  0  0
  -20.8740   30.0120   13.5740 C   0  0  0  0  0  3  0  0  0  0  0  0
  -20.7140   31.3260   13.7770 C   0  0  0  0  0  3  0  0  0  0  0  0
  -19.6100   32.0030   13.2100 C   0  0  0  0  0  0  0  0  0  0  0  0
  -19.2650   33.2660   13.2840 N   0  0  0  0  0  0  0  0  0  0  0  0
  -18.1140   33.4280   12.5700 N   0  0  0  0  0  0  0  0  0  0  0  0
  -17.7620   32.2600   12.0620 C   0  0  0  0  0  0  0  0  0  0  0  0
  -18.6860   31.3010   12.4360 N   0  0  0  0  0  0  0  0  0  0  0  0
  -18.8090   29.9080   12.1900 C   0  0  0  0  0  0  0  0  0  0  0  0
  -17.9360   29.1370   11.4280 C   0  0  0  0  0  3  0  0  0  0  0  0
  -18.1620   27.7550   11.2680 C   0  0  0  0  0  0  0  0  0  0  0  0
  -20.3820   23.0000   11.8940 C   0  0  0  0  0  0  0  0  0  0  0  0
  -21.1680   23.9840   11.2560 C   0  0  0  0  0  3  0  0  0  0  0  0
  -20.8110   25.3370   11.2540 C   0  0  0  0  0  3  0  0  0  0  0  0
  -19.6360   25.7740   11.8770 C   0  0  0  0  0  0  0  0  0  0  0  0
  -18.8350   24.8130   12.5030 C   0  0  0  0  0  3  0  0  0  0  0  0
  -19.2020   23.4620   12.5130 C   0  0  0  0  0  3  0  0  0  0  0  0
  -20.8430   21.4810   11.9660 C   0  0  1  0  0  0  0  0  0  0  0  0
  -20.8000   20.7650   13.3380 C   0  0  0  0  0  2  0  0  0  0  0  0
  -22.2270   20.1740   13.0980 C   0  0  1  0  0  0  0  0  0  0  0  0
  -22.3500   21.1410   11.8750 C   0  0  0  0  0  2  0  0  0  0  0  0
  -20.0500   20.7710   10.9330 N   0  0  0  0  0  4  0  0  0  0  0  0
  -20.2790   19.7760   10.8510 H   0  0  0  0  0  0  0  0  0  0  0  0
  -19.0410   20.8410   11.1240 H   0  0  0  0  0  0  0  0  0  0  0  0
  -20.1910   21.1960   10.0060 H   0  0  0  0  0  0  0  0  0  0  0  0
  -22.3280   18.6650   12.8270 C   0  0  0  0  0  3  0  0  0  0  0  0
  -21.1920   17.6760   12.7790 C   0  0  0  0  0  2  0  0  0  0  0  0
  -22.2430   17.5560   13.8440 C   0  0  0  0  0  2  0  0  0  0  0  0
  -23.1490   20.5270   14.1620 O   0  0  0  0  0  0  0  0  0  0  0  0
  -23.0850   21.4850   14.3200 H   0  0  0  0  0  0  0  0  0  0  0  0
  -17.2360   26.9650   10.4400 C   0  0  0  0  0  0  0  0  0  0  0  0
  -15.9080   26.7560   10.8450 C   0  0  0  0  0  3  0  0  0  0  0  0
  -15.0270   26.0140   10.0560 C   0  0  0  0  0  3  0  0  0  0  0  0
  -15.4590   25.4710    8.8480 C   0  0  0  0  0  3  0  0  0  0  0  0
  -16.7700   25.6740    8.4260 C   0  0  0  0  0  3  0  0  0  0  0  0
  -17.6510   26.4170    9.2140 C   0  0  0  0  0  3  0  0  0  0  0  0
  -16.5570   32.0590   11.2350 C   0  0  0  0  0  3  0  0  0  0  0  0
  -15.7360   31.1160   11.7750 F   0  0  0  0  0  0  0  0  0  0  0  0
  -16.8780   31.6220    9.9870 F   0  0  0  0  0  0  0  0  0  0  0  0
  1  2  1  0  0  0  0
  2  3  2  0  0  0  0
  3  4  1  0  0  0  0
  4  5  2  0  0  0  0
  6  7  2  0  0  0  0
  6  5  1  0  0  0  0
  8  7  1  0  0  0  0
  9 10  1  0  0  0  0
  9  8  2  0  0  0  0
 10  6  1  0  0  0  0
 11 10  1  0  0  0  0
 11  3  1  0  0  0  0
 12 11  2  0  0  0  0
 13 12  1  0  0  0  0
 13  1  2  0  0  0  0
 14 20  1  0  0  0  0
 14 19  1  0  0  0  0
 15 14  2  0  0  0  0
 16 15  1  0  0  0  0
 16 17  2  0  0  0  0
 17  1  1  0  0  0  0
 17 18  1  0  0  0  0
 18 19  2  0  0  0  0
 20 24  1  6  0  0  0
 20 21  1  0  0  0  0
 22 21  1  0  0  0  0
 22 31  1  1  0  0  0
 23 20  1  0  0  0  0
 23 22  1  0  0  0  0
 24 26  1  0  0  0  0
 25 24  1  0  0  0  0
 27 24  1  0  0  0  0
 28 22  1  0  0  0  0
 28 30  1  0  0  0  0
 29 28  1  0  0  0  0
 29 30  1  0  0  0  0
 31 32  1  0  0  0  0
 33 34  1  0  0  0  0
 33 13  1  0  0  0  0
 35 34  2  0  0  0  0
 36 35  1  0  0  0  0
 37 36  2  0  0  0  0
 37 38  1  0  0  0  0
 38 33  2  0  0  0  0
 39 40  1  0  0  0  0
 39  9  1  0  0  0  0
 41 39  1  0  0  0  0
M  END
>  <minimizedAffinity>
-8.61233711

$$$$

 OpenBabel11232420473D

 41 47  0  0  1  0  0  0  0  0999 V2000
  -16.5650   30.3370   11.8840 C   0  0  0  0  0  0  0  0  0  0  0  0
  -15.3860   30.6410   11.2790 N   0  0  0  0  0  0  0  0  0  0  0  0
  -14.9650   31.9220   11.3320 C   0  0  0  0  0  0  0  0  0  0  0  0
  -13.6990   32.1910   10.6500 C   0  0  0  0  0  3  0  0  0  0  0  0
  -13.1910   33.4300   10.6320 C   0  0  0  0  0  3  0  0  0  0  0  0
  -13.8760   34.4870   11.2750 C   0  0  0  0  0  0  0  0  0  0  0  0
  -13.5640   35.7570   11.3760 N   0  0  0  0  0  0  0  0  0  0  0  0
  -14.5470   36.3740   12.0900 N   0  0  0  0  0  0  0  0  0  0  0  0
  -15.4570   35.4760   12.4240 C   0  0  0  0  0  0  0  0  0  0  0  0
  -15.0810   34.2390   11.9300 N   0  0  0  0  0  0  0  0  0  0  0  0
  -15.6630   32.9440   11.9780 C   0  0  0  0  0  0  0  0  0  0  0  0
  -16.8570   32.6140   12.6120 C   0  0  0  0  0  3  0  0  0  0  0  0
  -17.3370   31.2880   12.5780 C   0  0  0  0  0  0  0  0  0  0  0  0
  -17.6480   26.1520   11.4610 C   0  0  0  0  0  0  0  0  0  0  0  0
  -18.1900   26.9710   12.4750 C   0  0  0  0  0  3  0  0  0  0  0  0
  -17.8470   28.3220   12.6050 C   0  0  0  0  0  3  0  0  0  0  0  0
  -16.9530   28.9280   11.7140 C   0  0  0  0  0  0  0  0  0  0  0  0
  -16.4150   28.1370   10.6930 C   0  0  0  0  0  3  0  0  0  0  0  0
  -16.7520   26.7830   10.5740 C   0  0  0  0  0  3  0  0  0  0  0  0
  -17.9770   24.5990   11.3780 C   0  0  1  0  0  0  0  0  0  0  0  0
  -18.5720   23.9070   12.6270 C   0  0  0  0  0  2  0  0  0  0  0  0
  -19.6470   23.1910   11.7450 C   0  0  1  0  0  0  0  0  0  0  0  0
  -19.2120   24.1290   10.5710 C   0  0  0  0  0  2  0  0  0  0  0  0
  -16.7290   23.9490   10.9110 N   0  0  0  0  0  4  0  0  0  0  0  0
  -16.8170   22.9360   10.7800 H   0  0  0  0  0  0  0  0  0  0  0  0
  -15.9560   24.1080   11.5730 H   0  0  0  0  0  0  0  0  0  0  0  0
  -16.4190   24.3480   10.0140 H   0  0  0  0  0  0  0  0  0  0  0  0
  -19.4940   21.6760   11.5410 C   0  0  0  0  0  3  0  0  0  0  0  0
  -20.5940   20.6460   11.5540 C   0  0  0  0  0  2  0  0  0  0  0  0
  -19.8160   20.8940   10.2940 C   0  0  0  0  0  2  0  0  0  0  0  0
  -20.9970   23.4750   12.1940 O   0  0  0  0  0  0  0  0  0  0  0  0
  -21.0870   24.4370   12.3100 H   0  0  0  0  0  0  0  0  0  0  0  0
  -18.5910   30.9580   13.2740 C   0  0  0  0  0  0  0  0  0  0  0  0
  -19.8180   30.9760   12.5920 C   0  0  0  0  0  3  0  0  0  0  0  0
  -21.0100   30.6710   13.2530 C   0  0  0  0  0  3  0  0  0  0  0  0
  -20.9940   30.3480   14.6080 C   0  0  0  0  0  3  0  0  0  0  0  0
  -19.7880   30.3320   15.3030 C   0  0  0  0  0  3  0  0  0  0  0  0
  -18.5960   30.6380   14.6420 C   0  0  0  0  0  3  0  0  0  0  0  0
  -16.6720   35.7910   13.1980 C   0  0  0  0  0  3  0  0  0  0  0  0
  -17.7990   35.4490   12.5150 F   0  0  0  0  0  0  0  0  0  0  0  0
  -16.7070   35.1010   14.3710 F   0  0  0  0  0  0  0  0  0  0  0  0
  1 13  1  0  0  0  0
  2  3  1  0  0  0  0
  2  1  2  0  0  0  0
  3 11  2  0  0  0  0
  4  3  1  0  0  0  0
  5  4  2  0  0  0  0
  5  6  1  0  0  0  0
  6  7  2  0  0  0  0
  6 10  1  0  0  0  0
  7  8  1  0  0  0  0
  8  9  2  0  0  0  0
  9 39  1  0  0  0  0
 10 11  1  0  0  0  0
 10  9  1  0  0  0  0
 11 12  1  0  0  0  0
 13 12  2  0  0  0  0
 13 33  1  0  0  0  0
 14 15  1  0  0  0  0
 15 16  2  0  0  0  0
 17  1  1  0  0  0  0
 17 16  1  0  0  0  0
 18 17  2  0  0  0  0
 19 18  1  0  0  0  0
 19 14  2  0  0  0  0
 20 24  1  6  0  0  0
 20 14  1  0  0  0  0
 20 21  1  0  0  0  0
 22 31  1  1  0  0  0
 22 21  1  0  0  0  0
 23 20  1  0  0  0  0
 23 22  1  0  0  0  0
 24 26  1  0  0  0  0
 25 24  1  0  0  0  0
 27 24  1  0  0  0  0
 28 29  1  0  0  0  0
 28 22  1  0  0  0  0
 30 28  1  0  0  0  0
 30 29  1  0  0  0  0
 31 32  1  0  0  0  0
 33 38  1  0  0  0  0
 34 35  1  0  0  0  0
 34 33  2  0  0  0  0
 35 36  2  0  0  0  0
 36 37  1  0  0  0  0
 38 37  2  0  0  0  0
 39 41  1  0  0  0  0
 40 39  1  0  0  0  0
M  END
>  <minimizedAffinity>
-8.04183483

$$$$
