
 OpenBabel11232420473D

 41 47  0  0  1  0  0  0  0  0999 V2000
  -17.8380   23.2590    9.3720 C   0  0  0  0  0  0  0  0  0  0  0  0
  -16.8700   23.3280    8.4200 N   0  0  0  0  0  0  0  0  0  0  0  0
  -16.5310   22.1870    7.7850 C   0  0  0  0  0  0  0  0  0  0  0  0
  -15.4720   22.3200    6.7840 C   0  0  0  0  0  3  0  0  0  0  0  0
  -15.0510   21.2490    6.0990 C   0  0  0  0  0  3  0  0  0  0  0  0
  -15.6290   19.9800    6.3390 C   0  0  0  0  0  0  0  0  0  0  0  0
  -15.3680   18.8170    5.7930 N   0  0  0  0  0  0  0  0  0  0  0  0
  -16.1910   17.8920    6.3640 N   0  0  0  0  0  0  0  0  0  0  0  0
  -16.9520   18.4970    7.2600 C   0  0  0  0  0  0  0  0  0  0  0  0
  -16.6400   19.8450    7.2890 N   0  0  0  0  0  0  0  0  0  0  0  0
  -17.1230   20.9480    8.0430 C   0  0  0  0  0  0  0  0  0  0  0  0
  -18.1280   20.8980    9.0040 C   0  0  0  0  0  3  0  0  0  0  0  0
  -18.5110   22.0650    9.6940 C   0  0  0  0  0  0  0  0  0  0  0  0
  -18.4730   27.0970   11.3050 C   0  0  0  0  0  0  0  0  0  0  0  0
  -18.5400   26.9400    9.9040 C   0  0  0  0  0  3  0  0  0  0  0  0
  -18.3430   25.7010    9.2830 C   0  0  0  0  0  3  0  0  0  0  0  0
  -18.0850   24.5490   10.0360 C   0  0  0  0  0  0  0  0  0  0  0  0
  -18.0280   24.6800   11.4270 C   0  0  0  0  0  3  0  0  0  0  0  0
  -18.2140   25.9240   12.0440 C   0  0  0  0  0  3  0  0  0  0  0  0
  -18.6100   28.5230   11.9930 C   0  0  1  0  0  0  0  0  0  0  0  0
  -18.8420   29.7560   11.0860 C   0  0  0  0  0  2  0  0  0  0  0  0
  -19.9730   30.2690   12.0360 C   0  0  1  0  0  0  0  0  0  0  0  0
  -19.9130   28.8780   12.7500 C   0  0  0  0  0  2  0  0  0  0  0  0
  -17.4110   28.6710   12.8530 N   0  0  0  0  0  4  0  0  0  0  0  0
  -17.3930   29.5460   13.3870 H   0  0  0  0  0  0  0  0  0  0  0  0
  -16.5460   28.6320   12.2960 H   0  0  0  0  0  0  0  0  0  0  0  0
  -17.3460   27.8980   13.5290 H   0  0  0  0  0  0  0  0  0  0  0  0
  -19.6730   31.5170   12.8790 C   0  0  0  0  0  3  0  0  0  0  0  0
  -20.6740   32.4910   13.4430 C   0  0  0  0  0  2  0  0  0  0  0  0
  -19.8340   31.6610   14.3700 C   0  0  0  0  0  2  0  0  0  0  0  0
  -21.2280   30.4620   11.3330 O   0  0  0  0  0  0  0  0  0  0  0  0
  -21.4150   29.6640   10.8090 H   0  0  0  0  0  0  0  0  0  0  0  0
  -19.5920   21.9920   10.6910 C   0  0  0  0  0  0  0  0  0  0  0  0
  -19.6010   20.9840   11.6690 C   0  0  0  0  0  3  0  0  0  0  0  0
  -20.6300   20.9080   12.6100 C   0  0  0  0  0  3  0  0  0  0  0  0
  -21.6680   21.8360   12.5850 C   0  0  0  0  0  3  0  0  0  0  0  0
  -21.6810   22.8370   11.6180 C   0  0  0  0  0  3  0  0  0  0  0  0
  -20.6520   22.9140   10.6770 C   0  0  0  0  0  3  0  0  0  0  0  0
  -17.9600   17.8000    8.0800 C   0  0  0  0  0  3  0  0  0  0  0  0
  -18.6670   16.9020    7.3400 F   0  0  0  0  0  0  0  0  0  0  0  0
  -17.3800   17.0970    9.0900 F   0  0  0  0  0  0  0  0  0  0  0  0
  1 13  1  0  0  0  0
  1 17  1  0  0  0  0
  2  1  2  0  0  0  0
  3 11  2  0  0  0  0
  3  2  1  0  0  0  0
  4  3  1  0  0  0  0
  5  6  1  0  0  0  0
  5  4  2  0  0  0  0
  6 10  1  0  0  0  0
  7  6  2  0  0  0  0
  7  8  1  0  0  0  0
  8  9  2  0  0  0  0
  9 10  1  0  0  0  0
  9 39  1  0  0  0  0
 10 11  1  0  0  0  0
 11 12  1  0  0  0  0
 12 13  2  0  0  0  0
 13 33  1  0  0  0  0
 14 20  1  0  0  0  0
 14 19  1  0  0  0  0
 15 14  2  0  0  0  0
 16 15  1  0  0  0  0
 16 17  2  0  0  0  0
 17 18  1  0  0  0  0
 18 19  2  0  0  0  0
 20 23  1  0  0  0  0
 20 24  1  1  0  0  0
 21 20  1  0  0  0  0
 21 22  1  0  0  0  0
 22 31  1  6  0  0  0
 22 23  1  0  0  0  0
 22 28  1  0  0  0  0
 24 25  1  0  0  0  0
 24 27  1  0  0  0  0
 26 24  1  0  0  0  0
 28 29  1  0  0  0  0
 28 30  1  0  0  0  0
 29 30  1  0  0  0  0
 32 31  1  0  0  0  0
 33 34  1  0  0  0  0
 34 35  2  0  0  0  0
 36 35  1  0  0  0  0
 37 36  2  0  0  0  0
 38 33  2  0  0  0  0
 38 37  1  0  0  0  0
 39 41  1  0  0  0  0
 40 39  1  0  0  0  0
M  END
>  <minimizedAffinity>
-9.08790302

$$$$
