
 OpenBabel11232420473D

 41 47  0  0  1  0  0  0  0  0999 V2000
  -19.2730   27.2390   11.9060 C   0  0  0  0  0  0  0  0  0  0  0  0
  -20.1560   27.9630   12.6430 N   0  0  0  0  0  0  0  0  0  0  0  0
  -19.9140   29.2830   12.7930 C   0  0  0  0  0  0  0  0  0  0  0  0
  -20.8890   30.0070   13.6090 C   0  0  0  0  0  3  0  0  0  0  0  0
  -20.7430   31.3190   13.8310 C   0  0  0  0  0  3  0  0  0  0  0  0
  -19.6440   32.0150   13.2760 C   0  0  0  0  0  0  0  0  0  0  0  0
  -19.3120   33.2800   13.3690 N   0  0  0  0  0  0  0  0  0  0  0  0
  -18.1610   33.4640   12.6600 N   0  0  0  0  0  0  0  0  0  0  0  0
  -17.7950   32.3070   12.1370 C   0  0  0  0  0  0  0  0  0  0  0  0
  -18.7110   31.3330   12.4950 N   0  0  0  0  0  0  0  0  0  0  0  0
  -18.8200   29.9420   12.2290 C   0  0  0  0  0  0  0  0  0  0  0  0
  -17.9370   29.1910   11.4590 C   0  0  0  0  0  3  0  0  0  0  0  0
  -18.1490   27.8090   11.2790 C   0  0  0  0  0  0  0  0  0  0  0  0
  -20.1760   22.9950   11.6930 C   0  0  0  0  0  0  0  0  0  0  0  0
  -19.0840   23.4960   12.4340 C   0  0  0  0  0  3  0  0  0  0  0  0
  -18.7990   24.8650   12.5090 C   0  0  0  0  0  3  0  0  0  0  0  0
  -19.6040   25.8060   11.8560 C   0  0  0  0  0  0  0  0  0  0  0  0
  -20.7000   25.3310   11.1270 C   0  0  0  0  0  3  0  0  0  0  0  0
  -20.9750   23.9600   11.0460 C   0  0  0  0  0  3  0  0  0  0  0  0
  -20.4370   21.4340   11.5430 C   0  0  1  0  0  0  0  0  0  0  0  0
  -20.4190   20.8200   10.1230 C   0  0  0  0  0  2  0  0  0  0  0  0
  -19.5270   19.6360   10.6230 C   0  0  1  0  0  0  0  0  0  0  0  0
  -19.3250   20.4370   11.9510 C   0  0  0  0  0  2  0  0  0  0  0  0
  -21.7090   21.1700   12.2580 N   0  0  0  0  0  4  0  0  0  0  0  0
  -21.9780   20.1810   12.2670 H   0  0  0  0  0  0  0  0  0  0  0  0
  -22.4880   21.6970   11.8400 H   0  0  0  0  0  0  0  0  0  0  0  0
  -21.6520   21.4810   13.2380 H   0  0  0  0  0  0  0  0  0  0  0  0
  -20.1850   18.2520   10.7180 C   0  0  0  0  0  3  0  0  0  0  0  0
  -19.9650   17.0800    9.7960 C   0  0  0  0  0  2  0  0  0  0  0  0
  -19.5540   16.9850   11.2370 C   0  0  0  0  0  2  0  0  0  0  0  0
  -18.2950   19.5250    9.8650 O   0  0  0  0  0  0  0  0  0  0  0  0
  -17.8810   20.4050    9.8180 H   0  0  0  0  0  0  0  0  0  0  0  0
  -17.2130   27.0400   10.4430 C   0  0  0  0  0  0  0  0  0  0  0  0
  -17.6140   26.5310    9.1970 C   0  0  0  0  0  3  0  0  0  0  0  0
  -16.7300   25.7940    8.4060 C   0  0  0  0  0  3  0  0  0  0  0  0
  -15.4330   25.5500    8.8500 C   0  0  0  0  0  3  0  0  0  0  0  0
  -15.0200   26.0390   10.0870 C   0  0  0  0  0  3  0  0  0  0  0  0
  -15.9040   26.7760   10.8780 C   0  0  0  0  0  3  0  0  0  0  0  0
  -16.5870   32.1290   11.3110 C   0  0  0  0  0  3  0  0  0  0  0  0
  -16.9020   31.9980    9.9920 F   0  0  0  0  0  0  0  0  0  0  0  0
  -15.7580   33.2040   11.4040 F   0  0  0  0  0  0  0  0  0  0  0  0
  1  2  1  0  0  0  0
  2  3  2  0  0  0  0
  3  4  1  0  0  0  0
  4  5  2  0  0  0  0
  6  7  2  0  0  0  0
  6  5  1  0  0  0  0
  8  7  1  0  0  0  0
  9 10  1  0  0  0  0
  9  8  2  0  0  0  0
 10  6  1  0  0  0  0
 11 10  1  0  0  0  0
 11  3  1  0  0  0  0
 12 11  2  0  0  0  0
 13 12  1  0  0  0  0
 13  1  2  0  0  0  0
 14 15  1  0  0  0  0
 15 16  2  0  0  0  0
 17  1  1  0  0  0  0
 17 16  1  0  0  0  0
 18 17  2  0  0  0  0
 19 18  1  0  0  0  0
 19 14  2  0  0  0  0
 20 14  1  0  0  0  0
 20 23  1  0  0  0  0
 20 24  1  1  0  0  0
 21 22  1  0  0  0  0
 21 20  1  0  0  0  0
 22 31  1  6  0  0  0
 22 28  1  0  0  0  0
 22 23  1  0  0  0  0
 24 25  1  0  0  0  0
 24 27  1  0  0  0  0
 26 24  1  0  0  0  0
 28 30  1  0  0  0  0
 29 28  1  0  0  0  0
 29 30  1  0  0  0  0
 32 31  1  0  0  0  0
 33 38  1  0  0  0  0
 33 13  1  0  0  0  0
 34 33  2  0  0  0  0
 35 36  2  0  0  0  0
 35 34  1  0  0  0  0
 36 37  1  0  0  0  0
 37 38  2  0  0  0  0
 39 41  1  0  0  0  0
 39  9  1  0  0  0  0
 40 39  1  0  0  0  0
M  END
>  <minimizedAffinity>
-9.62807083

$$$$
