
 OpenBabel10152419503D

 40 43  0  0  1  0  0  0  0  0999 V2000
   -0.3610  -11.4840  -22.8760 C   0  0  0  0  0  0  0  0  0  0  0  0
   -0.6550  -12.7620  -22.3830 C   0  0  0  0  0  3  0  0  0  0  0  0
   -1.4700  -12.9040  -21.2660 C   0  0  0  0  0  3  0  0  0  0  0  0
   -1.9650  -11.7750  -20.6080 C   0  0  0  0  0  3  0  0  0  0  0  0
   -1.5730  -10.4940  -20.9890 C   0  0  0  0  0  0  0  0  0  0  0  0
   -0.7570  -10.3630  -22.1210 C   0  0  0  0  0  3  0  0  0  0  0  0
   -2.0030   -9.2920  -20.3900 N   0  0  0  0  0  0  0  0  0  0  0  0
   -2.2290   -8.0240  -20.8690 C   0  0  0  0  0  0  0  0  0  0  0  0
   -2.4060   -7.0970  -20.0790 O   0  0  0  0  0  0  0  0  0  0  0  0
   -2.1550   -9.3230  -19.3890 H   0  0  0  0  0  0  0  0  0  0  0  0
   -2.2620   -7.7190  -22.3010 C   0  0  0  0  0  0  0  0  0  0  0  0
   -1.1060   -7.2150  -22.9120 C   0  0  0  0  0  3  0  0  0  0  0  0
   -1.0930   -6.9720  -24.2950 C   0  0  0  0  0  0  0  0  0  0  0  0
   -2.2570   -7.2310  -25.0420 C   0  0  0  0  0  3  0  0  0  0  0  0
   -3.4190   -7.6930  -24.4170 C   0  0  0  0  0  3  0  0  0  0  0  0
   -3.4230   -7.9130  -23.0430 C   0  0  0  0  0  0  0  0  0  0  0  0
   -4.5480   -8.3560  -22.4630 F   0  0  0  0  0  0  0  0  0  0  0  0
    0.1480   -6.4150  -24.9540 C   0  0  0  0  0  0  0  0  0  0  0  0
    1.2690   -6.6570  -24.2230 F   0  0  0  0  0  0  0  0  0  0  0  0
    0.3760   -6.9450  -26.1850 F   0  0  0  0  0  0  0  0  0  0  0  0
    0.1010   -5.0650  -25.1300 F   0  0  0  0  0  0  0  0  0  0  0  0
   -0.6460  -10.3050  -25.0770 C   0  0  0  0  0  1  0  0  0  0  0  0
    0.2180  -11.2820  -24.2700 C   0  0  1  0  0  3  0  0  0  0  0  0
    1.6260  -10.8260  -24.2940 N   0  0  0  0  0  0  0  0  0  0  0  0
    2.1230  -11.0400  -23.4320 H   0  0  0  0  0  0  0  0  0  0  0  0
    2.5010  -11.0800  -25.3390 C   0  0  0  0  0  0  0  0  0  0  0  0
    2.6910  -12.3930  -25.5390 N   0  0  0  0  0  0  0  0  0  0  0  0
    3.3180  -12.7310  -26.6630 C   0  0  0  0  0  3  0  0  0  0  0  0
    3.7480  -11.8910  -27.6110 N   0  0  0  0  0  0  0  0  0  0  0  0
    3.6130  -10.5630  -27.3880 C   0  0  0  0  0  0  0  0  0  0  0  0
    4.0040   -9.5940  -28.3370 C   0  0  0  0  0  0  0  0  0  0  0  0
    3.9130   -8.2160  -28.0600 C   0  0  0  0  0  3  0  0  0  0  0  0
    3.4530   -7.7750  -26.8300 C   0  0  0  0  0  3  0  0  0  0  0  0
    3.0260   -8.7120  -25.8990 C   0  0  0  0  0  3  0  0  0  0  0  0
    3.0470  -10.0990  -26.1870 C   0  0  0  0  0  0  0  0  0  0  0  0
    4.5030   -9.9430  -29.7040 C   0  0  0  0  0  0  0  0  0  0  0  0
    4.7090  -11.2570  -30.0070 N   0  0  0  0  0  0  0  0  0  0  0  0
    4.7210   -9.0810  -30.5460 O   0  0  0  0  0  0  0  0  0  0  0  0
    5.0470  -11.5010  -30.9260 H   0  0  0  0  0  0  0  0  0  0  0  0
    4.5090  -11.9850  -29.3260 H   0  0  0  0  0  0  0  0  0  0  0  0
  1  2  2  0  0  0  0
  1  6  1  0  0  0  0
  2  3  1  0  0  0  0
  3  4  2  0  0  0  0
  5  4  1  0  0  0  0
  5  7  1  0  0  0  0
  6  5  2  0  0  0  0
  7 10  1  0  0  0  0
  8  7  1  0  0  0  0
  8  9  2  0  0  0  0
 11  8  1  0  0  0  0
 12 11  1  0  0  0  0
 13 12  2  0  0  0  0
 14 15  2  0  0  0  0
 14 13  1  0  0  0  0
 15 16  1  0  0  0  0
 16 17  1  0  0  0  0
 16 11  2  0  0  0  0
 18 13  1  0  0  0  0
 18 19  1  0  0  0  0
 20 18  1  0  0  0  0
 21 18  1  0  0  0  0
 23 22  1  1  0  0  0
 23  1  1  0  0  0  0
 24 23  1  0  0  0  0
 24 25  1  0  0  0  0
 26 24  1  0  0  0  0
 27 26  1  0  0  0  0
 28 27  2  0  0  0  0
 29 30  2  0  0  0  0
 29 28  1  0  0  0  0
 30 35  1  0  0  0  0
 31 32  2  0  0  0  0
 31 30  1  0  0  0  0
 32 33  1  0  0  0  0
 33 34  2  0  0  0  0
 35 34  1  0  0  0  0
 35 26  2  0  0  0  0
 36 31  1  0  0  0  0
 37 36  1  0  0  0  0
 37 40  1  0  0  0  0
 38 36  2  0  0  0  0
 39 37  1  0  0  0  0
M  END
>  <minimizedAffinity>
-8.78360462

$$$$
