
 OpenBabel10152419503D

 40 43  0  0  1  0  0  0  0  0999 V2000
    3.0600  -10.2030  -26.1940 C   0  0  0  0  0  0  0  0  0  0  0  0
    3.5310  -10.9670  -27.2680 C   0  0  0  0  0  3  0  0  0  0  0  0
    3.2910  -12.3360  -27.3040 C   0  0  0  0  0  3  0  0  0  0  0  0
    2.6160  -12.9590  -26.2510 C   0  0  0  0  0  3  0  0  0  0  0  0
    2.2620  -12.2500  -25.1060 C   0  0  0  0  0  0  0  0  0  0  0  0
    2.5030  -10.8690  -25.0850 C   0  0  0  0  0  3  0  0  0  0  0  0
    1.5890  -12.7810  -23.9870 N   0  0  0  0  0  0  0  0  0  0  0  0
    0.4730  -12.3970  -23.2830 C   0  0  0  0  0  0  0  0  0  0  0  0
    0.2170  -12.9330  -22.2050 O   0  0  0  0  0  0  0  0  0  0  0  0
    2.0080  -13.6000  -23.5630 H   0  0  0  0  0  0  0  0  0  0  0  0
   -0.4370  -11.3550  -23.7630 C   0  0  0  0  0  0  0  0  0  0  0  0
   -0.8330  -10.3420  -22.8800 C   0  0  0  0  0  3  0  0  0  0  0  0
   -1.6560   -9.2990  -23.3330 C   0  0  0  0  0  0  0  0  0  0  0  0
   -2.0820   -9.3010  -24.6730 C   0  0  0  0  0  3  0  0  0  0  0  0
   -1.7190  -10.3400  -25.5360 C   0  0  0  0  0  3  0  0  0  0  0  0
   -0.9170  -11.3760  -25.0700 C   0  0  0  0  0  0  0  0  0  0  0  0
   -0.5800  -12.3630  -25.9140 F   0  0  0  0  0  0  0  0  0  0  0  0
   -2.0950   -8.2110  -22.3780 C   0  0  0  0  0  0  0  0  0  0  0  0
   -2.8410   -8.7020  -21.3520 F   0  0  0  0  0  0  0  0  0  0  0  0
   -1.0500   -7.5550  -21.8080 F   0  0  0  0  0  0  0  0  0  0  0  0
   -2.8600   -7.2540  -22.9720 F   0  0  0  0  0  0  0  0  0  0  0  0
    4.2860   -8.1040  -26.8340 C   0  0  0  0  0  1  0  0  0  0  0  0
    2.9820   -8.6830  -26.2710 C   0  0  1  0  0  3  0  0  0  0  0  0
    1.8370   -8.1620  -27.0490 N   0  0  0  0  0  0  0  0  0  0  0  0
    0.9580   -8.6140  -26.8070 H   0  0  0  0  0  0  0  0  0  0  0  0
    1.5650   -6.8120  -27.2120 C   0  0  0  0  0  0  0  0  0  0  0  0
    1.9620   -6.3520  -28.4090 N   0  0  0  0  0  0  0  0  0  0  0  0
    1.5280   -5.1400  -28.7450 C   0  0  0  0  0  3  0  0  0  0  0  0
    0.7230   -4.3580  -28.0160 N   0  0  0  0  0  0  0  0  0  0  0  0
    0.3680   -4.7910  -26.7840 C   0  0  0  0  0  0  0  0  0  0  0  0
   -0.5030   -4.0590  -25.9480 C   0  0  0  0  0  0  0  0  0  0  0  0
   -0.8090   -4.4960  -24.6450 C   0  0  0  0  0  3  0  0  0  0  0  0
   -0.2420   -5.6540  -24.1390 C   0  0  0  0  0  3  0  0  0  0  0  0
    0.5850   -6.4090  -24.9600 C   0  0  0  0  0  3  0  0  0  0  0  0
    0.8490   -6.0200  -26.2960 C   0  0  0  0  0  0  0  0  0  0  0  0
   -1.1890   -2.8030  -26.3830 C   0  0  0  0  0  0  0  0  0  0  0  0
   -0.4380   -1.8080  -26.9360 N   0  0  0  0  0  0  0  0  0  0  0  0
   -2.3990   -2.6560  -26.2560 O   0  0  0  0  0  0  0  0  0  0  0  0
   -0.8920   -0.9560  -27.2310 H   0  0  0  0  0  0  0  0  0  0  0  0
    0.5620   -1.9250  -27.0700 H   0  0  0  0  0  0  0  0  0  0  0  0
  1  6  1  0  0  0  0
  2  1  2  0  0  0  0
  3  2  1  0  0  0  0
  3  4  2  0  0  0  0
  4  5  1  0  0  0  0
  5  6  2  0  0  0  0
  5  7  1  0  0  0  0
  7 10  1  0  0  0  0
  7  8  1  0  0  0  0
  8  9  2  0  0  0  0
 11  8  1  0  0  0  0
 11 12  1  0  0  0  0
 13 12  2  0  0  0  0
 13 18  1  0  0  0  0
 14 13  1  0  0  0  0
 15 16  1  0  0  0  0
 15 14  2  0  0  0  0
 16 11  2  0  0  0  0
 17 16  1  0  0  0  0
 18 20  1  0  0  0  0
 18 19  1  0  0  0  0
 21 18  1  0  0  0  0
 23 22  1  6  0  0  0
 23  1  1  0  0  0  0
 24 25  1  0  0  0  0
 24 23  1  0  0  0  0
 26 24  1  0  0  0  0
 26 35  1  0  0  0  0
 27 26  2  0  0  0  0
 28 27  1  0  0  0  0
 28 29  2  0  0  0  0
 29 30  1  0  0  0  0
 30 35  2  0  0  0  0
 30 31  1  0  0  0  0
 31 32  2  0  0  0  0
 32 33  1  0  0  0  0
 34 33  2  0  0  0  0
 35 34  1  0  0  0  0
 36 38  2  0  0  0  0
 36 31  1  0  0  0  0
 37 36  1  0  0  0  0
 39 37  1  0  0  0  0
 40 37  1  0  0  0  0
M  END
>  <minimizedAffinity>
-9.79159546

$$$$
