
 OpenBabel10152419503D

 40 43  0  0  1  0  0  0  0  0999 V2000
    2.4970  -11.7640  -25.7190 C   0  0  0  0  0  0  0  0  0  0  0  0
    2.5700  -12.6690  -26.7850 C   0  0  0  0  0  3  0  0  0  0  0  0
    3.1890  -12.2950  -27.9730 C   0  0  0  0  0  3  0  0  0  0  0  0
    3.7020  -11.0040  -28.1210 C   0  0  0  0  0  3  0  0  0  0  0  0
    3.5170  -10.0400  -27.1320 C   0  0  0  0  0  0  0  0  0  0  0  0
    2.8990  -10.4320  -25.9370 C   0  0  0  0  0  3  0  0  0  0  0  0
    3.9850   -8.7110  -27.1840 N   0  0  0  0  0  0  0  0  0  0  0  0
    3.3670   -7.4960  -27.3610 C   0  0  0  0  0  0  0  0  0  0  0  0
    4.0460   -6.4920  -27.5730 O   0  0  0  0  0  0  0  0  0  0  0  0
    4.9880   -8.5890  -27.1130 H   0  0  0  0  0  0  0  0  0  0  0  0
    1.9110   -7.3420  -27.3150 C   0  0  0  0  0  0  0  0  0  0  0  0
    1.1210   -8.4640  -27.0370 C   0  0  0  0  0  3  0  0  0  0  0  0
   -0.2730   -8.3310  -26.9270 C   0  0  0  0  0  0  0  0  0  0  0  0
   -0.8510   -7.0620  -27.1150 C   0  0  0  0  0  3  0  0  0  0  0  0
   -0.0590   -5.9560  -27.4360 C   0  0  0  0  0  3  0  0  0  0  0  0
    1.3180   -6.1060  -27.5580 C   0  0  0  0  0  0  0  0  0  0  0  0
    2.0610   -5.0320  -27.8670 F   0  0  0  0  0  0  0  0  0  0  0  0
   -1.1300   -9.5430  -26.6400 C   0  0  0  0  0  0  0  0  0  0  0  0
   -0.3880  -10.6090  -26.2340 F   0  0  0  0  0  0  0  0  0  0  0  0
   -2.0460   -9.3230  -25.6600 F   0  0  0  0  0  0  0  0  0  0  0  0
   -1.8360   -9.9700  -27.7240 F   0  0  0  0  0  0  0  0  0  0  0  0
    3.3480  -12.9590  -23.6780 C   0  0  0  0  0  1  0  0  0  0  0  0
    2.1580  -12.2230  -24.3060 C   0  0  1  0  0  3  0  0  0  0  0  0
    1.7140  -11.1440  -23.3970 N   0  0  0  0  0  0  0  0  0  0  0  0
    2.1090  -10.2380  -23.6380 H   0  0  0  0  0  0  0  0  0  0  0  0
    0.3900  -10.9260  -23.0470 C   0  0  0  0  0  0  0  0  0  0  0  0
   -0.2020  -12.0340  -22.5740 N   0  0  0  0  0  0  0  0  0  0  0  0
   -1.3870  -11.8640  -21.9930 C   0  0  0  0  0  3  0  0  0  0  0  0
   -2.0220  -10.6990  -21.8190 N   0  0  0  0  0  0  0  0  0  0  0  0
   -1.4590   -9.5870  -22.3460 C   0  0  0  0  0  0  0  0  0  0  0  0
   -2.0290   -8.3050  -22.1910 C   0  0  0  0  0  0  0  0  0  0  0  0
   -1.4610   -7.1700  -22.8010 C   0  0  0  0  0  3  0  0  0  0  0  0
   -0.3300   -7.2880  -23.5920 C   0  0  0  0  0  3  0  0  0  0  0  0
    0.2690   -8.5340  -23.7230 C   0  0  0  0  0  3  0  0  0  0  0  0
   -0.2500   -9.6730  -23.0610 C   0  0  0  0  0  0  0  0  0  0  0  0
   -3.2400   -8.0460  -21.3520 C   0  0  0  0  0  0  0  0  0  0  0  0
   -3.0670   -7.7320  -20.0360 N   0  0  0  0  0  0  0  0  0  0  0  0
   -4.3700   -8.1050  -21.8210 O   0  0  0  0  0  0  0  0  0  0  0  0
   -3.8780   -7.5570  -19.4620 H   0  0  0  0  0  0  0  0  0  0  0  0
   -2.1350   -7.6550  -19.6390 H   0  0  0  0  0  0  0  0  0  0  0  0
  1 23  1  0  0  0  0
  2  1  2  0  0  0  0
  3  2  1  0  0  0  0
  4  3  2  0  0  0  0
  4  5  1  0  0  0  0
  5  6  2  0  0  0  0
  6  1  1  0  0  0  0
  7  5  1  0  0  0  0
  7 10  1  0  0  0  0
  8 11  1  0  0  0  0
  8  7  1  0  0  0  0
  9  8  2  0  0  0  0
 11 12  1  0  0  0  0
 12 13  2  0  0  0  0
 13 18  1  0  0  0  0
 14 13  1  0  0  0  0
 15 14  2  0  0  0  0
 16 15  1  0  0  0  0
 16 11  2  0  0  0  0
 17 16  1  0  0  0  0
 18 19  1  0  0  0  0
 18 20  1  0  0  0  0
 21 18  1  0  0  0  0
 23 22  1  1  0  0  0
 23 24  1  0  0  0  0
 24 26  1  0  0  0  0
 25 24  1  0  0  0  0
 26 27  1  0  0  0  0
 27 28  2  0  0  0  0
 28 29  1  0  0  0  0
 30 31  1  0  0  0  0
 30 29  2  0  0  0  0
 31 36  1  0  0  0  0
 32 31  2  0  0  0  0
 33 32  1  0  0  0  0
 34 33  2  0  0  0  0
 34 35  1  0  0  0  0
 35 26  2  0  0  0  0
 35 30  1  0  0  0  0
 36 37  1  0  0  0  0
 37 40  1  0  0  0  0
 37 39  1  0  0  0  0
 38 36  2  0  0  0  0
M  END
>  <minimizedAffinity>
-7.69927025

$$$$
