
 OpenBabel10152419503D

 40 43  0  0  1  0  0  0  0  0999 V2000
    0.1820  -11.2380  -22.7950 C   0  0  0  0  0  0  0  0  0  0  0  0
   -0.5820  -12.2230  -22.1570 C   0  0  0  0  0  3  0  0  0  0  0  0
   -1.7410  -11.8690  -21.4750 C   0  0  0  0  0  3  0  0  0  0  0  0
   -2.1240  -10.5290  -21.3880 C   0  0  0  0  0  3  0  0  0  0  0  0
   -1.3090   -9.5160  -21.8890 C   0  0  0  0  0  0  0  0  0  0  0  0
   -0.1480   -9.8850  -22.5810 C   0  0  0  0  0  3  0  0  0  0  0  0
   -1.5950   -8.1360  -21.8470 N   0  0  0  0  0  0  0  0  0  0  0  0
   -1.4500   -7.1100  -22.7510 C   0  0  0  0  0  0  0  0  0  0  0  0
   -1.5910   -5.9460  -22.3790 O   0  0  0  0  0  0  0  0  0  0  0  0
   -1.9540   -7.7820  -20.9680 H   0  0  0  0  0  0  0  0  0  0  0  0
   -1.1240   -7.3460  -24.1590 C   0  0  0  0  0  0  0  0  0  0  0  0
   -1.4280   -8.5910  -24.7250 C   0  0  0  0  0  3  0  0  0  0  0  0
   -1.1810   -8.8210  -26.0880 C   0  0  0  0  0  0  0  0  0  0  0  0
   -0.6140   -7.7900  -26.8590 C   0  0  0  0  0  3  0  0  0  0  0  0
   -0.2730   -6.5660  -26.2760 C   0  0  0  0  0  3  0  0  0  0  0  0
   -0.5080   -6.3570  -24.9210 C   0  0  0  0  0  0  0  0  0  0  0  0
   -0.1730   -5.1760  -24.3810 F   0  0  0  0  0  0  0  0  0  0  0  0
   -1.4960  -10.1680  -26.6980 C   0  0  0  0  0  0  0  0  0  0  0  0
   -0.3820  -10.9340  -26.8500 F   0  0  0  0  0  0  0  0  0  0  0  0
   -2.3600  -10.8990  -25.9470 F   0  0  0  0  0  0  0  0  0  0  0  0
   -2.0590  -10.0770  -27.9350 F   0  0  0  0  0  0  0  0  0  0  0  0
    0.6780  -12.6000  -24.8490 C   0  0  0  0  0  1  0  0  0  0  0  0
    1.2380  -11.5970  -23.8330 C   0  0  1  0  0  3  0  0  0  0  0  0
    1.8150  -10.4390  -24.5520 N   0  0  0  0  0  0  0  0  0  0  0  0
    2.1810   -9.7280  -23.9230 H   0  0  0  0  0  0  0  0  0  0  0  0
    2.7140  -10.5530  -25.6010 C   0  0  0  0  0  0  0  0  0  0  0  0
    3.1100  -11.8200  -25.7980 N   0  0  0  0  0  0  0  0  0  0  0  0
    3.7770  -12.0580  -26.9250 C   0  0  0  0  0  3  0  0  0  0  0  0
    4.0640  -11.1630  -27.8770 N   0  0  0  0  0  0  0  0  0  0  0  0
    3.7200   -9.8730  -27.6570 C   0  0  0  0  0  0  0  0  0  0  0  0
    3.9470   -8.8570  -28.6100 C   0  0  0  0  0  0  0  0  0  0  0  0
    3.6400   -7.5100  -28.3360 C   0  0  0  0  0  3  0  0  0  0  0  0
    3.1210   -7.1440  -27.1050 C   0  0  0  0  0  3  0  0  0  0  0  0
    2.8530   -8.1340  -26.1690 C   0  0  0  0  0  3  0  0  0  0  0  0
    3.0920   -9.5010  -26.4540 C   0  0  0  0  0  0  0  0  0  0  0  0
    4.4890   -9.1270  -29.9790 C   0  0  0  0  0  0  0  0  0  0  0  0
    4.7220  -10.4190  -30.3440 N   0  0  0  0  0  0  0  0  0  0  0  0
    4.7180   -8.2180  -30.7680 O   0  0  0  0  0  0  0  0  0  0  0  0
    5.0880  -10.6100  -31.2650 H   0  0  0  0  0  0  0  0  0  0  0  0
    4.5130  -11.1850  -29.7100 H   0  0  0  0  0  0  0  0  0  0  0  0
  1  6  2  0  0  0  0
  1  2  1  0  0  0  0
  2  3  2  0  0  0  0
  3  4  1  0  0  0  0
  5  7  1  0  0  0  0
  5  4  2  0  0  0  0
  6  5  1  0  0  0  0
  7 10  1  0  0  0  0
  8  9  2  0  0  0  0
  8  7  1  0  0  0  0
 11  8  1  0  0  0  0
 12 11  1  0  0  0  0
 13 12  2  0  0  0  0
 14 15  2  0  0  0  0
 14 13  1  0  0  0  0
 15 16  1  0  0  0  0
 16 17  1  0  0  0  0
 16 11  2  0  0  0  0
 18 13  1  0  0  0  0
 18 20  1  0  0  0  0
 19 18  1  0  0  0  0
 21 18  1  0  0  0  0
 23 22  1  6  0  0  0
 23  1  1  0  0  0  0
 24 25  1  0  0  0  0
 24 23  1  0  0  0  0
 26 24  1  0  0  0  0
 27 26  1  0  0  0  0
 28 27  2  0  0  0  0
 29 30  2  0  0  0  0
 29 28  1  0  0  0  0
 30 35  1  0  0  0  0
 31 32  2  0  0  0  0
 31 30  1  0  0  0  0
 32 33  1  0  0  0  0
 33 34  2  0  0  0  0
 35 34  1  0  0  0  0
 35 26  2  0  0  0  0
 36 31  1  0  0  0  0
 37 36  1  0  0  0  0
 37 40  1  0  0  0  0
 38 36  2  0  0  0  0
 39 37  1  0  0  0  0
M  END
>  <minimizedAffinity>
-8.52497292

$$$$
