
 OpenBabel10152419503D

 40 43  0  0  1  0  0  0  0  0999 V2000
    2.2640  -10.5520  -25.5850 C   0  0  0  0  0  0  0  0  0  0  0  0
    2.1040   -9.9880  -24.3130 C   0  0  0  0  0  3  0  0  0  0  0  0
    2.1000   -8.6050  -24.1630 C   0  0  0  0  0  3  0  0  0  0  0  0
    2.2960   -7.7770  -25.2710 C   0  0  0  0  0  3  0  0  0  0  0  0
    2.5990   -8.3110  -26.5210 C   0  0  0  0  0  0  0  0  0  0  0  0
    2.5930   -9.7050  -26.6610 C   0  0  0  0  0  3  0  0  0  0  0  0
    2.8230   -7.5680  -27.6980 N   0  0  0  0  0  0  0  0  0  0  0  0
    2.1090   -6.5940  -28.3530 C   0  0  0  0  0  0  0  0  0  0  0  0
    2.4400   -6.2540  -29.4890 O   0  0  0  0  0  0  0  0  0  0  0  0
    3.6620   -7.7990  -28.2170 H   0  0  0  0  0  0  0  0  0  0  0  0
    0.9470   -5.9350  -27.7520 C   0  0  0  0  0  0  0  0  0  0  0  0
    0.9780   -4.5460  -27.5670 C   0  0  0  0  0  3  0  0  0  0  0  0
   -0.1460   -3.8830  -27.0500 C   0  0  0  0  0  0  0  0  0  0  0  0
   -1.2850   -4.6370  -26.7120 C   0  0  0  0  0  3  0  0  0  0  0  0
   -1.2910   -6.0270  -26.8590 C   0  0  0  0  0  3  0  0  0  0  0  0
   -0.1650   -6.6730  -27.3570 C   0  0  0  0  0  0  0  0  0  0  0  0
   -0.1910   -8.0080  -27.4900 F   0  0  0  0  0  0  0  0  0  0  0  0
   -0.1110   -2.3860  -26.8360 C   0  0  0  0  0  0  0  0  0  0  0  0
    1.0930   -1.8500  -27.1720 F   0  0  0  0  0  0  0  0  0  0  0  0
   -1.0410   -1.7250  -27.5750 F   0  0  0  0  0  0  0  0  0  0  0  0
   -0.3340   -2.0240  -25.5420 F   0  0  0  0  0  0  0  0  0  0  0  0
    2.8370  -12.9370  -25.0360 C   0  0  0  0  0  1  0  0  0  0  0  0
    1.9280  -12.0130  -25.8560 C   0  0  1  0  0  3  0  0  0  0  0  0
    0.5140  -12.3770  -25.6160 N   0  0  0  0  0  0  0  0  0  0  0  0
    0.3160  -13.3500  -25.8340 H   0  0  0  0  0  0  0  0  0  0  0  0
   -0.1720  -12.0770  -24.4490 C   0  0  0  0  0  0  0  0  0  0  0  0
    0.0760  -12.9590  -23.4700 N   0  0  0  0  0  0  0  0  0  0  0  0
   -0.3430  -12.6200  -22.2530 C   0  0  0  0  0  3  0  0  0  0  0  0
   -0.9600  -11.4810  -21.9190 N   0  0  0  0  0  0  0  0  0  0  0  0
   -1.2660  -10.6130  -22.9120 C   0  0  0  0  0  0  0  0  0  0  0  0
   -1.8870   -9.3700  -22.6640 C   0  0  0  0  0  0  0  0  0  0  0  0
   -2.2540   -8.5100  -23.7170 C   0  0  0  0  0  3  0  0  0  0  0  0
   -2.0310   -8.8750  -25.0340 C   0  0  0  0  0  3  0  0  0  0  0  0
   -1.3860  -10.0760  -25.2970 C   0  0  0  0  0  3  0  0  0  0  0  0
   -0.9480  -10.9210  -24.2470 C   0  0  0  0  0  0  0  0  0  0  0  0
   -2.1670   -8.8560  -21.2870 C   0  0  0  0  0  0  0  0  0  0  0  0
   -1.1470   -8.8260  -20.3830 N   0  0  0  0  0  0  0  0  0  0  0  0
   -3.2810   -8.4630  -20.9640 O   0  0  0  0  0  0  0  0  0  0  0  0
   -1.3270   -8.4830  -19.4510 H   0  0  0  0  0  0  0  0  0  0  0  0
   -0.2120   -9.1260  -20.6440 H   0  0  0  0  0  0  0  0  0  0  0  0
  1  2  1  0  0  0  0
  2  3  2  0  0  0  0
  4  3  1  0  0  0  0
  5  4  2  0  0  0  0
  6  5  1  0  0  0  0
  6  1  2  0  0  0  0
  7  5  1  0  0  0  0
  8 11  1  0  0  0  0
  8  7  1  0  0  0  0
  9  8  2  0  0  0  0
 10  7  1  0  0  0  0
 11 12  2  0  0  0  0
 11 16  1  0  0  0  0
 12 13  1  0  0  0  0
 13 18  1  0  0  0  0
 13 14  2  0  0  0  0
 15 14  1  0  0  0  0
 16 15  2  0  0  0  0
 17 16  1  0  0  0  0
 18 21  1  0  0  0  0
 19 18  1  0  0  0  0
 20 18  1  0  0  0  0
 23 24  1  0  0  0  0
 23  1  1  0  0  0  0
 23 22  1  1  0  0  0
 24 26  1  0  0  0  0
 25 24  1  0  0  0  0
 26 35  2  0  0  0  0
 26 27  1  0  0  0  0
 27 28  2  0  0  0  0
 28 29  1  0  0  0  0
 30 31  1  0  0  0  0
 30 29  2  0  0  0  0
 31 36  1  0  0  0  0
 32 31  2  0  0  0  0
 33 32  1  0  0  0  0
 34 33  2  0  0  0  0
 34 35  1  0  0  0  0
 35 30  1  0  0  0  0
 36 38  2  0  0  0  0
 36 37  1  0  0  0  0
 37 39  1  0  0  0  0
 40 37  1  0  0  0  0
M  END
>  <minimizedAffinity>
-9.05259705

$$$$
