
 OpenBabel10152418253D

 40 43  0  0  0  0  0  0  0  0999 V2000
    1.0630  -10.9590  -26.5300 C   0  0  0  0  0  0  0  0  0  0  0  0
    1.5560  -11.9960  -25.7340 C   0  0  0  0  0  3  0  0  0  0  0  0
    2.9040  -12.0380  -25.4040 C   0  0  0  0  0  3  0  0  0  0  0  0
    3.7590  -11.0280  -25.8420 C   0  0  0  0  0  3  0  0  0  0  0  0
    3.2780   -9.9260  -26.5640 C   0  0  0  0  0  0  0  0  0  0  0  0
    1.9140   -9.9060  -26.8980 C   0  0  0  0  0  3  0  0  0  0  0  0
   -1.4400  -10.9400  -26.1610 C   0  0  0  0  0  0  0  0  0  0  0  0
   -2.5120  -11.3270  -26.6230 O   0  0  0  0  0  0  0  0  0  0  0  0
   -0.2890  -11.0380  -26.9080 N   0  0  0  0  0  0  0  0  0  0  0  0
   -0.4820  -11.1900  -27.8920 H   0  0  0  0  0  0  0  0  0  0  0  0
   -1.7370   -8.2890  -21.1950 N   0  0  0  0  0  0  0  0  0  0  0  0
   -2.6150   -7.1250  -21.2010 C   0  0  0  0  0  1  0  0  0  0  0  0
   -1.5840   -8.9560  -22.3950 C   0  0  0  0  0  0  0  0  0  0  0  0
   -0.7350  -10.0520  -22.5550 C   0  0  0  0  0  3  0  0  0  0  0  0
   -0.6470  -10.7110  -23.7840 C   0  0  0  0  0  3  0  0  0  0  0  0
   -1.4370  -10.2820  -24.8430 C   0  0  0  0  0  0  0  0  0  0  0  0
   -2.2170   -9.1630  -24.6430 C   0  0  0  0  0  3  0  0  0  0  0  0
   -2.3120   -8.5170  -23.4530 N   0  0  0  0  0  0  0  0  0  0  0  0
   -1.1910   -8.7340  -19.9110 C   0  0  0  0  0  2  0  0  0  0  0  0
   -1.7880  -10.0630  -19.4200 C   0  0  0  0  0  2  0  0  0  0  0  0
   -2.9790  -12.0350  -20.0180 C   0  0  0  0  0  1  0  0  0  0  0  0
   -2.1700  -10.9580  -20.4670 O   0  0  0  0  0  0  0  0  0  0  0  0
    4.2080   -8.8150  -27.0360 C   0  0  0  0  0  2  0  0  0  0  0  0
    3.7500   -7.4950  -26.6400 N   0  0  0  0  0  0  0  0  0  0  0  0
    4.3020   -6.9630  -25.9880 H   0  0  0  0  0  0  0  0  0  0  0  0
    2.6600   -6.9230  -27.2760 C   0  0  0  0  0  0  0  0  0  0  0  0
    2.8250   -6.5640  -28.5610 N   0  0  0  0  0  0  0  0  0  0  0  0
    1.9510   -5.6920  -29.0610 C   0  0  0  0  0  3  0  0  0  0  0  0
    0.9960   -5.0740  -28.3660 N   0  0  0  0  0  0  0  0  0  0  0  0
    0.7880   -5.4810  -27.0980 C   0  0  0  0  0  0  0  0  0  0  0  0
   -0.1670   -4.8700  -26.2790 C   0  0  0  0  0  0  0  0  0  0  0  0
   -0.5110   -5.3580  -25.0110 C   0  0  0  0  0  3  0  0  0  0  0  0
    0.1700   -6.4470  -24.4940 C   0  0  0  0  0  3  0  0  0  0  0  0
    1.2240   -6.9880  -25.2240 C   0  0  0  0  0  3  0  0  0  0  0  0
    1.5500   -6.5050  -26.5210 C   0  0  0  0  0  0  0  0  0  0  0  0
   -0.7490   -3.5660  -26.6570 C   0  0  0  0  0  0  0  0  0  0  0  0
    0.1160   -2.7020  -27.2750 N   0  0  0  0  0  0  0  0  0  0  0  0
   -1.8780   -3.2400  -26.3240 O   0  0  0  0  0  0  0  0  0  0  0  0
   -0.2130   -1.7760  -27.5110 H   0  0  0  0  0  0  0  0  0  0  0  0
    1.0600   -2.9650  -27.5260 H   0  0  0  0  0  0  0  0  0  0  0  0
  1  2  1  0  0  0  0
  2  3  2  0  0  0  0
  4  3  1  0  0  0  0
  5  4  2  0  0  0  0
  6  5  1  0  0  0  0
  6  1  2  0  0  0  0
  7 16  1  0  0  0  0
  8  7  2  0  0  0  0
  9  1  1  0  0  0  0
  9  7  1  0  0  0  0
 10  9  1  0  0  0  0
 11 19  1  0  0  0  0
 12 11  1  0  0  0  0
 13 11  1  0  0  0  0
 14 13  1  0  0  0  0
 15 14  2  0  0  0  0
 16 17  2  0  0  0  0
 16 15  1  0  0  0  0
 17 18  1  0  0  0  0
 18 13  2  0  0  0  0
 19 20  1  0  0  0  0
 22 21  1  0  0  0  0
 22 20  1  0  0  0  0
 23 24  1  0  0  0  0
 23  5  1  0  0  0  0
 24 25  1  0  0  0  0
 26 24  1  0  0  0  0
 26 35  1  0  0  0  0
 27 26  2  0  0  0  0
 28 27  1  0  0  0  0
 28 29  2  0  0  0  0
 29 30  1  0  0  0  0
 30 35  2  0  0  0  0
 30 31  1  0  0  0  0
 31 32  2  0  0  0  0
 32 33  1  0  0  0  0
 34 33  2  0  0  0  0
 35 34  1  0  0  0  0
 36 38  2  0  0  0  0
 36 31  1  0  0  0  0
 37 36  1  0  0  0  0
 39 37  1  0  0  0  0
 40 37  1  0  0  0  0
M  END
>  <minimizedAffinity>
-3.71576905

$$$$
