
 OpenBabel10152418253D

 40 43  0  0  0  0  0  0  0  0999 V2000
    2.0180  -11.1020  -25.7650 C   0  0  0  0  0  0  0  0  0  0  0  0
    1.2150  -11.5230  -26.8270 C   0  0  0  0  0  3  0  0  0  0  0  0
   -0.0650  -12.0050  -26.5830 C   0  0  0  0  0  3  0  0  0  0  0  0
   -0.5570  -12.0380  -25.2790 C   0  0  0  0  0  3  0  0  0  0  0  0
    0.1890  -11.5360  -24.2030 C   0  0  0  0  0  0  0  0  0  0  0  0
    1.4840  -11.0630  -24.4680 C   0  0  0  0  0  3  0  0  0  0  0  0
    3.8220   -9.6210  -26.7410 C   0  0  0  0  0  0  0  0  0  0  0  0
    4.9740   -9.6170  -27.1710 O   0  0  0  0  0  0  0  0  0  0  0  0
    3.3360  -10.7240  -26.0790 N   0  0  0  0  0  0  0  0  0  0  0  0
    4.0750  -11.3480  -25.7760 H   0  0  0  0  0  0  0  0  0  0  0  0
    0.7980   -4.9320  -27.5460 N   0  0  0  0  0  0  0  0  0  0  0  0
    1.1060   -4.2390  -28.7910 C   0  0  0  0  0  1  0  0  0  0  0  0
    1.5390   -6.0640  -27.2670 C   0  0  0  0  0  0  0  0  0  0  0  0
    1.3950   -6.7980  -26.0880 C   0  0  0  0  0  3  0  0  0  0  0  0
    2.1460   -7.9570  -25.8740 C   0  0  0  0  0  3  0  0  0  0  0  0
    3.0210   -8.3910  -26.8620 C   0  0  0  0  0  0  0  0  0  0  0  0
    3.1610   -7.5990  -27.9820 C   0  0  0  0  0  3  0  0  0  0  0  0
    2.4350   -6.4730  -28.2000 N   0  0  0  0  0  0  0  0  0  0  0  0
   -0.3400   -4.4570  -26.7570 C   0  0  0  0  0  2  0  0  0  0  0  0
   -0.5380   -2.9340  -26.8220 C   0  0  0  0  0  2  0  0  0  0  0  0
   -1.4970   -1.9530  -24.8770 C   0  0  0  0  0  1  0  0  0  0  0  0
   -1.7260   -2.4680  -26.1810 O   0  0  0  0  0  0  0  0  0  0  0  0
   -0.3490  -11.5630  -22.7770 C   0  0  0  0  0  2  0  0  0  0  0  0
   -0.0200  -10.3610  -22.0320 N   0  0  0  0  0  0  0  0  0  0  0  0
    0.9470  -10.1280  -21.8850 H   0  0  0  0  0  0  0  0  0  0  0  0
   -1.0240   -9.4740  -21.6750 C   0  0  0  0  0  0  0  0  0  0  0  0
   -1.4730   -9.5400  -20.4090 N   0  0  0  0  0  0  0  0  0  0  0  0
   -2.6580   -8.9870  -20.1600 C   0  0  0  0  0  3  0  0  0  0  0  0
   -3.4730   -8.4670  -21.0770 N   0  0  0  0  0  0  0  0  0  0  0  0
   -2.9980   -8.3400  -22.3320 C   0  0  0  0  0  0  0  0  0  0  0  0
   -3.7910   -7.8390  -23.3690 C   0  0  0  0  0  0  0  0  0  0  0  0
   -3.2880   -7.5580  -24.6470 C   0  0  0  0  0  3  0  0  0  0  0  0
   -1.9690   -7.8570  -24.9410 C   0  0  0  0  0  3  0  0  0  0  0  0
   -1.1930   -8.4900  -23.9740 C   0  0  0  0  0  3  0  0  0  0  0  0
   -1.7010   -8.7480  -22.6710 C   0  0  0  0  0  0  0  0  0  0  0  0
   -5.2550   -7.7340  -23.2050 C   0  0  0  0  0  0  0  0  0  0  0  0
   -5.6870   -6.6160  -22.5420 N   0  0  0  0  0  0  0  0  0  0  0  0
   -6.0080   -8.6420  -23.5240 O   0  0  0  0  0  0  0  0  0  0  0  0
   -6.6740   -6.5160  -22.3570 H   0  0  0  0  0  0  0  0  0  0  0  0
   -5.0580   -5.8780  -22.2560 H   0  0  0  0  0  0  0  0  0  0  0  0
  1  6  1  0  0  0  0
  2  3  1  0  0  0  0
  2  1  2  0  0  0  0
  3  4  2  0  0  0  0
  4  5  1  0  0  0  0
  5 23  1  0  0  0  0
  6  5  2  0  0  0  0
  7  9  1  0  0  0  0
  8  7  2  0  0  0  0
  9 10  1  0  0  0  0
  9  1  1  0  0  0  0
 11 13  1  0  0  0  0
 11 19  1  0  0  0  0
 12 11  1  0  0  0  0
 13 14  1  0  0  0  0
 14 15  2  0  0  0  0
 16  7  1  0  0  0  0
 16 15  1  0  0  0  0
 17 16  2  0  0  0  0
 18 17  1  0  0  0  0
 18 13  2  0  0  0  0
 20 19  1  0  0  0  0
 20 22  1  0  0  0  0
 22 21  1  0  0  0  0
 23 24  1  0  0  0  0
 24 25  1  0  0  0  0
 24 26  1  0  0  0  0
 26 27  1  0  0  0  0
 27 28  2  0  0  0  0
 29 28  1  0  0  0  0
 30 29  2  0  0  0  0
 31 36  1  0  0  0  0
 31 30  1  0  0  0  0
 32 31  2  0  0  0  0
 33 32  1  0  0  0  0
 33 34  2  0  0  0  0
 34 35  1  0  0  0  0
 35 30  1  0  0  0  0
 35 26  2  0  0  0  0
 36 37  1  0  0  0  0
 37 39  1  0  0  0  0
 37 40  1  0  0  0  0
 38 36  2  0  0  0  0
M  END
>  <minimizedAffinity>
-5.16147327

$$$$
