
 OpenBabel10152418253D

 40 43  0  0  0  0  0  0  0  0999 V2000
    4.0780   -8.5410  -28.6970 C   0  0  0  0  0  0  0  0  0  0  0  0
    4.9470   -7.8770  -27.8300 C   0  0  0  0  0  3  0  0  0  0  0  0
    4.7110   -6.5500  -27.4890 C   0  0  0  0  0  3  0  0  0  0  0  0
    3.5870   -5.8950  -27.9890 C   0  0  0  0  0  3  0  0  0  0  0  0
    2.6460   -6.5630  -28.7860 C   0  0  0  0  0  0  0  0  0  0  0  0
    2.9070   -7.8990  -29.1290 C   0  0  0  0  0  3  0  0  0  0  0  0
    4.2640  -11.0510  -28.4340 C   0  0  0  0  0  0  0  0  0  0  0  0
    4.9040  -12.0390  -28.7900 O   0  0  0  0  0  0  0  0  0  0  0  0
    4.4370   -9.8470  -29.0760 N   0  0  0  0  0  0  0  0  0  0  0  0
    4.9010   -9.9520  -29.9720 H   0  0  0  0  0  0  0  0  0  0  0  0
    0.1670  -11.8370  -24.6420 N   0  0  0  0  0  0  0  0  0  0  0  0
   -1.1520  -12.0310  -25.2330 C   0  0  0  0  0  1  0  0  0  0  0  0
    1.2070  -11.5920  -25.5170 C   0  0  0  0  0  0  0  0  0  0  0  0
    2.5130  -11.3320  -25.0960 C   0  0  0  0  0  3  0  0  0  0  0  0
    3.5350  -11.1280  -26.0270 C   0  0  0  0  0  3  0  0  0  0  0  0
    3.2450  -11.2130  -27.3830 C   0  0  0  0  0  0  0  0  0  0  0  0
    1.9290  -11.4190  -27.7420 C   0  0  0  0  0  3  0  0  0  0  0  0
    0.9300  -11.6210  -26.8450 N   0  0  0  0  0  0  0  0  0  0  0  0
    0.3120  -12.0380  -23.1990 C   0  0  0  0  0  2  0  0  0  0  0  0
   -0.9410  -11.6490  -22.3980 C   0  0  0  0  0  2  0  0  0  0  0  0
   -1.7360   -9.9710  -20.9090 C   0  0  0  0  0  1  0  0  0  0  0  0
   -1.0510  -10.2520  -22.1210 O   0  0  0  0  0  0  0  0  0  0  0  0
    1.4110   -5.8520  -29.3270 C   0  0  0  0  0  2  0  0  0  0  0  0
    1.1430   -4.5980  -28.6460 N   0  0  0  0  0  0  0  0  0  0  0  0
    1.5880   -3.7580  -28.9770 H   0  0  0  0  0  0  0  0  0  0  0  0
    0.1680   -4.5410  -27.6620 C   0  0  0  0  0  0  0  0  0  0  0  0
   -0.2740   -3.3210  -27.3120 N   0  0  0  0  0  0  0  0  0  0  0  0
   -0.9030   -3.2200  -26.1440 C   0  0  0  0  0  3  0  0  0  0  0  0
   -1.0400   -4.2030  -25.2540 N   0  0  0  0  0  0  0  0  0  0  0  0
   -0.6570   -5.4390  -25.6310 C   0  0  0  0  0  0  0  0  0  0  0  0
   -0.7290   -6.5270  -24.7550 C   0  0  0  0  0  0  0  0  0  0  0  0
   -0.4790   -7.8470  -25.1550 C   0  0  0  0  0  3  0  0  0  0  0  0
   -0.0630   -8.0980  -26.4520 C   0  0  0  0  0  3  0  0  0  0  0  0
    0.1570   -7.0220  -27.3060 C   0  0  0  0  0  3  0  0  0  0  0  0
   -0.1240   -5.6880  -26.9020 C   0  0  0  0  0  0  0  0  0  0  0  0
   -0.9170   -6.3080  -23.3070 C   0  0  0  0  0  0  0  0  0  0  0  0
    0.0350   -5.5260  -22.7090 N   0  0  0  0  0  0  0  0  0  0  0  0
   -1.7850   -6.8890  -22.6720 O   0  0  0  0  0  0  0  0  0  0  0  0
   -0.0140   -5.3840  -21.7110 H   0  0  0  0  0  0  0  0  0  0  0  0
    0.7680   -5.0670  -23.2340 H   0  0  0  0  0  0  0  0  0  0  0  0
  1  2  1  0  0  0  0
  2  3  2  0  0  0  0
  4  3  1  0  0  0  0
  5  4  2  0  0  0  0
  6  5  1  0  0  0  0
  6  1  2  0  0  0  0
  7 16  1  0  0  0  0
  8  7  2  0  0  0  0
  9  1  1  0  0  0  0
  9  7  1  0  0  0  0
 10  9  1  0  0  0  0
 11 19  1  0  0  0  0
 12 11  1  0  0  0  0
 13 14  1  0  0  0  0
 13 11  1  0  0  0  0
 15 14  2  0  0  0  0
 16 15  1  0  0  0  0
 17 16  2  0  0  0  0
 17 18  1  0  0  0  0
 18 13  2  0  0  0  0
 19 20  1  0  0  0  0
 20 22  1  0  0  0  0
 22 21  1  0  0  0  0
 23  5  1  0  0  0  0
 23 24  1  0  0  0  0
 24 26  1  0  0  0  0
 25 24  1  0  0  0  0
 26 27  2  0  0  0  0
 26 35  1  0  0  0  0
 27 28  1  0  0  0  0
 28 29  2  0  0  0  0
 30 29  1  0  0  0  0
 30 31  1  0  0  0  0
 31 36  1  0  0  0  0
 32 31  2  0  0  0  0
 33 32  1  0  0  0  0
 34 35  1  0  0  0  0
 34 33  2  0  0  0  0
 35 30  2  0  0  0  0
 36 37  1  0  0  0  0
 36 38  2  0  0  0  0
 37 39  1  0  0  0  0
 40 37  1  0  0  0  0
M  END
>  <minimizedAffinity>
-6.07845974

$$$$

 OpenBabel10152418253D

 40 43  0  0  0  0  0  0  0  0999 V2000
    2.2530   -5.7970  -28.2620 C   0  0  0  0  0  0  0  0  0  0  0  0
    2.3170   -6.3240  -29.5530 C   0  0  0  0  0  3  0  0  0  0  0  0
    3.0520   -7.4770  -29.7980 C   0  0  0  0  0  3  0  0  0  0  0  0
    3.7000   -8.1240  -28.7470 C   0  0  0  0  0  3  0  0  0  0  0  0
    3.5790   -7.6710  -27.4250 C   0  0  0  0  0  0  0  0  0  0  0  0
    2.8410   -6.4990  -27.1990 C   0  0  0  0  0  3  0  0  0  0  0  0
    0.3950   -4.2710  -27.4730 C   0  0  0  0  0  0  0  0  0  0  0  0
   -0.1740   -3.2050  -27.7020 O   0  0  0  0  0  0  0  0  0  0  0  0
    1.5760   -4.5730  -28.1100 N   0  0  0  0  0  0  0  0  0  0  0  0
    2.0080   -3.7560  -28.5270 H   0  0  0  0  0  0  0  0  0  0  0  0
   -1.7280   -7.3990  -23.2920 N   0  0  0  0  0  0  0  0  0  0  0  0
   -1.4410   -6.8760  -21.9610 C   0  0  0  0  0  1  0  0  0  0  0  0
   -1.1950   -6.7030  -24.3590 C   0  0  0  0  0  0  0  0  0  0  0  0
   -1.3380   -7.1150  -25.6860 C   0  0  0  0  0  3  0  0  0  0  0  0
   -0.8080   -6.3510  -26.7300 C   0  0  0  0  0  3  0  0  0  0  0  0
   -0.1590   -5.1590  -26.4370 C   0  0  0  0  0  0  0  0  0  0  0  0
   -0.0010   -4.8290  -25.1070 C   0  0  0  0  0  3  0  0  0  0  0  0
   -0.5130   -5.5620  -24.0860 N   0  0  0  0  0  0  0  0  0  0  0  0
   -2.6490   -8.5310  -23.4030 C   0  0  0  0  0  2  0  0  0  0  0  0
   -4.0280   -8.2610  -22.7790 C   0  0  0  0  0  2  0  0  0  0  0  0
   -6.2560   -7.4970  -23.1270 C   0  0  0  0  0  1  0  0  0  0  0  0
   -4.9270   -7.5460  -23.6280 O   0  0  0  0  0  0  0  0  0  0  0  0
    4.2780   -8.3810  -26.2720 C   0  0  0  0  0  2  0  0  0  0  0  0
    4.5630   -9.7750  -26.5620 N   0  0  0  0  0  0  0  0  0  0  0  0
    5.5210  -10.0830  -26.5840 H   0  0  0  0  0  0  0  0  0  0  0  0
    3.5240  -10.6890  -26.6450 C   0  0  0  0  0  0  0  0  0  0  0  0
    3.4700  -11.4500  -27.7520 N   0  0  0  0  0  0  0  0  0  0  0  0
    2.3080  -12.0390  -28.0230 C   0  0  0  0  0  3  0  0  0  0  0  0
    1.1740  -11.8550  -27.3460 N   0  0  0  0  0  0  0  0  0  0  0  0
    1.2420  -11.1470  -26.2010 C   0  0  0  0  0  0  0  0  0  0  0  0
    0.1010  -10.8710  -25.4400 C   0  0  0  0  0  0  0  0  0  0  0  0
    0.1540  -10.2660  -24.1770 C   0  0  0  0  0  3  0  0  0  0  0  0
    1.3720   -9.8430  -23.6750 C   0  0  0  0  0  3  0  0  0  0  0  0
    2.5080   -9.9730  -24.4690 C   0  0  0  0  0  3  0  0  0  0  0  0
    2.4520  -10.6110  -25.7390 C   0  0  0  0  0  0  0  0  0  0  0  0
   -1.2440  -11.0610  -26.0180 C   0  0  0  0  0  0  0  0  0  0  0  0
   -1.4700  -10.3970  -27.1940 N   0  0  0  0  0  0  0  0  0  0  0  0
   -2.1250  -11.6610  -25.4210 O   0  0  0  0  0  0  0  0  0  0  0  0
   -2.3890  -10.4500  -27.6100 H   0  0  0  0  0  0  0  0  0  0  0  0
   -0.7460   -9.8790  -27.6740 H   0  0  0  0  0  0  0  0  0  0  0  0
  1  9  1  0  0  0  0
  1  6  1  0  0  0  0
  2  1  2  0  0  0  0
  3  2  1  0  0  0  0
  3  4  2  0  0  0  0
  4  5  1  0  0  0  0
  5  6  2  0  0  0  0
  5 23  1  0  0  0  0
  7 16  1  0  0  0  0
  8  7  2  0  0  0  0
  9  7  1  0  0  0  0
 10  9  1  0  0  0  0
 11 12  1  0  0  0  0
 13 18  1  0  0  0  0
 13 11  1  0  0  0  0
 14 13  2  0  0  0  0
 15 16  2  0  0  0  0
 15 14  1  0  0  0  0
 16 17  1  0  0  0  0
 17 18  2  0  0  0  0
 19 11  1  0  0  0  0
 19 20  1  0  0  0  0
 22 21  1  0  0  0  0
 22 20  1  0  0  0  0
 24 23  1  0  0  0  0
 25 24  1  0  0  0  0
 26 24  1  0  0  0  0
 26 35  1  0  0  0  0
 27 26  2  0  0  0  0
 28 27  1  0  0  0  0
 28 29  2  0  0  0  0
 29 30  1  0  0  0  0
 30 35  2  0  0  0  0
 30 31  1  0  0  0  0
 31 32  2  0  0  0  0
 32 33  1  0  0  0  0
 34 33  2  0  0  0  0
 35 34  1  0  0  0  0
 36 31  1  0  0  0  0
 36 38  2  0  0  0  0
 37 36  1  0  0  0  0
 39 37  1  0  0  0  0
 40 37  1  0  0  0  0
M  END
>  <minimizedAffinity>
-6.01563931

$$$$

 OpenBabel10152418253D

 40 43  0  0  0  0  0  0  0  0999 V2000
    1.1050  -11.6420  -25.9150 C   0  0  0  0  0  0  0  0  0  0  0  0
    1.2050  -11.9760  -24.5630 C   0  0  0  0  0  3  0  0  0  0  0  0
    2.4520  -12.0380  -23.9520 C   0  0  0  0  0  3  0  0  0  0  0  0
    3.5990  -11.7350  -24.6840 C   0  0  0  0  0  3  0  0  0  0  0  0
    3.5230  -11.3060  -26.0170 C   0  0  0  0  0  0  0  0  0  0  0  0
    2.2560  -11.2610  -26.6200 C   0  0  0  0  0  3  0  0  0  0  0  0
   -1.3900  -11.2370  -26.0310 C   0  0  0  0  0  0  0  0  0  0  0  0
   -2.4360  -11.6420  -26.5360 O   0  0  0  0  0  0  0  0  0  0  0  0
   -0.1780  -11.7000  -26.4880 N   0  0  0  0  0  0  0  0  0  0  0  0
   -0.2550  -12.1510  -27.3930 H   0  0  0  0  0  0  0  0  0  0  0  0
   -1.5250   -7.4140  -21.8910 N   0  0  0  0  0  0  0  0  0  0  0  0
   -1.4960   -7.9930  -20.5530 C   0  0  0  0  0  1  0  0  0  0  0  0
   -1.5410   -8.3000  -22.9500 C   0  0  0  0  0  0  0  0  0  0  0  0
   -1.6240   -7.8940  -24.2830 C   0  0  0  0  0  3  0  0  0  0  0  0
   -1.6000   -8.8340  -25.3180 C   0  0  0  0  0  3  0  0  0  0  0  0
   -1.4640  -10.1810  -25.0070 C   0  0  0  0  0  0  0  0  0  0  0  0
   -1.4400  -10.5290  -23.6730 C   0  0  0  0  0  3  0  0  0  0  0  0
   -1.4600   -9.6240  -22.6620 N   0  0  0  0  0  0  0  0  0  0  0  0
   -1.4070   -5.9590  -22.0150 C   0  0  0  0  0  2  0  0  0  0  0  0
   -0.3320   -5.5160  -23.0200 C   0  0  0  0  0  2  0  0  0  0  0  0
   -0.9960   -4.4830  -25.0590 C   0  0  0  0  0  1  0  0  0  0  0  0
   -0.6310   -4.2950  -23.6990 O   0  0  0  0  0  0  0  0  0  0  0  0
    4.7750  -10.9650  -26.8170 C   0  0  0  0  0  2  0  0  0  0  0  0
    4.9040   -9.5420  -27.0760 N   0  0  0  0  0  0  0  0  0  0  0  0
    5.7220   -9.0590  -26.7470 H   0  0  0  0  0  0  0  0  0  0  0  0
    3.9900   -8.9060  -27.9020 C   0  0  0  0  0  0  0  0  0  0  0  0
    4.2690   -8.8840  -29.2160 N   0  0  0  0  0  0  0  0  0  0  0  0
    3.6300   -7.9790  -29.9540 C   0  0  0  0  0  3  0  0  0  0  0  0
    2.8190   -7.0330  -29.4810 N   0  0  0  0  0  0  0  0  0  0  0  0
    2.4870   -7.0950  -28.1760 C   0  0  0  0  0  0  0  0  0  0  0  0
    1.6700   -6.1280  -27.5810 C   0  0  0  0  0  0  0  0  0  0  0  0
    1.1880   -6.2380  -26.2690 C   0  0  0  0  0  3  0  0  0  0  0  0
    1.5900   -7.3040  -25.4840 C   0  0  0  0  0  3  0  0  0  0  0  0
    2.5160   -8.2070  -25.9990 C   0  0  0  0  0  3  0  0  0  0  0  0
    2.9810   -8.1040  -27.3390 C   0  0  0  0  0  0  0  0  0  0  0  0
    1.4090   -4.8470  -28.2670 C   0  0  0  0  0  0  0  0  0  0  0  0
    0.4820   -4.9060  -29.2740 N   0  0  0  0  0  0  0  0  0  0  0  0
    2.0680   -3.8440  -28.0380 O   0  0  0  0  0  0  0  0  0  0  0  0
    0.3000   -4.0710  -29.8120 H   0  0  0  0  0  0  0  0  0  0  0  0
   -0.0440   -5.7450  -29.4790 H   0  0  0  0  0  0  0  0  0  0  0  0
  1  2  1  0  0  0  0
  2  3  2  0  0  0  0
  4  3  1  0  0  0  0
  5  4  2  0  0  0  0
  6  5  1  0  0  0  0
  6  1  2  0  0  0  0
  7 16  1  0  0  0  0
  8  7  2  0  0  0  0
  9  7  1  0  0  0  0
  9  1  1  0  0  0  0
 10  9  1  0  0  0  0
 11 12  1  0  0  0  0
 13 18  1  0  0  0  0
 13 11  1  0  0  0  0
 14 13  2  0  0  0  0
 15 16  2  0  0  0  0
 15 14  1  0  0  0  0
 16 17  1  0  0  0  0
 17 18  2  0  0  0  0
 19 11  1  0  0  0  0
 20 19  1  0  0  0  0
 21 22  1  0  0  0  0
 22 20  1  0  0  0  0
 23  5  1  0  0  0  0
 24 23  1  0  0  0  0
 24 25  1  0  0  0  0
 26 35  1  0  0  0  0
 26 24  1  0  0  0  0
 27 26  2  0  0  0  0
 28 29  2  0  0  0  0
 28 27  1  0  0  0  0
 29 30  1  0  0  0  0
 30 31  2  0  0  0  0
 30 35  1  0  0  0  0
 31 32  1  0  0  0  0
 32 33  2  0  0  0  0
 34 33  1  0  0  0  0
 35 34  2  0  0  0  0
 36 38  2  0  0  0  0
 36 31  1  0  0  0  0
 37 36  1  0  0  0  0
 39 37  1  0  0  0  0
 40 37  1  0  0  0  0
M  END
>  <minimizedAffinity>
-5.349895

$$$$

 OpenBabel10152418253D

 40 43  0  0  0  0  0  0  0  0999 V2000
    2.0180  -11.1020  -25.7650 C   0  0  0  0  0  0  0  0  0  0  0  0
    1.2150  -11.5230  -26.8270 C   0  0  0  0  0  3  0  0  0  0  0  0
   -0.0650  -12.0050  -26.5830 C   0  0  0  0  0  3  0  0  0  0  0  0
   -0.5570  -12.0380  -25.2790 C   0  0  0  0  0  3  0  0  0  0  0  0
    0.1890  -11.5360  -24.2030 C   0  0  0  0  0  0  0  0  0  0  0  0
    1.4840  -11.0630  -24.4680 C   0  0  0  0  0  3  0  0  0  0  0  0
    3.8220   -9.6210  -26.7410 C   0  0  0  0  0  0  0  0  0  0  0  0
    4.9740   -9.6170  -27.1710 O   0  0  0  0  0  0  0  0  0  0  0  0
    3.3360  -10.7240  -26.0790 N   0  0  0  0  0  0  0  0  0  0  0  0
    4.0750  -11.3480  -25.7760 H   0  0  0  0  0  0  0  0  0  0  0  0
    0.7980   -4.9320  -27.5460 N   0  0  0  0  0  0  0  0  0  0  0  0
    1.1060   -4.2390  -28.7910 C   0  0  0  0  0  1  0  0  0  0  0  0
    1.5390   -6.0640  -27.2670 C   0  0  0  0  0  0  0  0  0  0  0  0
    1.3950   -6.7980  -26.0880 C   0  0  0  0  0  3  0  0  0  0  0  0
    2.1460   -7.9570  -25.8740 C   0  0  0  0  0  3  0  0  0  0  0  0
    3.0210   -8.3910  -26.8620 C   0  0  0  0  0  0  0  0  0  0  0  0
    3.1610   -7.5990  -27.9820 C   0  0  0  0  0  3  0  0  0  0  0  0
    2.4350   -6.4730  -28.2000 N   0  0  0  0  0  0  0  0  0  0  0  0
   -0.3400   -4.4570  -26.7570 C   0  0  0  0  0  2  0  0  0  0  0  0
   -0.5380   -2.9340  -26.8220 C   0  0  0  0  0  2  0  0  0  0  0  0
   -1.4970   -1.9530  -24.8770 C   0  0  0  0  0  1  0  0  0  0  0  0
   -1.7260   -2.4680  -26.1810 O   0  0  0  0  0  0  0  0  0  0  0  0
   -0.3490  -11.5630  -22.7770 C   0  0  0  0  0  2  0  0  0  0  0  0
   -0.0200  -10.3610  -22.0320 N   0  0  0  0  0  0  0  0  0  0  0  0
    0.9470  -10.1280  -21.8850 H   0  0  0  0  0  0  0  0  0  0  0  0
   -1.0240   -9.4740  -21.6750 C   0  0  0  0  0  0  0  0  0  0  0  0
   -1.4730   -9.5400  -20.4090 N   0  0  0  0  0  0  0  0  0  0  0  0
   -2.6580   -8.9870  -20.1600 C   0  0  0  0  0  3  0  0  0  0  0  0
   -3.4730   -8.4670  -21.0770 N   0  0  0  0  0  0  0  0  0  0  0  0
   -2.9980   -8.3400  -22.3320 C   0  0  0  0  0  0  0  0  0  0  0  0
   -3.7910   -7.8390  -23.3690 C   0  0  0  0  0  0  0  0  0  0  0  0
   -3.2880   -7.5580  -24.6470 C   0  0  0  0  0  3  0  0  0  0  0  0
   -1.9690   -7.8570  -24.9410 C   0  0  0  0  0  3  0  0  0  0  0  0
   -1.1930   -8.4900  -23.9740 C   0  0  0  0  0  3  0  0  0  0  0  0
   -1.7010   -8.7480  -22.6710 C   0  0  0  0  0  0  0  0  0  0  0  0
   -5.2550   -7.7340  -23.2050 C   0  0  0  0  0  0  0  0  0  0  0  0
   -5.6870   -6.6160  -22.5420 N   0  0  0  0  0  0  0  0  0  0  0  0
   -6.0080   -8.6420  -23.5240 O   0  0  0  0  0  0  0  0  0  0  0  0
   -6.6740   -6.5160  -22.3570 H   0  0  0  0  0  0  0  0  0  0  0  0
   -5.0580   -5.8780  -22.2560 H   0  0  0  0  0  0  0  0  0  0  0  0
  1  6  1  0  0  0  0
  2  3  1  0  0  0  0
  2  1  2  0  0  0  0
  3  4  2  0  0  0  0
  4  5  1  0  0  0  0
  5 23  1  0  0  0  0
  6  5  2  0  0  0  0
  7  9  1  0  0  0  0
  8  7  2  0  0  0  0
  9 10  1  0  0  0  0
  9  1  1  0  0  0  0
 11 13  1  0  0  0  0
 11 19  1  0  0  0  0
 12 11  1  0  0  0  0
 13 14  1  0  0  0  0
 14 15  2  0  0  0  0
 16  7  1  0  0  0  0
 16 15  1  0  0  0  0
 17 16  2  0  0  0  0
 18 17  1  0  0  0  0
 18 13  2  0  0  0  0
 20 19  1  0  0  0  0
 20 22  1  0  0  0  0
 22 21  1  0  0  0  0
 23 24  1  0  0  0  0
 24 25  1  0  0  0  0
 24 26  1  0  0  0  0
 26 27  1  0  0  0  0
 27 28  2  0  0  0  0
 29 28  1  0  0  0  0
 30 29  2  0  0  0  0
 31 36  1  0  0  0  0
 31 30  1  0  0  0  0
 32 31  2  0  0  0  0
 33 32  1  0  0  0  0
 33 34  2  0  0  0  0
 34 35  1  0  0  0  0
 35 30  1  0  0  0  0
 35 26  2  0  0  0  0
 36 37  1  0  0  0  0
 37 39  1  0  0  0  0
 37 40  1  0  0  0  0
 38 36  2  0  0  0  0
M  END
>  <minimizedAffinity>
-5.16147327

$$$$

 OpenBabel10152418253D

 40 43  0  0  0  0  0  0  0  0999 V2000
    1.0630  -10.9590  -26.5300 C   0  0  0  0  0  0  0  0  0  0  0  0
    1.5560  -11.9960  -25.7340 C   0  0  0  0  0  3  0  0  0  0  0  0
    2.9040  -12.0380  -25.4040 C   0  0  0  0  0  3  0  0  0  0  0  0
    3.7590  -11.0280  -25.8420 C   0  0  0  0  0  3  0  0  0  0  0  0
    3.2780   -9.9260  -26.5640 C   0  0  0  0  0  0  0  0  0  0  0  0
    1.9140   -9.9060  -26.8980 C   0  0  0  0  0  3  0  0  0  0  0  0
   -1.4400  -10.9400  -26.1610 C   0  0  0  0  0  0  0  0  0  0  0  0
   -2.5120  -11.3270  -26.6230 O   0  0  0  0  0  0  0  0  0  0  0  0
   -0.2890  -11.0380  -26.9080 N   0  0  0  0  0  0  0  0  0  0  0  0
   -0.4820  -11.1900  -27.8920 H   0  0  0  0  0  0  0  0  0  0  0  0
   -1.7370   -8.2890  -21.1950 N   0  0  0  0  0  0  0  0  0  0  0  0
   -2.6150   -7.1250  -21.2010 C   0  0  0  0  0  1  0  0  0  0  0  0
   -1.5840   -8.9560  -22.3950 C   0  0  0  0  0  0  0  0  0  0  0  0
   -0.7350  -10.0520  -22.5550 C   0  0  0  0  0  3  0  0  0  0  0  0
   -0.6470  -10.7110  -23.7840 C   0  0  0  0  0  3  0  0  0  0  0  0
   -1.4370  -10.2820  -24.8430 C   0  0  0  0  0  0  0  0  0  0  0  0
   -2.2170   -9.1630  -24.6430 C   0  0  0  0  0  3  0  0  0  0  0  0
   -2.3120   -8.5170  -23.4530 N   0  0  0  0  0  0  0  0  0  0  0  0
   -1.1910   -8.7340  -19.9110 C   0  0  0  0  0  2  0  0  0  0  0  0
   -1.7880  -10.0630  -19.4200 C   0  0  0  0  0  2  0  0  0  0  0  0
   -2.9790  -12.0350  -20.0180 C   0  0  0  0  0  1  0  0  0  0  0  0
   -2.1700  -10.9580  -20.4670 O   0  0  0  0  0  0  0  0  0  0  0  0
    4.2080   -8.8150  -27.0360 C   0  0  0  0  0  2  0  0  0  0  0  0
    3.7500   -7.4950  -26.6400 N   0  0  0  0  0  0  0  0  0  0  0  0
    4.3020   -6.9630  -25.9880 H   0  0  0  0  0  0  0  0  0  0  0  0
    2.6600   -6.9230  -27.2760 C   0  0  0  0  0  0  0  0  0  0  0  0
    2.8250   -6.5640  -28.5610 N   0  0  0  0  0  0  0  0  0  0  0  0
    1.9510   -5.6920  -29.0610 C   0  0  0  0  0  3  0  0  0  0  0  0
    0.9960   -5.0740  -28.3660 N   0  0  0  0  0  0  0  0  0  0  0  0
    0.7880   -5.4810  -27.0980 C   0  0  0  0  0  0  0  0  0  0  0  0
   -0.1670   -4.8700  -26.2790 C   0  0  0  0  0  0  0  0  0  0  0  0
   -0.5110   -5.3580  -25.0110 C   0  0  0  0  0  3  0  0  0  0  0  0
    0.1700   -6.4470  -24.4940 C   0  0  0  0  0  3  0  0  0  0  0  0
    1.2240   -6.9880  -25.2240 C   0  0  0  0  0  3  0  0  0  0  0  0
    1.5500   -6.5050  -26.5210 C   0  0  0  0  0  0  0  0  0  0  0  0
   -0.7490   -3.5660  -26.6570 C   0  0  0  0  0  0  0  0  0  0  0  0
    0.1160   -2.7020  -27.2750 N   0  0  0  0  0  0  0  0  0  0  0  0
   -1.8780   -3.2400  -26.3240 O   0  0  0  0  0  0  0  0  0  0  0  0
   -0.2130   -1.7760  -27.5110 H   0  0  0  0  0  0  0  0  0  0  0  0
    1.0600   -2.9650  -27.5260 H   0  0  0  0  0  0  0  0  0  0  0  0
  1  2  1  0  0  0  0
  2  3  2  0  0  0  0
  4  3  1  0  0  0  0
  5  4  2  0  0  0  0
  6  5  1  0  0  0  0
  6  1  2  0  0  0  0
  7 16  1  0  0  0  0
  8  7  2  0  0  0  0
  9  1  1  0  0  0  0
  9  7  1  0  0  0  0
 10  9  1  0  0  0  0
 11 19  1  0  0  0  0
 12 11  1  0  0  0  0
 13 11  1  0  0  0  0
 14 13  1  0  0  0  0
 15 14  2  0  0  0  0
 16 17  2  0  0  0  0
 16 15  1  0  0  0  0
 17 18  1  0  0  0  0
 18 13  2  0  0  0  0
 19 20  1  0  0  0  0
 22 21  1  0  0  0  0
 22 20  1  0  0  0  0
 23 24  1  0  0  0  0
 23  5  1  0  0  0  0
 24 25  1  0  0  0  0
 26 24  1  0  0  0  0
 26 35  1  0  0  0  0
 27 26  2  0  0  0  0
 28 27  1  0  0  0  0
 28 29  2  0  0  0  0
 29 30  1  0  0  0  0
 30 35  2  0  0  0  0
 30 31  1  0  0  0  0
 31 32  2  0  0  0  0
 32 33  1  0  0  0  0
 34 33  2  0  0  0  0
 35 34  1  0  0  0  0
 36 38  2  0  0  0  0
 36 31  1  0  0  0  0
 37 36  1  0  0  0  0
 39 37  1  0  0  0  0
 40 37  1  0  0  0  0
M  END
>  <minimizedAffinity>
-3.71576905

$$$$

 OpenBabel10152418253D

 40 43  0  0  0  0  0  0  0  0999 V2000
   -2.2910   -8.7660  -21.9190 C   0  0  0  0  0  0  0  0  0  0  0  0
   -3.5820   -8.6790  -22.4450 C   0  0  0  0  0  3  0  0  0  0  0  0
   -3.9610   -7.5590  -23.1750 C   0  0  0  0  0  3  0  0  0  0  0  0
   -3.0410   -6.5380  -23.4070 C   0  0  0  0  0  3  0  0  0  0  0  0
   -1.7120   -6.6380  -22.9720 C   0  0  0  0  0  0  0  0  0  0  0  0
   -1.3500   -7.7720  -22.2270 C   0  0  0  0  0  3  0  0  0  0  0  0
   -1.4190  -11.0850  -21.4030 C   0  0  0  0  0  0  0  0  0  0  0  0
   -1.5310  -12.0350  -20.6310 O   0  0  0  0  0  0  0  0  0  0  0  0
   -2.0120   -9.8800  -21.1060 N   0  0  0  0  0  0  0  0  0  0  0  0
   -2.2790   -9.8130  -20.1300 H   0  0  0  0  0  0  0  0  0  0  0  0
    2.1000  -11.8360  -25.7420 N   0  0  0  0  0  0  0  0  0  0  0  0
    3.4900  -12.0290  -25.3460 C   0  0  0  0  0  1  0  0  0  0  0  0
    1.1930  -11.6000  -24.7270 C   0  0  0  0  0  0  0  0  0  0  0  0
   -0.1590  -11.3430  -24.9570 C   0  0  0  0  0  3  0  0  0  0  0  0
   -1.0390  -11.1460  -23.8890 C   0  0  0  0  0  3  0  0  0  0  0  0
   -0.5590  -11.2380  -22.5890 C   0  0  0  0  0  0  0  0  0  0  0  0
    0.7940  -11.4410  -22.4220 C   0  0  0  0  0  3  0  0  0  0  0  0
    1.6570  -11.6350  -23.4520 N   0  0  0  0  0  0  0  0  0  0  0  0
    1.7520  -12.0310  -27.1510 C   0  0  0  0  0  2  0  0  0  0  0  0
    2.9240  -11.7750  -28.1120 C   0  0  0  0  0  2  0  0  0  0  0  0
    4.6990  -10.3130  -28.7270 C   0  0  0  0  0  1  0  0  0  0  0  0
    3.4600  -10.4520  -28.0470 O   0  0  0  0  0  0  0  0  0  0  0  0
   -0.7010   -5.5280  -23.2330 C   0  0  0  0  0  2  0  0  0  0  0  0
   -0.7000   -5.0840  -24.6150 N   0  0  0  0  0  0  0  0  0  0  0  0
   -0.8190   -4.1050  -24.8130 H   0  0  0  0  0  0  0  0  0  0  0  0
   -0.3790   -5.9770  -25.6260 C   0  0  0  0  0  0  0  0  0  0  0  0
   -0.5040   -7.2860  -25.3440 N   0  0  0  0  0  0  0  0  0  0  0  0
    0.1430   -8.1380  -26.1360 C   0  0  0  0  0  3  0  0  0  0  0  0
    0.9800   -7.7960  -27.1150 N   0  0  0  0  0  0  0  0  0  0  0  0
    1.0550   -6.4900  -27.4410 C   0  0  0  0  0  0  0  0  0  0  0  0
    1.9300   -6.0300  -28.4300 C   0  0  0  0  0  0  0  0  0  0  0  0
    1.9310   -4.7070  -28.8950 C   0  0  0  0  0  3  0  0  0  0  0  0
    1.0900   -3.7790  -28.3050 C   0  0  0  0  0  3  0  0  0  0  0  0
    0.3100   -4.1720  -27.2210 C   0  0  0  0  0  3  0  0  0  0  0  0
    0.2950   -5.5210  -26.7730 C   0  0  0  0  0  0  0  0  0  0  0  0
    3.0200   -6.8960  -28.9220 C   0  0  0  0  0  0  0  0  0  0  0  0
    4.2640   -6.5990  -28.4310 N   0  0  0  0  0  0  0  0  0  0  0  0
    2.8410   -7.7270  -29.8000 O   0  0  0  0  0  0  0  0  0  0  0  0
    5.0560   -7.1260  -28.7710 H   0  0  0  0  0  0  0  0  0  0  0  0
    4.4140   -5.8920  -27.7240 H   0  0  0  0  0  0  0  0  0  0  0  0
  1  9  1  0  0  0  0
  2  1  2  0  0  0  0
  3  2  1  0  0  0  0
  4  3  2  0  0  0  0
  4  5  1  0  0  0  0
  5  6  2  0  0  0  0
  6  1  1  0  0  0  0
  7  9  1  0  0  0  0
  7  8  2  0  0  0  0
  9 10  1  0  0  0  0
 11 12  1  0  0  0  0
 11 13  1  0  0  0  0
 13 18  1  0  0  0  0
 14 13  2  0  0  0  0
 14 15  1  0  0  0  0
 15 16  2  0  0  0  0
 16 17  1  0  0  0  0
 16  7  1  0  0  0  0
 18 17  2  0  0  0  0
 19 11  1  0  0  0  0
 20 22  1  0  0  0  0
 20 19  1  0  0  0  0
 21 22  1  0  0  0  0
 23  5  1  0  0  0  0
 24 23  1  0  0  0  0
 25 24  1  0  0  0  0
 26 27  1  0  0  0  0
 26 24  1  0  0  0  0
 28 27  2  0  0  0  0
 29 28  1  0  0  0  0
 30 29  2  0  0  0  0
 30 35  1  0  0  0  0
 31 30  1  0  0  0  0
 32 31  2  0  0  0  0
 32 33  1  0  0  0  0
 33 34  2  0  0  0  0
 34 35  1  0  0  0  0
 35 26  2  0  0  0  0
 36 37  1  0  0  0  0
 36 31  1  0  0  0  0
 37 40  1  0  0  0  0
 38 36  2  0  0  0  0
 39 37  1  0  0  0  0
M  END
>  <minimizedAffinity>
-3.66738582

$$$$
