
 OpenBabel10152418253D

 40 43  0  0  0  0  0  0  0  0999 V2000
    2.2530   -5.7970  -28.2620 C   0  0  0  0  0  0  0  0  0  0  0  0
    2.3170   -6.3240  -29.5530 C   0  0  0  0  0  3  0  0  0  0  0  0
    3.0520   -7.4770  -29.7980 C   0  0  0  0  0  3  0  0  0  0  0  0
    3.7000   -8.1240  -28.7470 C   0  0  0  0  0  3  0  0  0  0  0  0
    3.5790   -7.6710  -27.4250 C   0  0  0  0  0  0  0  0  0  0  0  0
    2.8410   -6.4990  -27.1990 C   0  0  0  0  0  3  0  0  0  0  0  0
    0.3950   -4.2710  -27.4730 C   0  0  0  0  0  0  0  0  0  0  0  0
   -0.1740   -3.2050  -27.7020 O   0  0  0  0  0  0  0  0  0  0  0  0
    1.5760   -4.5730  -28.1100 N   0  0  0  0  0  0  0  0  0  0  0  0
    2.0080   -3.7560  -28.5270 H   0  0  0  0  0  0  0  0  0  0  0  0
   -1.7280   -7.3990  -23.2920 N   0  0  0  0  0  0  0  0  0  0  0  0
   -1.4410   -6.8760  -21.9610 C   0  0  0  0  0  1  0  0  0  0  0  0
   -1.1950   -6.7030  -24.3590 C   0  0  0  0  0  0  0  0  0  0  0  0
   -1.3380   -7.1150  -25.6860 C   0  0  0  0  0  3  0  0  0  0  0  0
   -0.8080   -6.3510  -26.7300 C   0  0  0  0  0  3  0  0  0  0  0  0
   -0.1590   -5.1590  -26.4370 C   0  0  0  0  0  0  0  0  0  0  0  0
   -0.0010   -4.8290  -25.1070 C   0  0  0  0  0  3  0  0  0  0  0  0
   -0.5130   -5.5620  -24.0860 N   0  0  0  0  0  0  0  0  0  0  0  0
   -2.6490   -8.5310  -23.4030 C   0  0  0  0  0  2  0  0  0  0  0  0
   -4.0280   -8.2610  -22.7790 C   0  0  0  0  0  2  0  0  0  0  0  0
   -6.2560   -7.4970  -23.1270 C   0  0  0  0  0  1  0  0  0  0  0  0
   -4.9270   -7.5460  -23.6280 O   0  0  0  0  0  0  0  0  0  0  0  0
    4.2780   -8.3810  -26.2720 C   0  0  0  0  0  2  0  0  0  0  0  0
    4.5630   -9.7750  -26.5620 N   0  0  0  0  0  0  0  0  0  0  0  0
    5.5210  -10.0830  -26.5840 H   0  0  0  0  0  0  0  0  0  0  0  0
    3.5240  -10.6890  -26.6450 C   0  0  0  0  0  0  0  0  0  0  0  0
    3.4700  -11.4500  -27.7520 N   0  0  0  0  0  0  0  0  0  0  0  0
    2.3080  -12.0390  -28.0230 C   0  0  0  0  0  3  0  0  0  0  0  0
    1.1740  -11.8550  -27.3460 N   0  0  0  0  0  0  0  0  0  0  0  0
    1.2420  -11.1470  -26.2010 C   0  0  0  0  0  0  0  0  0  0  0  0
    0.1010  -10.8710  -25.4400 C   0  0  0  0  0  0  0  0  0  0  0  0
    0.1540  -10.2660  -24.1770 C   0  0  0  0  0  3  0  0  0  0  0  0
    1.3720   -9.8430  -23.6750 C   0  0  0  0  0  3  0  0  0  0  0  0
    2.5080   -9.9730  -24.4690 C   0  0  0  0  0  3  0  0  0  0  0  0
    2.4520  -10.6110  -25.7390 C   0  0  0  0  0  0  0  0  0  0  0  0
   -1.2440  -11.0610  -26.0180 C   0  0  0  0  0  0  0  0  0  0  0  0
   -1.4700  -10.3970  -27.1940 N   0  0  0  0  0  0  0  0  0  0  0  0
   -2.1250  -11.6610  -25.4210 O   0  0  0  0  0  0  0  0  0  0  0  0
   -2.3890  -10.4500  -27.6100 H   0  0  0  0  0  0  0  0  0  0  0  0
   -0.7460   -9.8790  -27.6740 H   0  0  0  0  0  0  0  0  0  0  0  0
  1  9  1  0  0  0  0
  1  6  1  0  0  0  0
  2  1  2  0  0  0  0
  3  2  1  0  0  0  0
  3  4  2  0  0  0  0
  4  5  1  0  0  0  0
  5  6  2  0  0  0  0
  5 23  1  0  0  0  0
  7 16  1  0  0  0  0
  8  7  2  0  0  0  0
  9  7  1  0  0  0  0
 10  9  1  0  0  0  0
 11 12  1  0  0  0  0
 13 18  1  0  0  0  0
 13 11  1  0  0  0  0
 14 13  2  0  0  0  0
 15 16  2  0  0  0  0
 15 14  1  0  0  0  0
 16 17  1  0  0  0  0
 17 18  2  0  0  0  0
 19 11  1  0  0  0  0
 19 20  1  0  0  0  0
 22 21  1  0  0  0  0
 22 20  1  0  0  0  0
 24 23  1  0  0  0  0
 25 24  1  0  0  0  0
 26 24  1  0  0  0  0
 26 35  1  0  0  0  0
 27 26  2  0  0  0  0
 28 27  1  0  0  0  0
 28 29  2  0  0  0  0
 29 30  1  0  0  0  0
 30 35  2  0  0  0  0
 30 31  1  0  0  0  0
 31 32  2  0  0  0  0
 32 33  1  0  0  0  0
 34 33  2  0  0  0  0
 35 34  1  0  0  0  0
 36 31  1  0  0  0  0
 36 38  2  0  0  0  0
 37 36  1  0  0  0  0
 39 37  1  0  0  0  0
 40 37  1  0  0  0  0
M  END
>  <minimizedAffinity>
-6.01563931

$$$$
