
 OpenBabel10152418253D

 40 43  0  0  0  0  0  0  0  0999 V2000
   -2.2910   -8.7660  -21.9190 C   0  0  0  0  0  0  0  0  0  0  0  0
   -3.5820   -8.6790  -22.4450 C   0  0  0  0  0  3  0  0  0  0  0  0
   -3.9610   -7.5590  -23.1750 C   0  0  0  0  0  3  0  0  0  0  0  0
   -3.0410   -6.5380  -23.4070 C   0  0  0  0  0  3  0  0  0  0  0  0
   -1.7120   -6.6380  -22.9720 C   0  0  0  0  0  0  0  0  0  0  0  0
   -1.3500   -7.7720  -22.2270 C   0  0  0  0  0  3  0  0  0  0  0  0
   -1.4190  -11.0850  -21.4030 C   0  0  0  0  0  0  0  0  0  0  0  0
   -1.5310  -12.0350  -20.6310 O   0  0  0  0  0  0  0  0  0  0  0  0
   -2.0120   -9.8800  -21.1060 N   0  0  0  0  0  0  0  0  0  0  0  0
   -2.2790   -9.8130  -20.1300 H   0  0  0  0  0  0  0  0  0  0  0  0
    2.1000  -11.8360  -25.7420 N   0  0  0  0  0  0  0  0  0  0  0  0
    3.4900  -12.0290  -25.3460 C   0  0  0  0  0  1  0  0  0  0  0  0
    1.1930  -11.6000  -24.7270 C   0  0  0  0  0  0  0  0  0  0  0  0
   -0.1590  -11.3430  -24.9570 C   0  0  0  0  0  3  0  0  0  0  0  0
   -1.0390  -11.1460  -23.8890 C   0  0  0  0  0  3  0  0  0  0  0  0
   -0.5590  -11.2380  -22.5890 C   0  0  0  0  0  0  0  0  0  0  0  0
    0.7940  -11.4410  -22.4220 C   0  0  0  0  0  3  0  0  0  0  0  0
    1.6570  -11.6350  -23.4520 N   0  0  0  0  0  0  0  0  0  0  0  0
    1.7520  -12.0310  -27.1510 C   0  0  0  0  0  2  0  0  0  0  0  0
    2.9240  -11.7750  -28.1120 C   0  0  0  0  0  2  0  0  0  0  0  0
    4.6990  -10.3130  -28.7270 C   0  0  0  0  0  1  0  0  0  0  0  0
    3.4600  -10.4520  -28.0470 O   0  0  0  0  0  0  0  0  0  0  0  0
   -0.7010   -5.5280  -23.2330 C   0  0  0  0  0  2  0  0  0  0  0  0
   -0.7000   -5.0840  -24.6150 N   0  0  0  0  0  0  0  0  0  0  0  0
   -0.8190   -4.1050  -24.8130 H   0  0  0  0  0  0  0  0  0  0  0  0
   -0.3790   -5.9770  -25.6260 C   0  0  0  0  0  0  0  0  0  0  0  0
   -0.5040   -7.2860  -25.3440 N   0  0  0  0  0  0  0  0  0  0  0  0
    0.1430   -8.1380  -26.1360 C   0  0  0  0  0  3  0  0  0  0  0  0
    0.9800   -7.7960  -27.1150 N   0  0  0  0  0  0  0  0  0  0  0  0
    1.0550   -6.4900  -27.4410 C   0  0  0  0  0  0  0  0  0  0  0  0
    1.9300   -6.0300  -28.4300 C   0  0  0  0  0  0  0  0  0  0  0  0
    1.9310   -4.7070  -28.8950 C   0  0  0  0  0  3  0  0  0  0  0  0
    1.0900   -3.7790  -28.3050 C   0  0  0  0  0  3  0  0  0  0  0  0
    0.3100   -4.1720  -27.2210 C   0  0  0  0  0  3  0  0  0  0  0  0
    0.2950   -5.5210  -26.7730 C   0  0  0  0  0  0  0  0  0  0  0  0
    3.0200   -6.8960  -28.9220 C   0  0  0  0  0  0  0  0  0  0  0  0
    4.2640   -6.5990  -28.4310 N   0  0  0  0  0  0  0  0  0  0  0  0
    2.8410   -7.7270  -29.8000 O   0  0  0  0  0  0  0  0  0  0  0  0
    5.0560   -7.1260  -28.7710 H   0  0  0  0  0  0  0  0  0  0  0  0
    4.4140   -5.8920  -27.7240 H   0  0  0  0  0  0  0  0  0  0  0  0
  1  9  1  0  0  0  0
  2  1  2  0  0  0  0
  3  2  1  0  0  0  0
  4  3  2  0  0  0  0
  4  5  1  0  0  0  0
  5  6  2  0  0  0  0
  6  1  1  0  0  0  0
  7  9  1  0  0  0  0
  7  8  2  0  0  0  0
  9 10  1  0  0  0  0
 11 12  1  0  0  0  0
 11 13  1  0  0  0  0
 13 18  1  0  0  0  0
 14 13  2  0  0  0  0
 14 15  1  0  0  0  0
 15 16  2  0  0  0  0
 16 17  1  0  0  0  0
 16  7  1  0  0  0  0
 18 17  2  0  0  0  0
 19 11  1  0  0  0  0
 20 22  1  0  0  0  0
 20 19  1  0  0  0  0
 21 22  1  0  0  0  0
 23  5  1  0  0  0  0
 24 23  1  0  0  0  0
 25 24  1  0  0  0  0
 26 27  1  0  0  0  0
 26 24  1  0  0  0  0
 28 27  2  0  0  0  0
 29 28  1  0  0  0  0
 30 29  2  0  0  0  0
 30 35  1  0  0  0  0
 31 30  1  0  0  0  0
 32 31  2  0  0  0  0
 32 33  1  0  0  0  0
 33 34  2  0  0  0  0
 34 35  1  0  0  0  0
 35 26  2  0  0  0  0
 36 37  1  0  0  0  0
 36 31  1  0  0  0  0
 37 40  1  0  0  0  0
 38 36  2  0  0  0  0
 39 37  1  0  0  0  0
M  END
>  <minimizedAffinity>
-3.66738582

$$$$
