
 OpenBabel10152418253D

 35 38  0  0  0  0  0  0  0  0999 V2000
    3.5200   -7.8090  -27.7720 C   0  0  0  0  0  2  0  0  0  0  0  0
    3.6420  -11.2960  -26.2670 C   0  0  0  0  0  0  0  0  0  0  0  0
    4.4020  -11.9980  -27.1990 C   0  0  0  0  0  3  0  0  0  0  0  0
    4.8210  -11.3560  -28.3690 C   0  0  0  0  0  3  0  0  0  0  0  0
    4.5290  -10.0040  -28.5770 C   0  0  0  0  0  3  0  0  0  0  0  0
    3.7740   -9.2940  -27.6380 C   0  0  0  0  0  0  0  0  0  0  0  0
    3.2690   -9.9750  -26.5210 C   0  0  0  0  0  3  0  0  0  0  0  0
    2.1540  -11.5940  -24.2490 C   0  0  0  0  0  0  0  0  0  0  0  0
    2.1680  -12.0380  -23.0970 O   0  0  0  0  0  0  0  0  0  0  0  0
    3.2640  -11.8130  -25.0270 N   0  0  0  0  0  0  0  0  0  0  0  0
    3.8410  -12.5520  -24.6430 H   0  0  0  0  0  0  0  0  0  0  0  0
    0.7750  -12.0360  -27.0780 C   0  0  0  0  0  1  0  0  0  0  0  0
    0.2790  -11.1300  -25.9870 C   0  0  0  0  0  0  0  0  0  0  0  0
   -0.9370  -10.4630  -26.2520 C   0  0  0  0  0  3  0  0  0  0  0  0
   -1.5850   -9.7170  -25.2700 C   0  0  0  0  0  3  0  0  0  0  0  0
   -1.0190   -9.6020  -24.0100 C   0  0  0  0  0  3  0  0  0  0  0  0
    0.2160  -10.1950  -23.7500 C   0  0  0  0  0  3  0  0  0  0  0  0
    0.9000  -10.9380  -24.7340 C   0  0  0  0  0  0  0  0  0  0  0  0
    2.0950   -7.5950  -27.9040 N   0  0  0  0  0  0  0  0  0  0  0  0
    1.5300   -8.3210  -27.4900 H   0  0  0  0  0  0  0  0  0  0  0  0
    1.5500   -6.3130  -27.8760 C   0  0  0  0  0  0  0  0  0  0  0  0
    1.7600   -5.5150  -28.9330 N   0  0  0  0  0  0  0  0  0  0  0  0
    1.2200   -4.2980  -28.8760 C   0  0  0  0  0  3  0  0  0  0  0  0
    0.4980   -3.8090  -27.8680 N   0  0  0  0  0  0  0  0  0  0  0  0
    0.2450   -4.5960  -26.8090 C   0  0  0  0  0  0  0  0  0  0  0  0
   -0.5300   -4.1600  -25.7060 C   0  0  0  0  0  0  0  0  0  0  0  0
   -0.7650   -5.0150  -24.6100 C   0  0  0  0  0  3  0  0  0  0  0  0
   -0.2510   -6.3020  -24.5890 C   0  0  0  0  0  3  0  0  0  0  0  0
    0.4980   -6.7450  -25.6660 C   0  0  0  0  0  3  0  0  0  0  0  0
    0.7660   -5.9060  -26.7750 C   0  0  0  0  0  0  0  0  0  0  0  0
   -1.1340   -2.7800  -25.7100 C   0  0  0  0  0  0  0  0  0  0  0  0
   -0.7750   -1.9100  -26.7110 N   0  0  0  0  0  0  0  0  0  0  0  0
   -1.9220   -2.3670  -24.8710 O   0  0  0  0  0  0  0  0  0  0  0  0
   -1.1990   -0.9930  -26.6640 H   0  0  0  0  0  0  0  0  0  0  0  0
   -0.1650   -2.1010  -27.4880 H   0  0  0  0  0  0  0  0  0  0  0  0
  1  6  1  0  0  0  0
  2 10  1  0  0  0  0
  3  2  2  0  0  0  0
  4  3  1  0  0  0  0
  5  4  2  0  0  0  0
  5  6  1  0  0  0  0
  6  7  2  0  0  0  0
  7  2  1  0  0  0  0
  8  9  2  0  0  0  0
 10 11  1  0  0  0  0
 10  8  1  0  0  0  0
 12 13  1  0  0  0  0
 13 18  1  0  0  0  0
 14 13  2  0  0  0  0
 14 15  1  0  0  0  0
 15 16  2  0  0  0  0
 16 17  1  0  0  0  0
 18  8  1  0  0  0  0
 18 17  2  0  0  0  0
 19 21  1  0  0  0  0
 19  1  1  0  0  0  0
 19 20  1  0  0  0  0
 21 30  1  0  0  0  0
 22 23  1  0  0  0  0
 22 21  2  0  0  0  0
 23 24  2  0  0  0  0
 24 25  1  0  0  0  0
 25 30  2  0  0  0  0
 25 26  1  0  0  0  0
 26 27  2  0  0  0  0
 27 28  1  0  0  0  0
 29 28  2  0  0  0  0
 30 29  1  0  0  0  0
 31 26  1  0  0  0  0
 31 33  2  0  0  0  0
 32 34  1  0  0  0  0
 32 31  1  0  0  0  0
 35 32  1  0  0  0  0
M  END
>  <minimizedAffinity>
-6.96933317

$$$$
