
 OpenBabel10152418253D

 35 38  0  0  0  0  0  0  0  0999 V2000
   -0.6120  -12.0070  -25.9180 C   0  0  0  0  0  2  0  0  0  0  0  0
    3.0970  -11.9470  -26.7430 C   0  0  0  0  0  0  0  0  0  0  0  0
    3.6840  -12.0330  -25.4840 C   0  0  0  0  0  3  0  0  0  0  0  0
    2.8740  -12.0380  -24.3440 C   0  0  0  0  0  3  0  0  0  0  0  0
    1.4810  -12.0120  -24.4670 C   0  0  0  0  0  3  0  0  0  0  0  0
    0.8870  -11.9360  -25.7310 C   0  0  0  0  0  0  0  0  0  0  0  0
    1.7100  -11.8240  -26.8600 C   0  0  0  0  0  3  0  0  0  0  0  0
    4.1970  -11.0820  -28.8450 C   0  0  0  0  0  0  0  0  0  0  0  0
    4.6510  -11.4690  -29.9250 O   0  0  0  0  0  0  0  0  0  0  0  0
    3.8080  -12.0390  -27.9400 N   0  0  0  0  0  0  0  0  0  0  0  0
    4.2040  -12.9430  -28.1700 H   0  0  0  0  0  0  0  0  0  0  0  0
    3.5420   -8.7810  -30.9380 C   0  0  0  0  0  1  0  0  0  0  0  0
    3.9000   -8.5820  -29.4930 C   0  0  0  0  0  0  0  0  0  0  0  0
    3.8910   -7.2450  -29.0390 C   0  0  0  0  0  3  0  0  0  0  0  0
    4.0530   -6.9350  -27.6910 C   0  0  0  0  0  3  0  0  0  0  0  0
    4.2510   -7.9530  -26.7710 C   0  0  0  0  0  3  0  0  0  0  0  0
    4.3330   -9.2750  -27.2090 C   0  0  0  0  0  3  0  0  0  0  0  0
    4.1920   -9.6110  -28.5710 C   0  0  0  0  0  0  0  0  0  0  0  0
   -1.0810  -10.7220  -26.3900 N   0  0  0  0  0  0  0  0  0  0  0  0
   -1.7420  -10.7800  -27.1510 H   0  0  0  0  0  0  0  0  0  0  0  0
   -1.2530   -9.6500  -25.5190 C   0  0  0  0  0  0  0  0  0  0  0  0
   -1.9080   -9.8690  -24.3690 N   0  0  0  0  0  0  0  0  0  0  0  0
   -2.0500   -8.8230  -23.5560 C   0  0  0  0  0  3  0  0  0  0  0  0
   -1.6030   -7.5890  -23.7840 N   0  0  0  0  0  0  0  0  0  0  0  0
   -0.9160   -7.3450  -24.9130 C   0  0  0  0  0  0  0  0  0  0  0  0
   -0.3900   -6.0660  -25.2230 C   0  0  0  0  0  0  0  0  0  0  0  0
    0.3190   -5.8510  -26.4220 C   0  0  0  0  0  3  0  0  0  0  0  0
    0.5230   -6.8850  -27.3220 C   0  0  0  0  0  3  0  0  0  0  0  0
    0.0250   -8.1430  -27.0270 C   0  0  0  0  0  3  0  0  0  0  0  0
   -0.7040   -8.3880  -25.8380 C   0  0  0  0  0  0  0  0  0  0  0  0
   -0.5620   -4.9270  -24.2510 C   0  0  0  0  0  0  0  0  0  0  0  0
   -0.2340   -5.1350  -22.9330 N   0  0  0  0  0  0  0  0  0  0  0  0
   -0.9890   -3.8220  -24.5500 O   0  0  0  0  0  0  0  0  0  0  0  0
   -0.3780   -4.3430  -22.3190 H   0  0  0  0  0  0  0  0  0  0  0  0
    0.1550   -5.9710  -22.5310 H   0  0  0  0  0  0  0  0  0  0  0  0
  1  6  1  0  0  0  0
  2  3  1  0  0  0  0
  3  4  2  0  0  0  0
  5  4  1  0  0  0  0
  6  5  2  0  0  0  0
  7  2  2  0  0  0  0
  7  6  1  0  0  0  0
  8 18  1  0  0  0  0
  8 10  1  0  0  0  0
  9  8  2  0  0  0  0
 10  2  1  0  0  0  0
 11 10  1  0  0  0  0
 12 13  1  0  0  0  0
 13 14  2  0  0  0  0
 13 18  1  0  0  0  0
 14 15  1  0  0  0  0
 15 16  2  0  0  0  0
 17 16  1  0  0  0  0
 18 17  2  0  0  0  0
 19  1  1  0  0  0  0
 19 21  1  0  0  0  0
 20 19  1  0  0  0  0
 21 22  1  0  0  0  0
 22 23  2  0  0  0  0
 24 23  1  0  0  0  0
 25 24  2  0  0  0  0
 26 25  1  0  0  0  0
 26 31  1  0  0  0  0
 27 26  2  0  0  0  0
 28 29  2  0  0  0  0
 28 27  1  0  0  0  0
 29 30  1  0  0  0  0
 30 21  2  0  0  0  0
 30 25  1  0  0  0  0
 31 32  1  0  0  0  0
 32 35  1  0  0  0  0
 32 34  1  0  0  0  0
 33 31  2  0  0  0  0
M  END
>  <minimizedAffinity>
-8.47644424

$$$$

 OpenBabel10152418253D

 35 38  0  0  0  0  0  0  0  0999 V2000
   -0.1980   -5.7620  -24.3190 C   0  0  0  0  0  2  0  0  0  0  0  0
   -2.0050   -9.0550  -23.7450 C   0  0  0  0  0  0  0  0  0  0  0  0
   -2.4800   -8.9120  -22.4440 C   0  0  0  0  0  3  0  0  0  0  0  0
   -2.1520   -7.7660  -21.7120 C   0  0  0  0  0  3  0  0  0  0  0  0
   -1.3990   -6.7440  -22.3000 C   0  0  0  0  0  3  0  0  0  0  0  0
   -0.9280   -6.8810  -23.6100 C   0  0  0  0  0  0  0  0  0  0  0  0
   -1.1720   -8.0780  -24.2960 C   0  0  0  0  0  3  0  0  0  0  0  0
   -1.5980  -11.0420  -25.2490 C   0  0  0  0  0  0  0  0  0  0  0  0
   -2.1630  -11.7450  -26.0920 O   0  0  0  0  0  0  0  0  0  0  0  0
   -2.3580  -10.1080  -24.5890 N   0  0  0  0  0  0  0  0  0  0  0  0
   -3.3470  -10.3070  -24.6850 H   0  0  0  0  0  0  0  0  0  0  0  0
   -0.4220  -12.0370  -22.4680 C   0  0  0  0  0  1  0  0  0  0  0  0
    0.3710  -11.7700  -23.7160 C   0  0  0  0  0  0  0  0  0  0  0  0
    1.7540  -12.0380  -23.6300 C   0  0  0  0  0  3  0  0  0  0  0  0
    2.5760  -11.9810  -24.7530 C   0  0  0  0  0  3  0  0  0  0  0  0
    2.0370  -11.6310  -25.9820 C   0  0  0  0  0  3  0  0  0  0  0  0
    0.6860  -11.2930  -26.0730 C   0  0  0  0  0  3  0  0  0  0  0  0
   -0.1600  -11.3250  -24.9460 C   0  0  0  0  0  0  0  0  0  0  0  0
    1.0380   -6.2870  -24.8590 N   0  0  0  0  0  0  0  0  0  0  0  0
    1.3750   -7.1120  -24.3860 H   0  0  0  0  0  0  0  0  0  0  0  0
    1.3230   -6.2090  -26.2200 C   0  0  0  0  0  0  0  0  0  0  0  0
    0.7030   -5.2640  -26.9430 N   0  0  0  0  0  0  0  0  0  0  0  0
    1.0030   -5.2130  -28.2390 C   0  0  0  0  0  3  0  0  0  0  0  0
    1.8570   -6.0140  -28.8760 N   0  0  0  0  0  0  0  0  0  0  0  0
    2.5170   -6.9500  -28.1740 C   0  0  0  0  0  0  0  0  0  0  0  0
    3.4560   -7.8280  -28.7700 C   0  0  0  0  0  0  0  0  0  0  0  0
    4.1220   -8.8020  -27.9990 C   0  0  0  0  0  3  0  0  0  0  0  0
    3.8780   -8.9190  -26.6390 C   0  0  0  0  0  3  0  0  0  0  0  0
    2.9720   -8.0600  -26.0410 C   0  0  0  0  0  3  0  0  0  0  0  0
    2.2760   -7.0810  -26.7910 C   0  0  0  0  0  0  0  0  0  0  0  0
    3.7710   -7.7060  -30.2390 C   0  0  0  0  0  0  0  0  0  0  0  0
    4.7720   -6.8480  -30.6250 N   0  0  0  0  0  0  0  0  0  0  0  0
    3.1870   -8.3130  -31.1250 O   0  0  0  0  0  0  0  0  0  0  0  0
    4.9380   -6.7930  -31.6220 H   0  0  0  0  0  0  0  0  0  0  0  0
    5.3640   -6.3000  -30.0250 H   0  0  0  0  0  0  0  0  0  0  0  0
  1  6  1  0  0  0  0
  2  3  1  0  0  0  0
  3  4  2  0  0  0  0
  5  4  1  0  0  0  0
  6  5  2  0  0  0  0
  7  2  2  0  0  0  0
  7  6  1  0  0  0  0
  8 18  1  0  0  0  0
  8 10  1  0  0  0  0
  9  8  2  0  0  0  0
 10  2  1  0  0  0  0
 11 10  1  0  0  0  0
 13 14  1  0  0  0  0
 13 12  1  0  0  0  0
 15 14  2  0  0  0  0
 16 15  1  0  0  0  0
 17 16  2  0  0  0  0
 17 18  1  0  0  0  0
 18 13  2  0  0  0  0
 19 20  1  0  0  0  0
 19  1  1  0  0  0  0
 21 19  1  0  0  0  0
 22 21  2  0  0  0  0
 23 22  1  0  0  0  0
 24 23  2  0  0  0  0
 24 25  1  0  0  0  0
 25 30  1  0  0  0  0
 26 25  2  0  0  0  0
 26 27  1  0  0  0  0
 27 28  2  0  0  0  0
 28 29  1  0  0  0  0
 30 21  1  0  0  0  0
 30 29  2  0  0  0  0
 31 26  1  0  0  0  0
 32 31  1  0  0  0  0
 32 35  1  0  0  0  0
 33 31  2  0  0  0  0
 34 32  1  0  0  0  0
M  END
>  <minimizedAffinity>
-8.22262955

$$$$

 OpenBabel10152418253D

 35 38  0  0  0  0  0  0  0  0999 V2000
    3.5200   -7.8090  -27.7720 C   0  0  0  0  0  2  0  0  0  0  0  0
    3.6420  -11.2960  -26.2670 C   0  0  0  0  0  0  0  0  0  0  0  0
    4.4020  -11.9980  -27.1990 C   0  0  0  0  0  3  0  0  0  0  0  0
    4.8210  -11.3560  -28.3690 C   0  0  0  0  0  3  0  0  0  0  0  0
    4.5290  -10.0040  -28.5770 C   0  0  0  0  0  3  0  0  0  0  0  0
    3.7740   -9.2940  -27.6380 C   0  0  0  0  0  0  0  0  0  0  0  0
    3.2690   -9.9750  -26.5210 C   0  0  0  0  0  3  0  0  0  0  0  0
    2.1540  -11.5940  -24.2490 C   0  0  0  0  0  0  0  0  0  0  0  0
    2.1680  -12.0380  -23.0970 O   0  0  0  0  0  0  0  0  0  0  0  0
    3.2640  -11.8130  -25.0270 N   0  0  0  0  0  0  0  0  0  0  0  0
    3.8410  -12.5520  -24.6430 H   0  0  0  0  0  0  0  0  0  0  0  0
    0.7750  -12.0360  -27.0780 C   0  0  0  0  0  1  0  0  0  0  0  0
    0.2790  -11.1300  -25.9870 C   0  0  0  0  0  0  0  0  0  0  0  0
   -0.9370  -10.4630  -26.2520 C   0  0  0  0  0  3  0  0  0  0  0  0
   -1.5850   -9.7170  -25.2700 C   0  0  0  0  0  3  0  0  0  0  0  0
   -1.0190   -9.6020  -24.0100 C   0  0  0  0  0  3  0  0  0  0  0  0
    0.2160  -10.1950  -23.7500 C   0  0  0  0  0  3  0  0  0  0  0  0
    0.9000  -10.9380  -24.7340 C   0  0  0  0  0  0  0  0  0  0  0  0
    2.0950   -7.5950  -27.9040 N   0  0  0  0  0  0  0  0  0  0  0  0
    1.5300   -8.3210  -27.4900 H   0  0  0  0  0  0  0  0  0  0  0  0
    1.5500   -6.3130  -27.8760 C   0  0  0  0  0  0  0  0  0  0  0  0
    1.7600   -5.5150  -28.9330 N   0  0  0  0  0  0  0  0  0  0  0  0
    1.2200   -4.2980  -28.8760 C   0  0  0  0  0  3  0  0  0  0  0  0
    0.4980   -3.8090  -27.8680 N   0  0  0  0  0  0  0  0  0  0  0  0
    0.2450   -4.5960  -26.8090 C   0  0  0  0  0  0  0  0  0  0  0  0
   -0.5300   -4.1600  -25.7060 C   0  0  0  0  0  0  0  0  0  0  0  0
   -0.7650   -5.0150  -24.6100 C   0  0  0  0  0  3  0  0  0  0  0  0
   -0.2510   -6.3020  -24.5890 C   0  0  0  0  0  3  0  0  0  0  0  0
    0.4980   -6.7450  -25.6660 C   0  0  0  0  0  3  0  0  0  0  0  0
    0.7660   -5.9060  -26.7750 C   0  0  0  0  0  0  0  0  0  0  0  0
   -1.1340   -2.7800  -25.7100 C   0  0  0  0  0  0  0  0  0  0  0  0
   -0.7750   -1.9100  -26.7110 N   0  0  0  0  0  0  0  0  0  0  0  0
   -1.9220   -2.3670  -24.8710 O   0  0  0  0  0  0  0  0  0  0  0  0
   -1.1990   -0.9930  -26.6640 H   0  0  0  0  0  0  0  0  0  0  0  0
   -0.1650   -2.1010  -27.4880 H   0  0  0  0  0  0  0  0  0  0  0  0
  1  6  1  0  0  0  0
  2 10  1  0  0  0  0
  3  2  2  0  0  0  0
  4  3  1  0  0  0  0
  5  4  2  0  0  0  0
  5  6  1  0  0  0  0
  6  7  2  0  0  0  0
  7  2  1  0  0  0  0
  8  9  2  0  0  0  0
 10 11  1  0  0  0  0
 10  8  1  0  0  0  0
 12 13  1  0  0  0  0
 13 18  1  0  0  0  0
 14 13  2  0  0  0  0
 14 15  1  0  0  0  0
 15 16  2  0  0  0  0
 16 17  1  0  0  0  0
 18  8  1  0  0  0  0
 18 17  2  0  0  0  0
 19 21  1  0  0  0  0
 19  1  1  0  0  0  0
 19 20  1  0  0  0  0
 21 30  1  0  0  0  0
 22 23  1  0  0  0  0
 22 21  2  0  0  0  0
 23 24  2  0  0  0  0
 24 25  1  0  0  0  0
 25 30  2  0  0  0  0
 25 26  1  0  0  0  0
 26 27  2  0  0  0  0
 27 28  1  0  0  0  0
 29 28  2  0  0  0  0
 30 29  1  0  0  0  0
 31 26  1  0  0  0  0
 31 33  2  0  0  0  0
 32 34  1  0  0  0  0
 32 31  1  0  0  0  0
 35 32  1  0  0  0  0
M  END
>  <minimizedAffinity>
-6.96933317

$$$$

 OpenBabel10152418253D

 35 38  0  0  0  0  0  0  0  0999 V2000
   -0.6330  -11.6850  -25.9420 C   0  0  0  0  0  2  0  0  0  0  0  0
    3.0900  -11.8790  -26.6790 C   0  0  0  0  0  0  0  0  0  0  0  0
    3.6390  -12.0260  -25.4080 C   0  0  0  0  0  3  0  0  0  0  0  0
    2.8020  -11.9890  -24.2880 C   0  0  0  0  0  3  0  0  0  0  0  0
    1.4180  -11.8620  -24.4430 C   0  0  0  0  0  3  0  0  0  0  0  0
    0.8630  -11.7240  -25.7190 C   0  0  0  0  0  0  0  0  0  0  0  0
    1.7190  -11.6550  -26.8270 C   0  0  0  0  0  3  0  0  0  0  0  0
    4.2040  -11.0760  -28.7980 C   0  0  0  0  0  0  0  0  0  0  0  0
    4.6840  -11.4970  -29.8540 O   0  0  0  0  0  0  0  0  0  0  0  0
    3.8220  -12.0040  -27.8610 N   0  0  0  0  0  0  0  0  0  0  0  0
    4.2410  -12.9070  -28.0480 H   0  0  0  0  0  0  0  0  0  0  0  0
    3.4480   -8.8830  -30.9710 C   0  0  0  0  0  1  0  0  0  0  0  0
    3.8270   -8.6140  -29.5420 C   0  0  0  0  0  0  0  0  0  0  0  0
    3.7900   -7.2610  -29.1440 C   0  0  0  0  0  3  0  0  0  0  0  0
    3.9680   -6.8900  -27.8130 C   0  0  0  0  0  3  0  0  0  0  0  0
    4.2100   -7.8630  -26.8550 C   0  0  0  0  0  3  0  0  0  0  0  0
    4.3210   -9.1990  -27.2400 C   0  0  0  0  0  3  0  0  0  0  0  0
    4.1640   -9.5960  -28.5840 C   0  0  0  0  0  0  0  0  0  0  0  0
   -0.9570  -10.4930  -26.6960 N   0  0  0  0  0  0  0  0  0  0  0  0
   -1.8040  -10.5680  -27.2400 H   0  0  0  0  0  0  0  0  0  0  0  0
   -0.6640   -9.2230  -26.2030 C   0  0  0  0  0  0  0  0  0  0  0  0
    0.0150   -8.3800  -26.9950 N   0  0  0  0  0  0  0  0  0  0  0  0
    0.2730   -7.1720  -26.4960 C   0  0  0  0  0  3  0  0  0  0  0  0
   -0.0790   -6.7340  -25.2880 N   0  0  0  0  0  0  0  0  0  0  0  0
   -0.7850   -7.5450  -24.4820 C   0  0  0  0  0  0  0  0  0  0  0  0
   -1.2150   -7.1500  -23.1920 C   0  0  0  0  0  0  0  0  0  0  0  0
   -1.9490   -8.0350  -22.3750 C   0  0  0  0  0  3  0  0  0  0  0  0
   -2.2720   -9.3070  -22.8190 C   0  0  0  0  0  3  0  0  0  0  0  0
   -1.8690   -9.7030  -24.0830 C   0  0  0  0  0  3  0  0  0  0  0  0
   -1.1180   -8.8440  -24.9210 C   0  0  0  0  0  0  0  0  0  0  0  0
   -0.9120   -5.7610  -22.6910 C   0  0  0  0  0  0  0  0  0  0  0  0
    0.2100   -5.1250  -23.1640 N   0  0  0  0  0  0  0  0  0  0  0  0
   -1.5940   -5.1550  -21.8770 O   0  0  0  0  0  0  0  0  0  0  0  0
    0.3750   -4.1990  -22.7890 H   0  0  0  0  0  0  0  0  0  0  0  0
    0.8560   -5.4700  -23.8530 H   0  0  0  0  0  0  0  0  0  0  0  0
  1  6  1  0  0  0  0
  2  3  1  0  0  0  0
  3  4  2  0  0  0  0
  5  4  1  0  0  0  0
  6  5  2  0  0  0  0
  7  2  2  0  0  0  0
  7  6  1  0  0  0  0
  8 18  1  0  0  0  0
  8 10  1  0  0  0  0
  9  8  2  0  0  0  0
 10  2  1  0  0  0  0
 11 10  1  0  0  0  0
 12 13  1  0  0  0  0
 13 14  2  0  0  0  0
 13 18  1  0  0  0  0
 14 15  1  0  0  0  0
 15 16  2  0  0  0  0
 17 16  1  0  0  0  0
 18 17  2  0  0  0  0
 19 21  1  0  0  0  0
 19  1  1  0  0  0  0
 20 19  1  0  0  0  0
 21 30  1  0  0  0  0
 22 23  1  0  0  0  0
 22 21  2  0  0  0  0
 23 24  2  0  0  0  0
 24 25  1  0  0  0  0
 25 26  1  0  0  0  0
 26 31  1  0  0  0  0
 26 27  2  0  0  0  0
 28 27  1  0  0  0  0
 29 28  2  0  0  0  0
 30 25  2  0  0  0  0
 30 29  1  0  0  0  0
 31 33  2  0  0  0  0
 32 34  1  0  0  0  0
 32 31  1  0  0  0  0
 35 32  1  0  0  0  0
M  END
>  <minimizedAffinity>
-6.22977972

$$$$

 OpenBabel10152418253D

 35 38  0  0  0  0  0  0  0  0999 V2000
    0.0760   -7.2060  -27.0060 C   0  0  0  0  0  2  0  0  0  0  0  0
    1.5930  -10.5460  -26.0130 C   0  0  0  0  0  0  0  0  0  0  0  0
    0.5460  -11.4320  -26.2530 C   0  0  0  0  0  3  0  0  0  0  0  0
   -0.6930  -10.9380  -26.6730 C   0  0  0  0  0  3  0  0  0  0  0  0
   -0.8660   -9.5690  -26.9050 C   0  0  0  0  0  3  0  0  0  0  0  0
    0.1860   -8.6770  -26.6740 C   0  0  0  0  0  0  0  0  0  0  0  0
    1.3900   -9.1710  -26.1520 C   0  0  0  0  0  3  0  0  0  0  0  0
    3.9980  -11.1610  -26.4760 C   0  0  0  0  0  0  0  0  0  0  0  0
    4.9740  -11.7020  -25.9480 O   0  0  0  0  0  0  0  0  0  0  0  0
    2.8910  -10.9450  -25.6930 N   0  0  0  0  0  0  0  0  0  0  0  0
    3.1210  -11.0090  -24.7080 H   0  0  0  0  0  0  0  0  0  0  0  0
    4.6980   -8.2130  -27.4360 C   0  0  0  0  0  1  0  0  0  0  0  0
    4.4440   -9.3940  -28.3290 C   0  0  0  0  0  0  0  0  0  0  0  0
    4.5820   -9.1550  -29.7140 C   0  0  0  0  0  3  0  0  0  0  0  0
    4.5250  -10.1940  -30.6390 C   0  0  0  0  0  3  0  0  0  0  0  0
    4.3070  -11.4910  -30.2030 C   0  0  0  0  0  3  0  0  0  0  0  0
    4.0980  -11.7380  -28.8460 C   0  0  0  0  0  3  0  0  0  0  0  0
    4.1310  -10.7000  -27.8930 C   0  0  0  0  0  0  0  0  0  0  0  0
   -1.0480   -6.6520  -26.2820 N   0  0  0  0  0  0  0  0  0  0  0  0
   -1.9480   -6.9180  -26.6540 H   0  0  0  0  0  0  0  0  0  0  0  0
   -0.9950   -6.4560  -24.9050 C   0  0  0  0  0  0  0  0  0  0  0  0
   -0.5040   -5.2940  -24.4500 N   0  0  0  0  0  0  0  0  0  0  0  0
   -0.4730   -5.1360  -23.1280 C   0  0  0  0  0  3  0  0  0  0  0  0
   -0.8840   -6.0270  -22.2250 N   0  0  0  0  0  0  0  0  0  0  0  0
   -1.4090   -7.1890  -22.6500 C   0  0  0  0  0  0  0  0  0  0  0  0
   -1.8860   -8.1800  -21.7570 C   0  0  0  0  0  0  0  0  0  0  0  0
   -2.4240   -9.3880  -22.2440 C   0  0  0  0  0  3  0  0  0  0  0  0
   -2.5040   -9.6320  -23.6060 C   0  0  0  0  0  3  0  0  0  0  0  0
   -2.0530   -8.6670  -24.4910 C   0  0  0  0  0  3  0  0  0  0  0  0
   -1.4930   -7.4490  -24.0330 C   0  0  0  0  0  0  0  0  0  0  0  0
   -1.8470   -7.9340  -20.2710 C   0  0  0  0  0  0  0  0  0  0  0  0
   -2.8310   -7.1570  -19.7090 N   0  0  0  0  0  0  0  0  0  0  0  0
   -0.9870   -8.3710  -19.5200 O   0  0  0  0  0  0  0  0  0  0  0  0
   -2.7540   -7.0120  -18.7100 H   0  0  0  0  0  0  0  0  0  0  0  0
   -3.6210   -6.7480  -20.1780 H   0  0  0  0  0  0  0  0  0  0  0  0
  1  6  1  0  0  0  0
  1 19  1  0  0  0  0
  2 10  1  0  0  0  0
  3  2  2  0  0  0  0
  4  3  1  0  0  0  0
  5  6  1  0  0  0  0
  5  4  2  0  0  0  0
  6  7  2  0  0  0  0
  7  2  1  0  0  0  0
  8  9  2  0  0  0  0
  8 10  1  0  0  0  0
 10 11  1  0  0  0  0
 13 18  1  0  0  0  0
 13 12  1  0  0  0  0
 14 13  2  0  0  0  0
 15 16  2  0  0  0  0
 15 14  1  0  0  0  0
 16 17  1  0  0  0  0
 17 18  2  0  0  0  0
 18  8  1  0  0  0  0
 19 21  1  0  0  0  0
 20 19  1  0  0  0  0
 21 22  2  0  0  0  0
 21 30  1  0  0  0  0
 22 23  1  0  0  0  0
 23 24  2  0  0  0  0
 25 24  1  0  0  0  0
 25 26  1  0  0  0  0
 26 31  1  0  0  0  0
 27 26  2  0  0  0  0
 28 27  1  0  0  0  0
 29 30  1  0  0  0  0
 29 28  2  0  0  0  0
 30 25  2  0  0  0  0
 31 32  1  0  0  0  0
 31 33  2  0  0  0  0
 32 34  1  0  0  0  0
 35 32  1  0  0  0  0
M  END
>  <minimizedAffinity>
-6.00863409

$$$$

 OpenBabel10152418253D

 35 38  0  0  0  0  0  0  0  0999 V2000
   -0.2940   -6.4590  -26.3340 C   0  0  0  0  0  2  0  0  0  0  0  0
   -1.0710   -7.1990  -22.6880 C   0  0  0  0  0  0  0  0  0  0  0  0
   -1.0910   -5.9260  -22.1240 C   0  0  0  0  0  3  0  0  0  0  0  0
   -0.7790   -4.8160  -22.9140 C   0  0  0  0  0  3  0  0  0  0  0  0
   -0.5020   -4.9740  -24.2770 C   0  0  0  0  0  3  0  0  0  0  0  0
   -0.4890   -6.2500  -24.8490 C   0  0  0  0  0  0  0  0  0  0  0  0
   -0.6990   -7.3640  -24.0250 C   0  0  0  0  0  3  0  0  0  0  0  0
   -1.6840   -9.6370  -22.4540 C   0  0  0  0  0  0  0  0  0  0  0  0
   -2.2200  -10.4260  -21.6700 O   0  0  0  0  0  0  0  0  0  0  0  0
   -1.4650   -8.3550  -22.0140 N   0  0  0  0  0  0  0  0  0  0  0  0
   -1.5210   -8.3000  -21.0040 H   0  0  0  0  0  0  0  0  0  0  0  0
    0.3600  -12.0230  -22.9370 C   0  0  0  0  0  1  0  0  0  0  0  0
   -0.3290  -11.2220  -24.0060 C   0  0  0  0  0  0  0  0  0  0  0  0
   -0.0610  -11.6180  -25.3340 C   0  0  0  0  0  3  0  0  0  0  0  0
   -0.7500  -11.0620  -26.4090 C   0  0  0  0  0  3  0  0  0  0  0  0
   -1.7050  -10.0830  -26.1820 C   0  0  0  0  0  3  0  0  0  0  0  0
   -1.9330   -9.6280  -24.8830 C   0  0  0  0  0  3  0  0  0  0  0  0
   -1.2330  -10.1620  -23.7810 C   0  0  0  0  0  0  0  0  0  0  0  0
    1.0400   -6.0270  -26.6900 N   0  0  0  0  0  0  0  0  0  0  0  0
    1.5350   -5.5630  -25.9430 H   0  0  0  0  0  0  0  0  0  0  0  0
    1.8270   -6.7630  -27.5730 C   0  0  0  0  0  0  0  0  0  0  0  0
    2.0850   -6.2360  -28.7790 N   0  0  0  0  0  0  0  0  0  0  0  0
    2.8460   -6.9620  -29.5960 C   0  0  0  0  0  3  0  0  0  0  0  0
    3.3660   -8.1580  -29.3230 N   0  0  0  0  0  0  0  0  0  0  0  0
    3.1510   -8.6990  -28.1120 C   0  0  0  0  0  0  0  0  0  0  0  0
    3.6850   -9.9560  -27.7340 C   0  0  0  0  0  0  0  0  0  0  0  0
    3.4290  -10.4920  -26.4560 C   0  0  0  0  0  3  0  0  0  0  0  0
    2.6560   -9.7990  -25.5370 C   0  0  0  0  0  3  0  0  0  0  0  0
    2.1380   -8.5640  -25.8880 C   0  0  0  0  0  3  0  0  0  0  0  0
    2.3640   -8.0050  -27.1690 C   0  0  0  0  0  0  0  0  0  0  0  0
    4.5580  -10.7210  -28.6950 C   0  0  0  0  0  0  0  0  0  0  0  0
    4.9150  -10.1190  -29.8780 N   0  0  0  0  0  0  0  0  0  0  0  0
    4.9700  -11.8560  -28.5020 O   0  0  0  0  0  0  0  0  0  0  0  0
    5.4920  -10.6780  -30.4930 H   0  0  0  0  0  0  0  0  0  0  0  0
    4.6850   -9.1860  -30.1750 H   0  0  0  0  0  0  0  0  0  0  0  0
  1  6  1  0  0  0  0
  2  3  1  0  0  0  0
  2 10  1  0  0  0  0
  4  3  2  0  0  0  0
  5  4  1  0  0  0  0
  6  5  2  0  0  0  0
  6  7  1  0  0  0  0
  7  2  2  0  0  0  0
  8 10  1  0  0  0  0
  8  9  2  0  0  0  0
 10 11  1  0  0  0  0
 13 18  1  0  0  0  0
 13 12  1  0  0  0  0
 14 13  2  0  0  0  0
 15 16  2  0  0  0  0
 15 14  1  0  0  0  0
 16 17  1  0  0  0  0
 17 18  2  0  0  0  0
 18  8  1  0  0  0  0
 19  1  1  0  0  0  0
 19 20  1  0  0  0  0
 21 30  1  0  0  0  0
 21 19  1  0  0  0  0
 22 21  2  0  0  0  0
 23 24  2  0  0  0  0
 23 22  1  0  0  0  0
 24 25  1  0  0  0  0
 25 26  2  0  0  0  0
 25 30  1  0  0  0  0
 26 27  1  0  0  0  0
 27 28  2  0  0  0  0
 29 28  1  0  0  0  0
 30 29  2  0  0  0  0
 31 33  2  0  0  0  0
 31 26  1  0  0  0  0
 32 31  1  0  0  0  0
 34 32  1  0  0  0  0
 35 32  1  0  0  0  0
M  END
>  <minimizedAffinity>
-5.74499321

$$$$

 OpenBabel10152418253D

 35 38  0  0  0  0  0  0  0  0999 V2000
    0.0100   -9.3510  -26.7120 C   0  0  0  0  0  2  0  0  0  0  0  0
   -0.2390  -11.6460  -23.6930 C   0  0  0  0  0  0  0  0  0  0  0  0
    1.0990  -11.8870  -23.3900 C   0  0  0  0  0  3  0  0  0  0  0  0
    2.0980  -11.3600  -24.2150 C   0  0  0  0  0  3  0  0  0  0  0  0
    1.7600  -10.5510  -25.3050 C   0  0  0  0  0  3  0  0  0  0  0  0
    0.4180  -10.3000  -25.6070 C   0  0  0  0  0  0  0  0  0  0  0  0
   -0.5760  -10.9190  -24.8380 C   0  0  0  0  0  3  0  0  0  0  0  0
   -1.9850  -11.3770  -21.8890 C   0  0  0  0  0  0  0  0  0  0  0  0
   -2.7630  -12.0370  -21.1930 O   0  0  0  0  0  0  0  0  0  0  0  0
   -1.3030  -12.0390  -22.8800 N   0  0  0  0  0  0  0  0  0  0  0  0
   -1.7350  -12.9310  -23.0900 H   0  0  0  0  0  0  0  0  0  0  0  0
   -3.0330   -9.1190  -23.8660 C   0  0  0  0  0  1  0  0  0  0  0  0
   -2.3820   -8.8900  -22.5310 C   0  0  0  0  0  0  0  0  0  0  0  0
   -2.2830   -7.5420  -22.1230 C   0  0  0  0  0  3  0  0  0  0  0  0
   -1.8430   -7.2010  -20.8460 C   0  0  0  0  0  3  0  0  0  0  0  0
   -1.4710   -8.1990  -19.9580 C   0  0  0  0  0  3  0  0  0  0  0  0
   -1.4950   -9.5320  -20.3670 C   0  0  0  0  0  3  0  0  0  0  0  0
   -1.9170   -9.9000  -21.6610 C   0  0  0  0  0  0  0  0  0  0  0  0
    0.9790   -8.2790  -26.7820 N   0  0  0  0  0  0  0  0  0  0  0  0
    1.8690   -8.5540  -27.1700 H   0  0  0  0  0  0  0  0  0  0  0  0
    0.5880   -6.9660  -27.0320 C   0  0  0  0  0  0  0  0  0  0  0  0
    0.6260   -6.5270  -28.2990 N   0  0  0  0  0  0  0  0  0  0  0  0
    0.2400   -5.2680  -28.5050 C   0  0  0  0  0  3  0  0  0  0  0  0
   -0.1740   -4.4150  -27.5690 N   0  0  0  0  0  0  0  0  0  0  0  0
   -0.2510   -4.8340  -26.2950 C   0  0  0  0  0  0  0  0  0  0  0  0
   -0.7000   -3.9970  -25.2440 C   0  0  0  0  0  0  0  0  0  0  0  0
   -0.7590   -4.4740  -23.9190 C   0  0  0  0  0  3  0  0  0  0  0  0
   -0.3870   -5.7740  -23.6150 C   0  0  0  0  0  3  0  0  0  0  0  0
    0.0420   -6.6080  -24.6340 C   0  0  0  0  0  3  0  0  0  0  0  0
    0.1270   -6.1540  -25.9730 C   0  0  0  0  0  0  0  0  0  0  0  0
   -1.1460   -2.5890  -25.5430 C   0  0  0  0  0  0  0  0  0  0  0  0
   -0.6420   -1.9640  -26.6590 N   0  0  0  0  0  0  0  0  0  0  0  0
   -1.9250   -1.9490  -24.8530 O   0  0  0  0  0  0  0  0  0  0  0  0
   -0.9630   -1.0170  -26.8090 H   0  0  0  0  0  0  0  0  0  0  0  0
   -0.0180   -2.3590  -27.3420 H   0  0  0  0  0  0  0  0  0  0  0  0
  1  6  1  0  0  0  0
  2  3  1  0  0  0  0
  2 10  1  0  0  0  0
  4  3  2  0  0  0  0
  5  4  1  0  0  0  0
  6  5  2  0  0  0  0
  6  7  1  0  0  0  0
  7  2  2  0  0  0  0
  8 18  1  0  0  0  0
  8  9  2  0  0  0  0
 10  8  1  0  0  0  0
 11 10  1  0  0  0  0
 12 13  1  0  0  0  0
 13 14  2  0  0  0  0
 13 18  1  0  0  0  0
 14 15  1  0  0  0  0
 15 16  2  0  0  0  0
 17 16  1  0  0  0  0
 18 17  2  0  0  0  0
 19  1  1  0  0  0  0
 20 19  1  0  0  0  0
 21 19  1  0  0  0  0
 21 30  1  0  0  0  0
 22 21  2  0  0  0  0
 23 22  1  0  0  0  0
 23 24  2  0  0  0  0
 24 25  1  0  0  0  0
 25 30  2  0  0  0  0
 25 26  1  0  0  0  0
 26 27  2  0  0  0  0
 27 28  1  0  0  0  0
 29 28  2  0  0  0  0
 30 29  1  0  0  0  0
 31 26  1  0  0  0  0
 31 33  2  0  0  0  0
 32 31  1  0  0  0  0
 34 32  1  0  0  0  0
 35 32  1  0  0  0  0
M  END
>  <minimizedAffinity>
-5.70527744

$$$$

 OpenBabel10152418253D

 35 38  0  0  0  0  0  0  0  0999 V2000
    3.3470   -7.8050  -27.5590 C   0  0  0  0  0  2  0  0  0  0  0  0
    3.3550  -11.2750  -26.0080 C   0  0  0  0  0  0  0  0  0  0  0  0
    4.0650  -12.0190  -26.9460 C   0  0  0  0  0  3  0  0  0  0  0  0
    4.4880  -11.4110  -28.1330 C   0  0  0  0  0  3  0  0  0  0  0  0
    4.2470  -10.0510  -28.3540 C   0  0  0  0  0  3  0  0  0  0  0  0
    3.5420   -9.2980  -27.4090 C   0  0  0  0  0  0  0  0  0  0  0  0
    3.0310   -9.9420  -26.2740 C   0  0  0  0  0  3  0  0  0  0  0  0
    1.7920  -11.6920  -24.0690 C   0  0  0  0  0  0  0  0  0  0  0  0
    1.7970  -12.0390  -22.8840 O   0  0  0  0  0  0  0  0  0  0  0  0
    2.9800  -11.7580  -24.7540 N   0  0  0  0  0  0  0  0  0  0  0  0
    3.6490  -12.3480  -24.2720 H   0  0  0  0  0  0  0  0  0  0  0  0
   -0.4550   -9.8690  -22.7540 C   0  0  0  0  0  1  0  0  0  0  0  0
   -0.5210  -10.5070  -24.1120 C   0  0  0  0  0  0  0  0  0  0  0  0
   -1.6750  -10.2140  -24.8700 C   0  0  0  0  0  3  0  0  0  0  0  0
   -1.7920  -10.6140  -26.1990 C   0  0  0  0  0  3  0  0  0  0  0  0
   -0.7670  -11.3340  -26.7920 C   0  0  0  0  0  3  0  0  0  0  0  0
    0.3510  -11.6930  -26.0400 C   0  0  0  0  0  3  0  0  0  0  0  0
    0.4820  -11.3170  -24.6870 C   0  0  0  0  0  0  0  0  0  0  0  0
    2.0310   -7.5650  -28.1120 N   0  0  0  0  0  0  0  0  0  0  0  0
    1.7150   -8.2820  -28.7480 H   0  0  0  0  0  0  0  0  0  0  0  0
    1.0370   -6.9350  -27.3660 C   0  0  0  0  0  0  0  0  0  0  0  0
    0.3120   -7.6830  -26.5210 N   0  0  0  0  0  0  0  0  0  0  0  0
   -0.6260   -7.0490  -25.8190 C   0  0  0  0  0  3  0  0  0  0  0  0
   -0.9050   -5.7470  -25.8850 N   0  0  0  0  0  0  0  0  0  0  0  0
   -0.1760   -4.9660  -26.7000 C   0  0  0  0  0  0  0  0  0  0  0  0
   -0.3950   -3.5710  -26.8140 C   0  0  0  0  0  0  0  0  0  0  0  0
    0.3880   -2.7890  -27.6870 C   0  0  0  0  0  3  0  0  0  0  0  0
    1.3930   -3.3640  -28.4480 C   0  0  0  0  0  3  0  0  0  0  0  0
    1.6270   -4.7240  -28.3380 C   0  0  0  0  0  3  0  0  0  0  0  0
    0.8480   -5.5400  -27.4820 C   0  0  0  0  0  0  0  0  0  0  0  0
   -1.4560   -2.9060  -25.9750 C   0  0  0  0  0  0  0  0  0  0  0  0
   -1.0720   -2.2540  -24.8290 N   0  0  0  0  0  0  0  0  0  0  0  0
   -2.6500   -2.9140  -26.2380 O   0  0  0  0  0  0  0  0  0  0  0  0
   -1.8230   -1.8340  -24.2950 H   0  0  0  0  0  0  0  0  0  0  0  0
   -0.1340   -2.1320  -24.4880 H   0  0  0  0  0  0  0  0  0  0  0  0
  1  6  1  0  0  0  0
  2 10  1  0  0  0  0
  3  2  2  0  0  0  0
  4  3  1  0  0  0  0
  5  4  2  0  0  0  0
  5  6  1  0  0  0  0
  6  7  2  0  0  0  0
  7  2  1  0  0  0  0
  8  9  2  0  0  0  0
 10 11  1  0  0  0  0
 10  8  1  0  0  0  0
 13 12  1  0  0  0  0
 14 13  2  0  0  0  0
 15 14  1  0  0  0  0
 16 15  2  0  0  0  0
 16 17  1  0  0  0  0
 17 18  2  0  0  0  0
 18 13  1  0  0  0  0
 18  8  1  0  0  0  0
 19  1  1  0  0  0  0
 19 21  1  0  0  0  0
 20 19  1  0  0  0  0
 21 22  1  0  0  0  0
 22 23  2  0  0  0  0
 24 23  1  0  0  0  0
 25 24  2  0  0  0  0
 26 25  1  0  0  0  0
 26 31  1  0  0  0  0
 27 26  2  0  0  0  0
 28 29  2  0  0  0  0
 28 27  1  0  0  0  0
 29 30  1  0  0  0  0
 30 21  2  0  0  0  0
 30 25  1  0  0  0  0
 31 32  1  0  0  0  0
 32 35  1  0  0  0  0
 32 34  1  0  0  0  0
 33 31  2  0  0  0  0
M  END
>  <minimizedAffinity>
-5.58048439

$$$$
