
 OpenBabel10152418253D

 35 38  0  0  0  0  0  0  0  0999 V2000
   -0.2940   -6.4590  -26.3340 C   0  0  0  0  0  2  0  0  0  0  0  0
   -1.0710   -7.1990  -22.6880 C   0  0  0  0  0  0  0  0  0  0  0  0
   -1.0910   -5.9260  -22.1240 C   0  0  0  0  0  3  0  0  0  0  0  0
   -0.7790   -4.8160  -22.9140 C   0  0  0  0  0  3  0  0  0  0  0  0
   -0.5020   -4.9740  -24.2770 C   0  0  0  0  0  3  0  0  0  0  0  0
   -0.4890   -6.2500  -24.8490 C   0  0  0  0  0  0  0  0  0  0  0  0
   -0.6990   -7.3640  -24.0250 C   0  0  0  0  0  3  0  0  0  0  0  0
   -1.6840   -9.6370  -22.4540 C   0  0  0  0  0  0  0  0  0  0  0  0
   -2.2200  -10.4260  -21.6700 O   0  0  0  0  0  0  0  0  0  0  0  0
   -1.4650   -8.3550  -22.0140 N   0  0  0  0  0  0  0  0  0  0  0  0
   -1.5210   -8.3000  -21.0040 H   0  0  0  0  0  0  0  0  0  0  0  0
    0.3600  -12.0230  -22.9370 C   0  0  0  0  0  1  0  0  0  0  0  0
   -0.3290  -11.2220  -24.0060 C   0  0  0  0  0  0  0  0  0  0  0  0
   -0.0610  -11.6180  -25.3340 C   0  0  0  0  0  3  0  0  0  0  0  0
   -0.7500  -11.0620  -26.4090 C   0  0  0  0  0  3  0  0  0  0  0  0
   -1.7050  -10.0830  -26.1820 C   0  0  0  0  0  3  0  0  0  0  0  0
   -1.9330   -9.6280  -24.8830 C   0  0  0  0  0  3  0  0  0  0  0  0
   -1.2330  -10.1620  -23.7810 C   0  0  0  0  0  0  0  0  0  0  0  0
    1.0400   -6.0270  -26.6900 N   0  0  0  0  0  0  0  0  0  0  0  0
    1.5350   -5.5630  -25.9430 H   0  0  0  0  0  0  0  0  0  0  0  0
    1.8270   -6.7630  -27.5730 C   0  0  0  0  0  0  0  0  0  0  0  0
    2.0850   -6.2360  -28.7790 N   0  0  0  0  0  0  0  0  0  0  0  0
    2.8460   -6.9620  -29.5960 C   0  0  0  0  0  3  0  0  0  0  0  0
    3.3660   -8.1580  -29.3230 N   0  0  0  0  0  0  0  0  0  0  0  0
    3.1510   -8.6990  -28.1120 C   0  0  0  0  0  0  0  0  0  0  0  0
    3.6850   -9.9560  -27.7340 C   0  0  0  0  0  0  0  0  0  0  0  0
    3.4290  -10.4920  -26.4560 C   0  0  0  0  0  3  0  0  0  0  0  0
    2.6560   -9.7990  -25.5370 C   0  0  0  0  0  3  0  0  0  0  0  0
    2.1380   -8.5640  -25.8880 C   0  0  0  0  0  3  0  0  0  0  0  0
    2.3640   -8.0050  -27.1690 C   0  0  0  0  0  0  0  0  0  0  0  0
    4.5580  -10.7210  -28.6950 C   0  0  0  0  0  0  0  0  0  0  0  0
    4.9150  -10.1190  -29.8780 N   0  0  0  0  0  0  0  0  0  0  0  0
    4.9700  -11.8560  -28.5020 O   0  0  0  0  0  0  0  0  0  0  0  0
    5.4920  -10.6780  -30.4930 H   0  0  0  0  0  0  0  0  0  0  0  0
    4.6850   -9.1860  -30.1750 H   0  0  0  0  0  0  0  0  0  0  0  0
  1  6  1  0  0  0  0
  2  3  1  0  0  0  0
  2 10  1  0  0  0  0
  4  3  2  0  0  0  0
  5  4  1  0  0  0  0
  6  5  2  0  0  0  0
  6  7  1  0  0  0  0
  7  2  2  0  0  0  0
  8 10  1  0  0  0  0
  8  9  2  0  0  0  0
 10 11  1  0  0  0  0
 13 18  1  0  0  0  0
 13 12  1  0  0  0  0
 14 13  2  0  0  0  0
 15 16  2  0  0  0  0
 15 14  1  0  0  0  0
 16 17  1  0  0  0  0
 17 18  2  0  0  0  0
 18  8  1  0  0  0  0
 19  1  1  0  0  0  0
 19 20  1  0  0  0  0
 21 30  1  0  0  0  0
 21 19  1  0  0  0  0
 22 21  2  0  0  0  0
 23 24  2  0  0  0  0
 23 22  1  0  0  0  0
 24 25  1  0  0  0  0
 25 26  2  0  0  0  0
 25 30  1  0  0  0  0
 26 27  1  0  0  0  0
 27 28  2  0  0  0  0
 29 28  1  0  0  0  0
 30 29  2  0  0  0  0
 31 33  2  0  0  0  0
 31 26  1  0  0  0  0
 32 31  1  0  0  0  0
 34 32  1  0  0  0  0
 35 32  1  0  0  0  0
M  END
>  <minimizedAffinity>
-5.74499321

$$$$
