
 OpenBabel10152418253D

 35 38  0  0  0  0  0  0  0  0999 V2000
   -0.6330  -11.6850  -25.9420 C   0  0  0  0  0  2  0  0  0  0  0  0
    3.0900  -11.8790  -26.6790 C   0  0  0  0  0  0  0  0  0  0  0  0
    3.6390  -12.0260  -25.4080 C   0  0  0  0  0  3  0  0  0  0  0  0
    2.8020  -11.9890  -24.2880 C   0  0  0  0  0  3  0  0  0  0  0  0
    1.4180  -11.8620  -24.4430 C   0  0  0  0  0  3  0  0  0  0  0  0
    0.8630  -11.7240  -25.7190 C   0  0  0  0  0  0  0  0  0  0  0  0
    1.7190  -11.6550  -26.8270 C   0  0  0  0  0  3  0  0  0  0  0  0
    4.2040  -11.0760  -28.7980 C   0  0  0  0  0  0  0  0  0  0  0  0
    4.6840  -11.4970  -29.8540 O   0  0  0  0  0  0  0  0  0  0  0  0
    3.8220  -12.0040  -27.8610 N   0  0  0  0  0  0  0  0  0  0  0  0
    4.2410  -12.9070  -28.0480 H   0  0  0  0  0  0  0  0  0  0  0  0
    3.4480   -8.8830  -30.9710 C   0  0  0  0  0  1  0  0  0  0  0  0
    3.8270   -8.6140  -29.5420 C   0  0  0  0  0  0  0  0  0  0  0  0
    3.7900   -7.2610  -29.1440 C   0  0  0  0  0  3  0  0  0  0  0  0
    3.9680   -6.8900  -27.8130 C   0  0  0  0  0  3  0  0  0  0  0  0
    4.2100   -7.8630  -26.8550 C   0  0  0  0  0  3  0  0  0  0  0  0
    4.3210   -9.1990  -27.2400 C   0  0  0  0  0  3  0  0  0  0  0  0
    4.1640   -9.5960  -28.5840 C   0  0  0  0  0  0  0  0  0  0  0  0
   -0.9570  -10.4930  -26.6960 N   0  0  0  0  0  0  0  0  0  0  0  0
   -1.8040  -10.5680  -27.2400 H   0  0  0  0  0  0  0  0  0  0  0  0
   -0.6640   -9.2230  -26.2030 C   0  0  0  0  0  0  0  0  0  0  0  0
    0.0150   -8.3800  -26.9950 N   0  0  0  0  0  0  0  0  0  0  0  0
    0.2730   -7.1720  -26.4960 C   0  0  0  0  0  3  0  0  0  0  0  0
   -0.0790   -6.7340  -25.2880 N   0  0  0  0  0  0  0  0  0  0  0  0
   -0.7850   -7.5450  -24.4820 C   0  0  0  0  0  0  0  0  0  0  0  0
   -1.2150   -7.1500  -23.1920 C   0  0  0  0  0  0  0  0  0  0  0  0
   -1.9490   -8.0350  -22.3750 C   0  0  0  0  0  3  0  0  0  0  0  0
   -2.2720   -9.3070  -22.8190 C   0  0  0  0  0  3  0  0  0  0  0  0
   -1.8690   -9.7030  -24.0830 C   0  0  0  0  0  3  0  0  0  0  0  0
   -1.1180   -8.8440  -24.9210 C   0  0  0  0  0  0  0  0  0  0  0  0
   -0.9120   -5.7610  -22.6910 C   0  0  0  0  0  0  0  0  0  0  0  0
    0.2100   -5.1250  -23.1640 N   0  0  0  0  0  0  0  0  0  0  0  0
   -1.5940   -5.1550  -21.8770 O   0  0  0  0  0  0  0  0  0  0  0  0
    0.3750   -4.1990  -22.7890 H   0  0  0  0  0  0  0  0  0  0  0  0
    0.8560   -5.4700  -23.8530 H   0  0  0  0  0  0  0  0  0  0  0  0
  1  6  1  0  0  0  0
  2  3  1  0  0  0  0
  3  4  2  0  0  0  0
  5  4  1  0  0  0  0
  6  5  2  0  0  0  0
  7  2  2  0  0  0  0
  7  6  1  0  0  0  0
  8 18  1  0  0  0  0
  8 10  1  0  0  0  0
  9  8  2  0  0  0  0
 10  2  1  0  0  0  0
 11 10  1  0  0  0  0
 12 13  1  0  0  0  0
 13 14  2  0  0  0  0
 13 18  1  0  0  0  0
 14 15  1  0  0  0  0
 15 16  2  0  0  0  0
 17 16  1  0  0  0  0
 18 17  2  0  0  0  0
 19 21  1  0  0  0  0
 19  1  1  0  0  0  0
 20 19  1  0  0  0  0
 21 30  1  0  0  0  0
 22 23  1  0  0  0  0
 22 21  2  0  0  0  0
 23 24  2  0  0  0  0
 24 25  1  0  0  0  0
 25 26  1  0  0  0  0
 26 31  1  0  0  0  0
 26 27  2  0  0  0  0
 28 27  1  0  0  0  0
 29 28  2  0  0  0  0
 30 25  2  0  0  0  0
 30 29  1  0  0  0  0
 31 33  2  0  0  0  0
 32 34  1  0  0  0  0
 32 31  1  0  0  0  0
 35 32  1  0  0  0  0
M  END
>  <minimizedAffinity>
-6.22977972

$$$$
