
 OpenBabel10152418253D

 35 38  0  0  0  0  0  0  0  0999 V2000
    3.3470   -7.8050  -27.5590 C   0  0  0  0  0  2  0  0  0  0  0  0
    3.3550  -11.2750  -26.0080 C   0  0  0  0  0  0  0  0  0  0  0  0
    4.0650  -12.0190  -26.9460 C   0  0  0  0  0  3  0  0  0  0  0  0
    4.4880  -11.4110  -28.1330 C   0  0  0  0  0  3  0  0  0  0  0  0
    4.2470  -10.0510  -28.3540 C   0  0  0  0  0  3  0  0  0  0  0  0
    3.5420   -9.2980  -27.4090 C   0  0  0  0  0  0  0  0  0  0  0  0
    3.0310   -9.9420  -26.2740 C   0  0  0  0  0  3  0  0  0  0  0  0
    1.7920  -11.6920  -24.0690 C   0  0  0  0  0  0  0  0  0  0  0  0
    1.7970  -12.0390  -22.8840 O   0  0  0  0  0  0  0  0  0  0  0  0
    2.9800  -11.7580  -24.7540 N   0  0  0  0  0  0  0  0  0  0  0  0
    3.6490  -12.3480  -24.2720 H   0  0  0  0  0  0  0  0  0  0  0  0
   -0.4550   -9.8690  -22.7540 C   0  0  0  0  0  1  0  0  0  0  0  0
   -0.5210  -10.5070  -24.1120 C   0  0  0  0  0  0  0  0  0  0  0  0
   -1.6750  -10.2140  -24.8700 C   0  0  0  0  0  3  0  0  0  0  0  0
   -1.7920  -10.6140  -26.1990 C   0  0  0  0  0  3  0  0  0  0  0  0
   -0.7670  -11.3340  -26.7920 C   0  0  0  0  0  3  0  0  0  0  0  0
    0.3510  -11.6930  -26.0400 C   0  0  0  0  0  3  0  0  0  0  0  0
    0.4820  -11.3170  -24.6870 C   0  0  0  0  0  0  0  0  0  0  0  0
    2.0310   -7.5650  -28.1120 N   0  0  0  0  0  0  0  0  0  0  0  0
    1.7150   -8.2820  -28.7480 H   0  0  0  0  0  0  0  0  0  0  0  0
    1.0370   -6.9350  -27.3660 C   0  0  0  0  0  0  0  0  0  0  0  0
    0.3120   -7.6830  -26.5210 N   0  0  0  0  0  0  0  0  0  0  0  0
   -0.6260   -7.0490  -25.8190 C   0  0  0  0  0  3  0  0  0  0  0  0
   -0.9050   -5.7470  -25.8850 N   0  0  0  0  0  0  0  0  0  0  0  0
   -0.1760   -4.9660  -26.7000 C   0  0  0  0  0  0  0  0  0  0  0  0
   -0.3950   -3.5710  -26.8140 C   0  0  0  0  0  0  0  0  0  0  0  0
    0.3880   -2.7890  -27.6870 C   0  0  0  0  0  3  0  0  0  0  0  0
    1.3930   -3.3640  -28.4480 C   0  0  0  0  0  3  0  0  0  0  0  0
    1.6270   -4.7240  -28.3380 C   0  0  0  0  0  3  0  0  0  0  0  0
    0.8480   -5.5400  -27.4820 C   0  0  0  0  0  0  0  0  0  0  0  0
   -1.4560   -2.9060  -25.9750 C   0  0  0  0  0  0  0  0  0  0  0  0
   -1.0720   -2.2540  -24.8290 N   0  0  0  0  0  0  0  0  0  0  0  0
   -2.6500   -2.9140  -26.2380 O   0  0  0  0  0  0  0  0  0  0  0  0
   -1.8230   -1.8340  -24.2950 H   0  0  0  0  0  0  0  0  0  0  0  0
   -0.1340   -2.1320  -24.4880 H   0  0  0  0  0  0  0  0  0  0  0  0
  1  6  1  0  0  0  0
  2 10  1  0  0  0  0
  3  2  2  0  0  0  0
  4  3  1  0  0  0  0
  5  4  2  0  0  0  0
  5  6  1  0  0  0  0
  6  7  2  0  0  0  0
  7  2  1  0  0  0  0
  8  9  2  0  0  0  0
 10 11  1  0  0  0  0
 10  8  1  0  0  0  0
 13 12  1  0  0  0  0
 14 13  2  0  0  0  0
 15 14  1  0  0  0  0
 16 15  2  0  0  0  0
 16 17  1  0  0  0  0
 17 18  2  0  0  0  0
 18 13  1  0  0  0  0
 18  8  1  0  0  0  0
 19  1  1  0  0  0  0
 19 21  1  0  0  0  0
 20 19  1  0  0  0  0
 21 22  1  0  0  0  0
 22 23  2  0  0  0  0
 24 23  1  0  0  0  0
 25 24  2  0  0  0  0
 26 25  1  0  0  0  0
 26 31  1  0  0  0  0
 27 26  2  0  0  0  0
 28 29  2  0  0  0  0
 28 27  1  0  0  0  0
 29 30  1  0  0  0  0
 30 21  2  0  0  0  0
 30 25  1  0  0  0  0
 31 32  1  0  0  0  0
 32 35  1  0  0  0  0
 32 34  1  0  0  0  0
 33 31  2  0  0  0  0
M  END
>  <minimizedAffinity>
-5.58048439

$$$$
