
 OpenBabel10152418253D

 35 38  0  0  0  0  0  0  0  0999 V2000
   -0.6120  -12.0070  -25.9180 C   0  0  0  0  0  2  0  0  0  0  0  0
    3.0970  -11.9470  -26.7430 C   0  0  0  0  0  0  0  0  0  0  0  0
    3.6840  -12.0330  -25.4840 C   0  0  0  0  0  3  0  0  0  0  0  0
    2.8740  -12.0380  -24.3440 C   0  0  0  0  0  3  0  0  0  0  0  0
    1.4810  -12.0120  -24.4670 C   0  0  0  0  0  3  0  0  0  0  0  0
    0.8870  -11.9360  -25.7310 C   0  0  0  0  0  0  0  0  0  0  0  0
    1.7100  -11.8240  -26.8600 C   0  0  0  0  0  3  0  0  0  0  0  0
    4.1970  -11.0820  -28.8450 C   0  0  0  0  0  0  0  0  0  0  0  0
    4.6510  -11.4690  -29.9250 O   0  0  0  0  0  0  0  0  0  0  0  0
    3.8080  -12.0390  -27.9400 N   0  0  0  0  0  0  0  0  0  0  0  0
    4.2040  -12.9430  -28.1700 H   0  0  0  0  0  0  0  0  0  0  0  0
    3.5420   -8.7810  -30.9380 C   0  0  0  0  0  1  0  0  0  0  0  0
    3.9000   -8.5820  -29.4930 C   0  0  0  0  0  0  0  0  0  0  0  0
    3.8910   -7.2450  -29.0390 C   0  0  0  0  0  3  0  0  0  0  0  0
    4.0530   -6.9350  -27.6910 C   0  0  0  0  0  3  0  0  0  0  0  0
    4.2510   -7.9530  -26.7710 C   0  0  0  0  0  3  0  0  0  0  0  0
    4.3330   -9.2750  -27.2090 C   0  0  0  0  0  3  0  0  0  0  0  0
    4.1920   -9.6110  -28.5710 C   0  0  0  0  0  0  0  0  0  0  0  0
   -1.0810  -10.7220  -26.3900 N   0  0  0  0  0  0  0  0  0  0  0  0
   -1.7420  -10.7800  -27.1510 H   0  0  0  0  0  0  0  0  0  0  0  0
   -1.2530   -9.6500  -25.5190 C   0  0  0  0  0  0  0  0  0  0  0  0
   -1.9080   -9.8690  -24.3690 N   0  0  0  0  0  0  0  0  0  0  0  0
   -2.0500   -8.8230  -23.5560 C   0  0  0  0  0  3  0  0  0  0  0  0
   -1.6030   -7.5890  -23.7840 N   0  0  0  0  0  0  0  0  0  0  0  0
   -0.9160   -7.3450  -24.9130 C   0  0  0  0  0  0  0  0  0  0  0  0
   -0.3900   -6.0660  -25.2230 C   0  0  0  0  0  0  0  0  0  0  0  0
    0.3190   -5.8510  -26.4220 C   0  0  0  0  0  3  0  0  0  0  0  0
    0.5230   -6.8850  -27.3220 C   0  0  0  0  0  3  0  0  0  0  0  0
    0.0250   -8.1430  -27.0270 C   0  0  0  0  0  3  0  0  0  0  0  0
   -0.7040   -8.3880  -25.8380 C   0  0  0  0  0  0  0  0  0  0  0  0
   -0.5620   -4.9270  -24.2510 C   0  0  0  0  0  0  0  0  0  0  0  0
   -0.2340   -5.1350  -22.9330 N   0  0  0  0  0  0  0  0  0  0  0  0
   -0.9890   -3.8220  -24.5500 O   0  0  0  0  0  0  0  0  0  0  0  0
   -0.3780   -4.3430  -22.3190 H   0  0  0  0  0  0  0  0  0  0  0  0
    0.1550   -5.9710  -22.5310 H   0  0  0  0  0  0  0  0  0  0  0  0
  1  6  1  0  0  0  0
  2  3  1  0  0  0  0
  3  4  2  0  0  0  0
  5  4  1  0  0  0  0
  6  5  2  0  0  0  0
  7  2  2  0  0  0  0
  7  6  1  0  0  0  0
  8 18  1  0  0  0  0
  8 10  1  0  0  0  0
  9  8  2  0  0  0  0
 10  2  1  0  0  0  0
 11 10  1  0  0  0  0
 12 13  1  0  0  0  0
 13 14  2  0  0  0  0
 13 18  1  0  0  0  0
 14 15  1  0  0  0  0
 15 16  2  0  0  0  0
 17 16  1  0  0  0  0
 18 17  2  0  0  0  0
 19  1  1  0  0  0  0
 19 21  1  0  0  0  0
 20 19  1  0  0  0  0
 21 22  1  0  0  0  0
 22 23  2  0  0  0  0
 24 23  1  0  0  0  0
 25 24  2  0  0  0  0
 26 25  1  0  0  0  0
 26 31  1  0  0  0  0
 27 26  2  0  0  0  0
 28 29  2  0  0  0  0
 28 27  1  0  0  0  0
 29 30  1  0  0  0  0
 30 21  2  0  0  0  0
 30 25  1  0  0  0  0
 31 32  1  0  0  0  0
 32 35  1  0  0  0  0
 32 34  1  0  0  0  0
 33 31  2  0  0  0  0
M  END
>  <minimizedAffinity>
-8.47644424

$$$$
