
 OpenBabel10152418253D

 35 38  0  0  0  0  0  0  0  0999 V2000
    0.0760   -7.2060  -27.0060 C   0  0  0  0  0  2  0  0  0  0  0  0
    1.5930  -10.5460  -26.0130 C   0  0  0  0  0  0  0  0  0  0  0  0
    0.5460  -11.4320  -26.2530 C   0  0  0  0  0  3  0  0  0  0  0  0
   -0.6930  -10.9380  -26.6730 C   0  0  0  0  0  3  0  0  0  0  0  0
   -0.8660   -9.5690  -26.9050 C   0  0  0  0  0  3  0  0  0  0  0  0
    0.1860   -8.6770  -26.6740 C   0  0  0  0  0  0  0  0  0  0  0  0
    1.3900   -9.1710  -26.1520 C   0  0  0  0  0  3  0  0  0  0  0  0
    3.9980  -11.1610  -26.4760 C   0  0  0  0  0  0  0  0  0  0  0  0
    4.9740  -11.7020  -25.9480 O   0  0  0  0  0  0  0  0  0  0  0  0
    2.8910  -10.9450  -25.6930 N   0  0  0  0  0  0  0  0  0  0  0  0
    3.1210  -11.0090  -24.7080 H   0  0  0  0  0  0  0  0  0  0  0  0
    4.6980   -8.2130  -27.4360 C   0  0  0  0  0  1  0  0  0  0  0  0
    4.4440   -9.3940  -28.3290 C   0  0  0  0  0  0  0  0  0  0  0  0
    4.5820   -9.1550  -29.7140 C   0  0  0  0  0  3  0  0  0  0  0  0
    4.5250  -10.1940  -30.6390 C   0  0  0  0  0  3  0  0  0  0  0  0
    4.3070  -11.4910  -30.2030 C   0  0  0  0  0  3  0  0  0  0  0  0
    4.0980  -11.7380  -28.8460 C   0  0  0  0  0  3  0  0  0  0  0  0
    4.1310  -10.7000  -27.8930 C   0  0  0  0  0  0  0  0  0  0  0  0
   -1.0480   -6.6520  -26.2820 N   0  0  0  0  0  0  0  0  0  0  0  0
   -1.9480   -6.9180  -26.6540 H   0  0  0  0  0  0  0  0  0  0  0  0
   -0.9950   -6.4560  -24.9050 C   0  0  0  0  0  0  0  0  0  0  0  0
   -0.5040   -5.2940  -24.4500 N   0  0  0  0  0  0  0  0  0  0  0  0
   -0.4730   -5.1360  -23.1280 C   0  0  0  0  0  3  0  0  0  0  0  0
   -0.8840   -6.0270  -22.2250 N   0  0  0  0  0  0  0  0  0  0  0  0
   -1.4090   -7.1890  -22.6500 C   0  0  0  0  0  0  0  0  0  0  0  0
   -1.8860   -8.1800  -21.7570 C   0  0  0  0  0  0  0  0  0  0  0  0
   -2.4240   -9.3880  -22.2440 C   0  0  0  0  0  3  0  0  0  0  0  0
   -2.5040   -9.6320  -23.6060 C   0  0  0  0  0  3  0  0  0  0  0  0
   -2.0530   -8.6670  -24.4910 C   0  0  0  0  0  3  0  0  0  0  0  0
   -1.4930   -7.4490  -24.0330 C   0  0  0  0  0  0  0  0  0  0  0  0
   -1.8470   -7.9340  -20.2710 C   0  0  0  0  0  0  0  0  0  0  0  0
   -2.8310   -7.1570  -19.7090 N   0  0  0  0  0  0  0  0  0  0  0  0
   -0.9870   -8.3710  -19.5200 O   0  0  0  0  0  0  0  0  0  0  0  0
   -2.7540   -7.0120  -18.7100 H   0  0  0  0  0  0  0  0  0  0  0  0
   -3.6210   -6.7480  -20.1780 H   0  0  0  0  0  0  0  0  0  0  0  0
  1  6  1  0  0  0  0
  1 19  1  0  0  0  0
  2 10  1  0  0  0  0
  3  2  2  0  0  0  0
  4  3  1  0  0  0  0
  5  6  1  0  0  0  0
  5  4  2  0  0  0  0
  6  7  2  0  0  0  0
  7  2  1  0  0  0  0
  8  9  2  0  0  0  0
  8 10  1  0  0  0  0
 10 11  1  0  0  0  0
 13 18  1  0  0  0  0
 13 12  1  0  0  0  0
 14 13  2  0  0  0  0
 15 16  2  0  0  0  0
 15 14  1  0  0  0  0
 16 17  1  0  0  0  0
 17 18  2  0  0  0  0
 18  8  1  0  0  0  0
 19 21  1  0  0  0  0
 20 19  1  0  0  0  0
 21 22  2  0  0  0  0
 21 30  1  0  0  0  0
 22 23  1  0  0  0  0
 23 24  2  0  0  0  0
 25 24  1  0  0  0  0
 25 26  1  0  0  0  0
 26 31  1  0  0  0  0
 27 26  2  0  0  0  0
 28 27  1  0  0  0  0
 29 30  1  0  0  0  0
 29 28  2  0  0  0  0
 30 25  2  0  0  0  0
 31 32  1  0  0  0  0
 31 33  2  0  0  0  0
 32 34  1  0  0  0  0
 35 32  1  0  0  0  0
M  END
>  <minimizedAffinity>
-6.00863409

$$$$
