
 OpenBabel10152418253D

 35 38  0  0  0  0  0  0  0  0999 V2000
    0.0100   -9.3510  -26.7120 C   0  0  0  0  0  2  0  0  0  0  0  0
   -0.2390  -11.6460  -23.6930 C   0  0  0  0  0  0  0  0  0  0  0  0
    1.0990  -11.8870  -23.3900 C   0  0  0  0  0  3  0  0  0  0  0  0
    2.0980  -11.3600  -24.2150 C   0  0  0  0  0  3  0  0  0  0  0  0
    1.7600  -10.5510  -25.3050 C   0  0  0  0  0  3  0  0  0  0  0  0
    0.4180  -10.3000  -25.6070 C   0  0  0  0  0  0  0  0  0  0  0  0
   -0.5760  -10.9190  -24.8380 C   0  0  0  0  0  3  0  0  0  0  0  0
   -1.9850  -11.3770  -21.8890 C   0  0  0  0  0  0  0  0  0  0  0  0
   -2.7630  -12.0370  -21.1930 O   0  0  0  0  0  0  0  0  0  0  0  0
   -1.3030  -12.0390  -22.8800 N   0  0  0  0  0  0  0  0  0  0  0  0
   -1.7350  -12.9310  -23.0900 H   0  0  0  0  0  0  0  0  0  0  0  0
   -3.0330   -9.1190  -23.8660 C   0  0  0  0  0  1  0  0  0  0  0  0
   -2.3820   -8.8900  -22.5310 C   0  0  0  0  0  0  0  0  0  0  0  0
   -2.2830   -7.5420  -22.1230 C   0  0  0  0  0  3  0  0  0  0  0  0
   -1.8430   -7.2010  -20.8460 C   0  0  0  0  0  3  0  0  0  0  0  0
   -1.4710   -8.1990  -19.9580 C   0  0  0  0  0  3  0  0  0  0  0  0
   -1.4950   -9.5320  -20.3670 C   0  0  0  0  0  3  0  0  0  0  0  0
   -1.9170   -9.9000  -21.6610 C   0  0  0  0  0  0  0  0  0  0  0  0
    0.9790   -8.2790  -26.7820 N   0  0  0  0  0  0  0  0  0  0  0  0
    1.8690   -8.5540  -27.1700 H   0  0  0  0  0  0  0  0  0  0  0  0
    0.5880   -6.9660  -27.0320 C   0  0  0  0  0  0  0  0  0  0  0  0
    0.6260   -6.5270  -28.2990 N   0  0  0  0  0  0  0  0  0  0  0  0
    0.2400   -5.2680  -28.5050 C   0  0  0  0  0  3  0  0  0  0  0  0
   -0.1740   -4.4150  -27.5690 N   0  0  0  0  0  0  0  0  0  0  0  0
   -0.2510   -4.8340  -26.2950 C   0  0  0  0  0  0  0  0  0  0  0  0
   -0.7000   -3.9970  -25.2440 C   0  0  0  0  0  0  0  0  0  0  0  0
   -0.7590   -4.4740  -23.9190 C   0  0  0  0  0  3  0  0  0  0  0  0
   -0.3870   -5.7740  -23.6150 C   0  0  0  0  0  3  0  0  0  0  0  0
    0.0420   -6.6080  -24.6340 C   0  0  0  0  0  3  0  0  0  0  0  0
    0.1270   -6.1540  -25.9730 C   0  0  0  0  0  0  0  0  0  0  0  0
   -1.1460   -2.5890  -25.5430 C   0  0  0  0  0  0  0  0  0  0  0  0
   -0.6420   -1.9640  -26.6590 N   0  0  0  0  0  0  0  0  0  0  0  0
   -1.9250   -1.9490  -24.8530 O   0  0  0  0  0  0  0  0  0  0  0  0
   -0.9630   -1.0170  -26.8090 H   0  0  0  0  0  0  0  0  0  0  0  0
   -0.0180   -2.3590  -27.3420 H   0  0  0  0  0  0  0  0  0  0  0  0
  1  6  1  0  0  0  0
  2  3  1  0  0  0  0
  2 10  1  0  0  0  0
  4  3  2  0  0  0  0
  5  4  1  0  0  0  0
  6  5  2  0  0  0  0
  6  7  1  0  0  0  0
  7  2  2  0  0  0  0
  8 18  1  0  0  0  0
  8  9  2  0  0  0  0
 10  8  1  0  0  0  0
 11 10  1  0  0  0  0
 12 13  1  0  0  0  0
 13 14  2  0  0  0  0
 13 18  1  0  0  0  0
 14 15  1  0  0  0  0
 15 16  2  0  0  0  0
 17 16  1  0  0  0  0
 18 17  2  0  0  0  0
 19  1  1  0  0  0  0
 20 19  1  0  0  0  0
 21 19  1  0  0  0  0
 21 30  1  0  0  0  0
 22 21  2  0  0  0  0
 23 22  1  0  0  0  0
 23 24  2  0  0  0  0
 24 25  1  0  0  0  0
 25 30  2  0  0  0  0
 25 26  1  0  0  0  0
 26 27  2  0  0  0  0
 27 28  1  0  0  0  0
 29 28  2  0  0  0  0
 30 29  1  0  0  0  0
 31 26  1  0  0  0  0
 31 33  2  0  0  0  0
 32 31  1  0  0  0  0
 34 32  1  0  0  0  0
 35 32  1  0  0  0  0
M  END
>  <minimizedAffinity>
-5.70527744

$$$$
