
 OpenBabel10152418363D

 38 41  0  0  0  0  0  0  0  0999 V2000
    2.8480  -11.3670  -25.2640 C   0  0  0  0  0  2  0  0  0  0  0  0
   -0.7030  -11.8420  -23.8850 C   0  0  0  0  0  0  0  0  0  0  0  0
   -1.4830  -11.6270  -25.0230 C   0  0  0  0  0  3  0  0  0  0  0  0
   -0.8750  -11.2640  -26.2180 C   0  0  0  0  0  3  0  0  0  0  0  0
    0.5130  -11.1500  -26.2840 C   0  0  0  0  0  3  0  0  0  0  0  0
    1.3300  -11.4730  -25.1880 C   0  0  0  0  0  0  0  0  0  0  0  0
    0.6960  -11.8290  -23.9880 C   0  0  0  0  0  3  0  0  0  0  0  0
   -1.7200  -11.1360  -21.6840 C   0  0  0  0  0  0  0  0  0  0  0  0
   -2.1110  -11.5340  -20.5890 O   0  0  0  0  0  0  0  0  0  0  0  0
   -1.3870  -12.0360  -22.6730 N   0  0  0  0  0  0  0  0  0  0  0  0
   -1.7460  -12.9650  -22.4840 H   0  0  0  0  0  0  0  0  0  0  0  0
   -1.5260   -6.9220  -22.4040 C   0  0  0  0  0  0  0  0  0  0  0  0
   -1.6400   -7.4200  -21.1020 C   0  0  0  0  0  3  0  0  0  0  0  0
   -1.7280   -8.7950  -20.8720 C   0  0  0  0  0  3  0  0  0  0  0  0
   -1.7060   -9.6770  -21.9530 C   0  0  0  0  0  0  0  0  0  0  0  0
   -1.6860   -9.1770  -23.2620 C   0  0  0  0  0  3  0  0  0  0  0  0
   -1.5800   -7.8000  -23.4860 C   0  0  0  0  0  3  0  0  0  0  0  0
   -0.3170   -5.0990  -23.3050 C   0  0  0  0  0  1  0  0  0  0  0  0
   -1.3920   -5.5640  -22.4960 O   0  0  0  0  0  0  0  0  0  0  0  0
    3.2930  -10.4170  -26.2690 N   0  0  0  0  0  0  0  0  0  0  0  0
    3.5530  -10.7640  -27.1790 H   0  0  0  0  0  0  0  0  0  0  0  0
    3.0060   -9.0700  -26.0900 C   0  0  0  0  0  0  0  0  0  0  0  0
    2.4350   -8.7230  -24.9220 N   0  0  0  0  0  0  0  0  0  0  0  0
    1.8020   -7.5520  -24.8870 C   0  0  0  0  0  3  0  0  0  0  0  0
    1.6010   -6.7520  -25.9350 N   0  0  0  0  0  0  0  0  0  0  0  0
    2.2250   -7.0670  -27.0850 C   0  0  0  0  0  0  0  0  0  0  0  0
    2.0440   -6.3120  -28.2480 C   0  0  0  0  0  0  0  0  0  0  0  0
    2.7830   -6.5140  -29.4220 C   0  0  0  0  0  3  0  0  0  0  0  0
    3.6780   -7.5630  -29.4630 C   0  0  0  0  0  0  0  0  0  0  0  0
    3.7830   -8.4280  -28.3830 C   0  0  0  0  0  3  0  0  0  0  0  0
    3.0480   -8.1950  -27.1900 C   0  0  0  0  0  0  0  0  0  0  0  0
    0.9260   -5.3580  -28.3450 C   0  0  0  0  0  0  0  0  0  0  0  0
   -0.2870   -5.8540  -27.9510 N   0  0  0  0  0  0  0  0  0  0  0  0
    1.0570   -4.2590  -28.8620 O   0  0  0  0  0  0  0  0  0  0  0  0
   -1.1020   -5.2620  -28.0380 H   0  0  0  0  0  0  0  0  0  0  0  0
   -0.4000   -6.7820  -27.5650 H   0  0  0  0  0  0  0  0  0  0  0  0
    4.4410   -7.8110  -30.5600 O   0  0  0  0  0  0  0  0  0  0  0  0
    4.3410   -7.0760  -31.1900 H   0  0  0  0  0  0  0  0  0  0  0  0
  1  6  1  0  0  0  0
  2 10  1  0  0  0  0
  3  2  2  0  0  0  0
  4  3  1  0  0  0  0
  5  4  2  0  0  0  0
  5  6  1  0  0  0  0
  6  7  2  0  0  0  0
  7  2  1  0  0  0  0
  8  9  2  0  0  0  0
 10 11  1  0  0  0  0
 10  8  1  0  0  0  0
 12 13  1  0  0  0  0
 13 14  2  0  0  0  0
 15  8  1  0  0  0  0
 15 14  1  0  0  0  0
 16 15  2  0  0  0  0
 17 16  1  0  0  0  0
 17 12  2  0  0  0  0
 18 19  1  0  0  0  0
 19 12  1  0  0  0  0
 20 22  1  0  0  0  0
 20  1  1  0  0  0  0
 21 20  1  0  0  0  0
 22 23  1  0  0  0  0
 23 24  2  0  0  0  0
 25 24  1  0  0  0  0
 26 25  2  0  0  0  0
 27 26  1  0  0  0  0
 28 27  2  0  0  0  0
 29 28  1  0  0  0  0
 29 30  2  0  0  0  0
 30 31  1  0  0  0  0
 31 26  1  0  0  0  0
 31 22  2  0  0  0  0
 32 27  1  0  0  0  0
 32 33  1  0  0  0  0
 33 36  1  0  0  0  0
 34 32  2  0  0  0  0
 35 33  1  0  0  0  0
 37 29  1  0  0  0  0
 38 37  1  0  0  0  0
M  END
>  <minimizedAffinity>
-8.45317745

$$$$
