
 OpenBabel10152418363D

 38 41  0  0  0  0  0  0  0  0999 V2000
    0.0010  -11.9020  -26.1930 C   0  0  0  0  0  2  0  0  0  0  0  0
    3.6550  -11.5720  -27.3230 C   0  0  0  0  0  0  0  0  0  0  0  0
    4.3460  -11.8250  -26.1370 C   0  0  0  0  0  3  0  0  0  0  0  0
    3.6400  -12.0360  -24.9590 C   0  0  0  0  0  3  0  0  0  0  0  0
    2.2460  -12.0280  -24.9740 C   0  0  0  0  0  3  0  0  0  0  0  0
    1.5240  -11.8930  -26.1710 C   0  0  0  0  0  0  0  0  0  0  0  0
    2.2560  -11.6720  -27.3480 C   0  0  0  0  0  3  0  0  0  0  0  0
    4.3870  -10.0490  -29.2010 C   0  0  0  0  0  0  0  0  0  0  0  0
    4.9740  -10.0020  -30.2790 O   0  0  0  0  0  0  0  0  0  0  0  0
    4.4230  -11.1980  -28.4380 N   0  0  0  0  0  0  0  0  0  0  0  0
    5.1600  -11.8290  -28.7290 H   0  0  0  0  0  0  0  0  0  0  0  0
    2.3330   -6.5660  -27.7990 C   0  0  0  0  0  0  0  0  0  0  0  0
    2.6650   -6.7050  -29.1510 C   0  0  0  0  0  3  0  0  0  0  0  0
    3.3580   -7.8320  -29.6010 C   0  0  0  0  0  3  0  0  0  0  0  0
    3.7230   -8.8240  -28.6900 C   0  0  0  0  0  0  0  0  0  0  0  0
    3.4740   -8.6440  -27.3240 C   0  0  0  0  0  3  0  0  0  0  0  0
    2.7650   -7.5230  -26.8800 C   0  0  0  0  0  3  0  0  0  0  0  0
    1.1160   -4.7010  -28.5980 C   0  0  0  0  0  1  0  0  0  0  0  0
    1.6080   -5.4480  -27.4910 O   0  0  0  0  0  0  0  0  0  0  0  0
   -0.5780  -11.2720  -25.0180 N   0  0  0  0  0  0  0  0  0  0  0  0
   -0.4000  -11.6820  -24.1140 H   0  0  0  0  0  0  0  0  0  0  0  0
   -1.0340   -9.9640  -25.1160 C   0  0  0  0  0  0  0  0  0  0  0  0
   -0.8730   -9.3550  -26.3050 N   0  0  0  0  0  0  0  0  0  0  0  0
   -0.9260   -8.0240  -26.3100 C   0  0  0  0  0  3  0  0  0  0  0  0
   -1.0190   -7.2510  -25.2270 N   0  0  0  0  0  0  0  0  0  0  0  0
   -1.2440   -7.8600  -24.0480 C   0  0  0  0  0  0  0  0  0  0  0  0
   -1.3170   -7.1380  -22.8520 C   0  0  0  0  0  0  0  0  0  0  0  0
   -1.6920   -7.7090  -21.6280 C   0  0  0  0  0  3  0  0  0  0  0  0
   -1.9240   -9.0680  -21.5800 C   0  0  0  0  0  0  0  0  0  0  0  0
   -1.7210   -9.8470  -22.7090 C   0  0  0  0  0  3  0  0  0  0  0  0
   -1.3660   -9.2520  -23.9490 C   0  0  0  0  0  0  0  0  0  0  0  0
   -0.8280   -5.7500  -22.7950 C   0  0  0  0  0  0  0  0  0  0  0  0
    0.4690   -5.5810  -23.1970 N   0  0  0  0  0  0  0  0  0  0  0  0
   -1.4920   -4.8510  -22.3000 O   0  0  0  0  0  0  0  0  0  0  0  0
    0.8770   -4.6580  -23.1360 H   0  0  0  0  0  0  0  0  0  0  0  0
    1.0310   -6.3370  -23.5650 H   0  0  0  0  0  0  0  0  0  0  0  0
   -2.3090   -9.6880  -20.4330 O   0  0  0  0  0  0  0  0  0  0  0  0
   -2.5110   -9.0160  -19.7590 H   0  0  0  0  0  0  0  0  0  0  0  0
  1  6  1  0  0  0  0
  1 20  1  0  0  0  0
  2  3  1  0  0  0  0
  3  4  2  0  0  0  0
  5  4  1  0  0  0  0
  6  5  2  0  0  0  0
  7  2  2  0  0  0  0
  7  6  1  0  0  0  0
  8 15  1  0  0  0  0
  8 10  1  0  0  0  0
  9  8  2  0  0  0  0
 10  2  1  0  0  0  0
 11 10  1  0  0  0  0
 12 19  1  0  0  0  0
 12 17  1  0  0  0  0
 13 12  2  0  0  0  0
 14 13  1  0  0  0  0
 14 15  2  0  0  0  0
 15 16  1  0  0  0  0
 16 17  2  0  0  0  0
 18 19  1  0  0  0  0
 20 21  1  0  0  0  0
 22 20  1  0  0  0  0
 22 31  1  0  0  0  0
 23 22  2  0  0  0  0
 24 23  1  0  0  0  0
 24 25  2  0  0  0  0
 25 26  1  0  0  0  0
 26 31  2  0  0  0  0
 26 27  1  0  0  0  0
 27 32  1  0  0  0  0
 27 28  2  0  0  0  0
 28 29  1  0  0  0  0
 29 37  1  0  0  0  0
 30 29  2  0  0  0  0
 31 30  1  0  0  0  0
 32 34  2  0  0  0  0
 33 35  1  0  0  0  0
 33 32  1  0  0  0  0
 36 33  1  0  0  0  0
 37 38  1  0  0  0  0
M  END
>  <minimizedAffinity>
-8.22196865

$$$$
