
 OpenBabel10152418363D

 38 41  0  0  0  0  0  0  0  0999 V2000
   -1.4720   -8.8710  -24.4500 C   0  0  0  0  0  2  0  0  0  0  0  0
    1.3890  -11.2410  -25.4160 C   0  0  0  0  0  0  0  0  0  0  0  0
    0.7880  -12.0310  -26.3970 C   0  0  0  0  0  3  0  0  0  0  0  0
   -0.5540  -11.8480  -26.7030 C   0  0  0  0  0  3  0  0  0  0  0  0
   -1.2850  -10.8550  -26.0540 C   0  0  0  0  0  3  0  0  0  0  0  0
   -0.6790   -9.9690  -25.1470 C   0  0  0  0  0  0  0  0  0  0  0  0
    0.6760  -10.1760  -24.8460 C   0  0  0  0  0  3  0  0  0  0  0  0
    3.8880  -11.4640  -25.7150 C   0  0  0  0  0  0  0  0  0  0  0  0
    4.8960  -12.0390  -25.3110 O   0  0  0  0  0  0  0  0  0  0  0  0
    2.6960  -11.5890  -25.0320 N   0  0  0  0  0  0  0  0  0  0  0  0
    2.8260  -11.9490  -24.0940 H   0  0  0  0  0  0  0  0  0  0  0  0
    4.3590   -8.8290  -29.0530 C   0  0  0  0  0  0  0  0  0  0  0  0
    4.2670   -8.3250  -27.7510 C   0  0  0  0  0  3  0  0  0  0  0  0
    4.0880   -9.1860  -26.6660 C   0  0  0  0  0  3  0  0  0  0  0  0
    3.9970  -10.5610  -26.8870 C   0  0  0  0  0  0  0  0  0  0  0  0
    3.9960  -11.0600  -28.1950 C   0  0  0  0  0  3  0  0  0  0  0  0
    4.1930  -10.1950  -29.2770 C   0  0  0  0  0  3  0  0  0  0  0  0
    3.9470   -8.1210  -31.2730 C   0  0  0  0  0  1  0  0  0  0  0  0
    4.5890   -7.8920  -30.0230 O   0  0  0  0  0  0  0  0  0  0  0  0
   -0.7160   -8.2230  -23.3910 N   0  0  0  0  0  0  0  0  0  0  0  0
   -0.1710   -8.7980  -22.7680 H   0  0  0  0  0  0  0  0  0  0  0  0
   -0.4700   -6.8600  -23.4810 C   0  0  0  0  0  0  0  0  0  0  0  0
   -0.8700   -6.1020  -22.4430 N   0  0  0  0  0  0  0  0  0  0  0  0
   -1.0100   -4.7980  -22.6690 C   0  0  0  0  0  3  0  0  0  0  0  0
   -0.8900   -4.2030  -23.8570 N   0  0  0  0  0  0  0  0  0  0  0  0
   -0.4290   -4.9480  -24.8800 C   0  0  0  0  0  0  0  0  0  0  0  0
   -0.3070   -4.4250  -26.1710 C   0  0  0  0  0  0  0  0  0  0  0  0
    0.3020   -5.1140  -27.2280 C   0  0  0  0  0  3  0  0  0  0  0  0
    0.7320   -6.4070  -27.0090 C   0  0  0  0  0  0  0  0  0  0  0  0
    0.4980   -7.0180  -25.7860 C   0  0  0  0  0  3  0  0  0  0  0  0
   -0.0960   -6.2990  -24.7150 C   0  0  0  0  0  0  0  0  0  0  0  0
   -0.9790   -3.1630  -26.5250 C   0  0  0  0  0  0  0  0  0  0  0  0
   -0.1980   -2.2650  -27.2010 N   0  0  0  0  0  0  0  0  0  0  0  0
   -2.1020   -2.8960  -26.1250 O   0  0  0  0  0  0  0  0  0  0  0  0
   -0.5880   -1.3620  -27.4300 H   0  0  0  0  0  0  0  0  0  0  0  0
    0.7480   -2.4740  -27.4910 H   0  0  0  0  0  0  0  0  0  0  0  0
    1.3460   -7.1320  -27.9810 O   0  0  0  0  0  0  0  0  0  0  0  0
    1.5350   -6.5520  -28.7400 H   0  0  0  0  0  0  0  0  0  0  0  0
  1 20  1  0  0  0  0
  2 10  1  0  0  0  0
  2  7  1  0  0  0  0
  3  2  2  0  0  0  0
  4  3  1  0  0  0  0
  4  5  2  0  0  0  0
  5  6  1  0  0  0  0
  6  7  2  0  0  0  0
  6  1  1  0  0  0  0
  8  9  2  0  0  0  0
  8 10  1  0  0  0  0
 10 11  1  0  0  0  0
 12 13  1  0  0  0  0
 13 14  2  0  0  0  0
 15 14  1  0  0  0  0
 15  8  1  0  0  0  0
 16 15  2  0  0  0  0
 17 12  2  0  0  0  0
 17 16  1  0  0  0  0
 18 19  1  0  0  0  0
 19 12  1  0  0  0  0
 20 21  1  0  0  0  0
 22 20  1  0  0  0  0
 22 23  1  0  0  0  0
 24 23  2  0  0  0  0
 25 24  1  0  0  0  0
 26 31  1  0  0  0  0
 26 25  2  0  0  0  0
 27 26  1  0  0  0  0
 28 29  1  0  0  0  0
 28 27  2  0  0  0  0
 29 30  2  0  0  0  0
 30 31  1  0  0  0  0
 31 22  2  0  0  0  0
 32 27  1  0  0  0  0
 32 34  2  0  0  0  0
 33 32  1  0  0  0  0
 35 33  1  0  0  0  0
 36 33  1  0  0  0  0
 37 29  1  0  0  0  0
 38 37  1  0  0  0  0
M  END
>  <minimizedAffinity>
-6.57535219

$$$$
