
 OpenBabel10152418363D

 38 41  0  0  0  0  0  0  0  0999 V2000
    0.6610  -12.0390  -26.7620 C   0  0  0  0  0  2  0  0  0  0  0  0
    4.1220  -11.1950  -28.1930 C   0  0  0  0  0  0  0  0  0  0  0  0
    4.9480  -11.4100  -27.0890 C   0  0  0  0  0  3  0  0  0  0  0  0
    4.3890  -11.7610  -25.8670 C   0  0  0  0  0  3  0  0  0  0  0  0
    3.0110  -11.9310  -25.7570 C   0  0  0  0  0  3  0  0  0  0  0  0
    2.1670  -11.8360  -26.8760 C   0  0  0  0  0  0  0  0  0  0  0  0
    2.7500  -11.4720  -28.1000 C   0  0  0  0  0  3  0  0  0  0  0  0
    4.5180   -9.4840  -30.0090 C   0  0  0  0  0  0  0  0  0  0  0  0
    4.9740   -9.3100  -31.1360 O   0  0  0  0  0  0  0  0  0  0  0  0
    4.7280  -10.6770  -29.3500 N   0  0  0  0  0  0  0  0  0  0  0  0
    5.4750  -11.2200  -29.7680 H   0  0  0  0  0  0  0  0  0  0  0  0
    2.3740   -6.3260  -28.0750 C   0  0  0  0  0  0  0  0  0  0  0  0
    2.2430   -6.5410  -29.4500 C   0  0  0  0  0  3  0  0  0  0  0  0
    2.9630   -7.5570  -30.0830 C   0  0  0  0  0  3  0  0  0  0  0  0
    3.8230   -8.3600  -29.3340 C   0  0  0  0  0  0  0  0  0  0  0  0
    4.0260   -8.0880  -27.9750 C   0  0  0  0  0  3  0  0  0  0  0  0
    3.2890   -7.0810  -27.3420 C   0  0  0  0  0  3  0  0  0  0  0  0
    1.3490   -4.2200  -28.4110 C   0  0  0  0  0  1  0  0  0  0  0  0
    1.5760   -5.3400  -27.5620 O   0  0  0  0  0  0  0  0  0  0  0  0
   -0.0300  -10.8460  -26.3000 N   0  0  0  0  0  0  0  0  0  0  0  0
   -0.5900  -10.3280  -26.9580 H   0  0  0  0  0  0  0  0  0  0  0  0
   -0.2040  -10.6600  -24.9350 C   0  0  0  0  0  0  0  0  0  0  0  0
   -0.5300  -11.7480  -24.2130 N   0  0  0  0  0  0  0  0  0  0  0  0
   -1.0790  -11.5350  -23.0190 C   0  0  0  0  0  3  0  0  0  0  0  0
   -1.4270  -10.3430  -22.5310 N   0  0  0  0  0  0  0  0  0  0  0  0
   -1.0450   -9.2540  -23.2240 C   0  0  0  0  0  0  0  0  0  0  0  0
   -1.3960   -7.9640  -22.8140 C   0  0  0  0  0  0  0  0  0  0  0  0
   -0.9000   -6.8010  -23.4180 C   0  0  0  0  0  3  0  0  0  0  0  0
   -0.0870   -6.9300  -24.5250 C   0  0  0  0  0  0  0  0  0  0  0  0
    0.1690   -8.1860  -25.0550 C   0  0  0  0  0  3  0  0  0  0  0  0
   -0.3180   -9.3580  -24.4170 C   0  0  0  0  0  0  0  0  0  0  0  0
   -2.4590   -7.7690  -21.8130 C   0  0  0  0  0  0  0  0  0  0  0  0
   -3.7320   -7.7820  -22.3170 N   0  0  0  0  0  0  0  0  0  0  0  0
   -2.2080   -7.4870  -20.6510 O   0  0  0  0  0  0  0  0  0  0  0  0
   -4.5020   -7.6070  -21.6860 H   0  0  0  0  0  0  0  0  0  0  0  0
   -3.9330   -7.9720  -23.2890 H   0  0  0  0  0  0  0  0  0  0  0  0
    0.4460   -5.8480  -25.1530 O   0  0  0  0  0  0  0  0  0  0  0  0
    0.2720   -5.0530  -24.6210 H   0  0  0  0  0  0  0  0  0  0  0  0
  1 20  1  0  0  0  0
  2  7  2  0  0  0  0
  2  3  1  0  0  0  0
  3  4  2  0  0  0  0
  4  5  1  0  0  0  0
  6  1  1  0  0  0  0
  6  5  2  0  0  0  0
  7  6  1  0  0  0  0
  8 10  1  0  0  0  0
  8 15  1  0  0  0  0
  9  8  2  0  0  0  0
 10  2  1  0  0  0  0
 11 10  1  0  0  0  0
 12 19  1  0  0  0  0
 12 17  1  0  0  0  0
 13 12  2  0  0  0  0
 14 13  1  0  0  0  0
 14 15  2  0  0  0  0
 15 16  1  0  0  0  0
 16 17  2  0  0  0  0
 18 19  1  0  0  0  0
 20 22  1  0  0  0  0
 21 20  1  0  0  0  0
 22 31  2  0  0  0  0
 22 23  1  0  0  0  0
 23 24  2  0  0  0  0
 24 25  1  0  0  0  0
 26 27  1  0  0  0  0
 26 25  2  0  0  0  0
 27 32  1  0  0  0  0
 28 27  2  0  0  0  0
 29 28  1  0  0  0  0
 30 29  2  0  0  0  0
 30 31  1  0  0  0  0
 31 26  1  0  0  0  0
 32 34  2  0  0  0  0
 33 32  1  0  0  0  0
 33 35  1  0  0  0  0
 36 33  1  0  0  0  0
 37 38  1  0  0  0  0
 37 29  1  0  0  0  0
M  END
>  <minimizedAffinity>
-8.15827847

$$$$
