
 OpenBabel11232418503D

 41 46  0  0  1  0  0  0  0  0999 V2000
    8.3080   -6.1990   12.5330 C   0  0  0  0  0  0  0  0  0  0  0  0
    8.4400   -4.9000   12.9970 N   0  0  0  0  0  0  0  0  0  0  0  0
    7.9060   -4.1310   12.0770 C   0  0  0  0  0  0  0  0  0  0  0  0
    7.4470   -4.8750   11.0300 N   0  0  0  0  0  0  0  0  0  0  0  0
    7.6580   -6.2100   11.3010 C   0  0  0  0  0  0  0  0  0  0  0  0
    6.7050   -4.2710    9.9400 C   0  0  0  0  0  2  0  0  0  0  0  0
    7.0170   -2.8750    9.7360 O   0  0  0  0  0  0  0  0  0  0  0  0
    7.2780   -2.1290   10.8570 C   0  0  0  0  0  0  0  0  0  0  0  0
    7.1380   -0.7480   10.7510 C   0  0  0  0  0  3  0  0  0  0  0  0
    7.4170    0.0680   11.8530 C   0  0  0  0  0  3  0  0  0  0  0  0
    7.8470   -0.5000   13.0620 C   0  0  0  0  0  0  0  0  0  0  0  0
    8.0230   -1.8880   13.1490 C   0  0  0  0  0  3  0  0  0  0  0  0
    7.7370   -2.6990   12.0490 C   0  0  0  0  0  0  0  0  0  0  0  0
    9.6550   -9.4700   15.0760 C   0  0  0  0  0  0  0  0  0  0  0  0
    8.9830   -8.3290   15.5640 C   0  0  0  0  0  3  0  0  0  0  0  0
    8.5550   -7.2900   14.7240 C   0  0  0  0  0  3  0  0  0  0  0  0
    8.7830   -7.3180   13.3440 C   0  0  0  0  0  0  0  0  0  0  0  0
    9.4740   -8.4160   12.8380 C   0  0  0  0  0  3  0  0  0  0  0  0
    9.8870   -9.4610   13.6820 C   0  0  0  0  0  3  0  0  0  0  0  0
    9.8710  -14.1070   16.2610 C   0  0  0  0  0  1  0  0  0  0  0  0
    9.5880  -12.7710   15.5890 C   0  0  1  0  0  0  0  0  0  0  0  0
    9.0800  -11.6800   16.5670 C   0  0  0  0  0  2  0  0  0  0  0  0
   10.1420  -10.6930   16.0030 C   0  0  1  0  0  0  0  0  0  0  0  0
   10.8390  -11.9010   15.3140 C   0  0  0  0  0  2  0  0  0  0  0  0
   10.9780  -10.1690   17.1160 N   0  0  0  0  0  4  0  0  0  0  0  0
   11.8520   -9.7590   16.7630 H   0  0  0  0  0  0  0  0  0  0  0  0
   10.4750   -9.4340   17.6320 H   0  0  0  0  0  0  0  0  0  0  0  0
   11.2390  -10.8920   17.7970 H   0  0  0  0  0  0  0  0  0  0  0  0
    8.7330  -12.9760   14.4490 O   0  0  0  0  0  0  0  0  0  0  0  0
    9.1370  -13.6840   13.9140 H   0  0  0  0  0  0  0  0  0  0  0  0
    7.1820   -7.2720   10.4260 C   0  0  0  0  0  0  0  0  0  0  0  0
    7.5830   -7.3180    9.0860 C   0  0  0  0  0  3  0  0  0  0  0  0
    7.1140   -8.3310    8.2490 C   0  0  0  0  0  3  0  0  0  0  0  0
    6.2440   -9.3010    8.7470 C   0  0  0  0  0  3  0  0  0  0  0  0
    5.8420   -9.2590   10.0820 C   0  0  0  0  0  3  0  0  0  0  0  0
    6.3090   -8.2470   10.9210 C   0  0  0  0  0  3  0  0  0  0  0  0
    8.1530    0.3160   14.2680 C   0  0  0  0  0  0  0  0  0  0  0  0
    7.5090    0.0030   15.4320 N   0  0  0  0  0  0  0  0  0  0  0  0
    8.9780    1.2200   14.2370 O   0  0  0  0  0  0  0  0  0  0  0  0
    7.7330    0.5630   16.2460 H   0  0  0  0  0  0  0  0  0  0  0  0
    6.8850   -0.7790   15.5550 H   0  0  0  0  0  0  0  0  0  0  0  0
  1  2  1  0  0  0  0
  1 17  1  0  0  0  0
  3  2  2  0  0  0  0
  4  5  1  0  0  0  0
  4  3  1  0  0  0  0
  5  1  2  0  0  0  0
  6  4  1  0  0  0  0
  7  6  1  0  0  0  0
  7  8  1  0  0  0  0
  8 13  1  0  0  0  0
  9  8  2  0  0  0  0
  9 10  1  0  0  0  0
 10 11  2  0  0  0  0
 11 12  1  0  0  0  0
 11 37  1  0  0  0  0
 13  3  1  0  0  0  0
 13 12  2  0  0  0  0
 14 15  1  0  0  0  0
 14 23  1  0  0  0  0
 16 15  2  0  0  0  0
 17 16  1  0  0  0  0
 18 17  2  0  0  0  0
 18 19  1  0  0  0  0
 19 14  2  0  0  0  0
 21 20  1  1  0  0  0
 21 22  1  0  0  0  0
 23 22  1  0  0  0  0
 23 25  1  1  0  0  0
 24 21  1  0  0  0  0
 24 23  1  0  0  0  0
 25 27  1  0  0  0  0
 25 28  1  0  0  0  0
 26 25  1  0  0  0  0
 29 21  1  0  0  0  0
 30 29  1  0  0  0  0
 31 36  1  0  0  0  0
 31  5  1  0  0  0  0
 32 31  2  0  0  0  0
 33 34  2  0  0  0  0
 33 32  1  0  0  0  0
 34 35  1  0  0  0  0
 35 36  2  0  0  0  0
 37 38  1  0  0  0  0
 38 41  1  0  0  0  0
 38 40  1  0  0  0  0
 39 37  2  0  0  0  0
M  END
>  <minimizedAffinity>
-12.1441898

$$$$
