
 OpenBabel11232418503D

 41 46  0  0  1  0  0  0  0  0999 V2000
    7.4920   -6.8540   11.1480 C   0  0  0  0  0  0  0  0  0  0  0  0
    7.6520   -8.1930   11.4650 N   0  0  0  0  0  0  0  0  0  0  0  0
    7.9660   -8.2300   12.7380 C   0  0  0  0  0  0  0  0  0  0  0  0
    8.0320   -6.9700   13.2570 N   0  0  0  0  0  0  0  0  0  0  0  0
    7.7030   -6.0620   12.2740 C   0  0  0  0  0  0  0  0  0  0  0  0
    8.2420   -6.7450   14.6750 C   0  0  0  0  0  2  0  0  0  0  0  0
    8.9530   -7.8190   15.3280 O   0  0  0  0  0  0  0  0  0  0  0  0
    8.6910   -9.0910   14.8880 C   0  0  0  0  0  0  0  0  0  0  0  0
    8.9920  -10.1400   15.7540 C   0  0  0  0  0  3  0  0  0  0  0  0
    8.7730  -11.4620   15.3500 C   0  0  0  0  0  3  0  0  0  0  0  0
    8.2610  -11.7350   14.0730 C   0  0  0  0  0  0  0  0  0  0  0  0
    7.9980  -10.6760   13.1930 C   0  0  0  0  0  3  0  0  0  0  0  0
    8.2110   -9.3590   13.6020 C   0  0  0  0  0  0  0  0  0  0  0  0
    6.3820   -5.8340    7.0610 C   0  0  0  0  0  0  0  0  0  0  0  0
    6.9660   -7.0660    7.4260 C   0  0  0  0  0  3  0  0  0  0  0  0
    7.3100   -7.3730    8.7510 C   0  0  0  0  0  3  0  0  0  0  0  0
    7.1080   -6.4630    9.7930 C   0  0  0  0  0  0  0  0  0  0  0  0
    6.5650   -5.2260    9.4580 C   0  0  0  0  0  3  0  0  0  0  0  0
    6.2070   -4.9290    8.1310 C   0  0  0  0  0  3  0  0  0  0  0  0
    7.3290   -4.8920    2.4590 C   0  0  0  0  0  1  0  0  0  0  0  0
    7.4150   -5.2420    3.9380 C   0  0  1  0  0  0  0  0  0  0  0  0
    6.6520   -4.2520    4.8560 C   0  0  0  0  0  2  0  0  0  0  0  0
    5.9530   -5.4520    5.5560 C   0  0  1  0  0  0  0  0  0  0  0  0
    6.4520   -6.3640    4.4000 C   0  0  0  0  0  2  0  0  0  0  0  0
    4.4770   -5.2800    5.4900 N   0  0  0  0  0  4  0  0  0  0  0  0
    3.9910   -6.1670    5.6710 H   0  0  0  0  0  0  0  0  0  0  0  0
    4.1600   -4.6010    6.1950 H   0  0  0  0  0  0  0  0  0  0  0  0
    4.1530   -4.9420    4.5760 H   0  0  0  0  0  0  0  0  0  0  0  0
    8.7910   -5.4380    4.3090 O   0  0  0  0  0  0  0  0  0  0  0  0
    9.1740   -6.0630    3.6650 H   0  0  0  0  0  0  0  0  0  0  0  0
    7.5750   -4.6350   12.5350 C   0  0  0  0  0  0  0  0  0  0  0  0
    8.6860   -3.7930   12.4230 C   0  0  0  0  0  3  0  0  0  0  0  0
    8.5610   -2.4290   12.6870 C   0  0  0  0  0  3  0  0  0  0  0  0
    7.3260   -1.9010   13.0630 C   0  0  0  0  0  3  0  0  0  0  0  0
    6.2150   -2.7360   13.1750 C   0  0  0  0  0  3  0  0  0  0  0  0
    6.3380   -4.1010   12.9130 C   0  0  0  0  0  3  0  0  0  0  0  0
    8.0030  -13.1190   13.5910 C   0  0  0  0  0  0  0  0  0  0  0  0
    7.2330  -13.2740   12.4720 N   0  0  0  0  0  0  0  0  0  0  0  0
    8.4850  -14.0940   14.1530 O   0  0  0  0  0  0  0  0  0  0  0  0
    7.0730  -14.2210   12.1520 H   0  0  0  0  0  0  0  0  0  0  0  0
    6.8760  -12.5190   11.9070 H   0  0  0  0  0  0  0  0  0  0  0  0
  1  2  1  0  0  0  0
  1  5  2  0  0  0  0
  2  3  2  0  0  0  0
  3  4  1  0  0  0  0
  3 13  1  0  0  0  0
  4  6  1  0  0  0  0
  5 31  1  0  0  0  0
  5  4  1  0  0  0  0
  6  7  1  0  0  0  0
  8  7  1  0  0  0  0
  8  9  1  0  0  0  0
 10  9  2  0  0  0  0
 11 10  1  0  0  0  0
 12 13  1  0  0  0  0
 12 11  2  0  0  0  0
 13  8  2  0  0  0  0
 14 15  2  0  0  0  0
 14 19  1  0  0  0  0
 15 16  1  0  0  0  0
 16 17  2  0  0  0  0
 17  1  1  0  0  0  0
 18 17  1  0  0  0  0
 19 18  2  0  0  0  0
 21 20  1  6  0  0  0
 21 29  1  0  0  0  0
 21 24  1  0  0  0  0
 21 22  1  0  0  0  0
 22 23  1  0  0  0  0
 23 25  1  6  0  0  0
 23 14  1  0  0  0  0
 24 23  1  0  0  0  0
 25 26  1  0  0  0  0
 25 27  1  0  0  0  0
 28 25  1  0  0  0  0
 30 29  1  0  0  0  0
 31 36  1  0  0  0  0
 32 31  2  0  0  0  0
 32 33  1  0  0  0  0
 33 34  2  0  0  0  0
 34 35  1  0  0  0  0
 36 35  2  0  0  0  0
 37 11  1  0  0  0  0
 37 39  2  0  0  0  0
 38 37  1  0  0  0  0
 40 38  1  0  0  0  0
 41 38  1  0  0  0  0
M  END
>  <minimizedAffinity>
-11.958086

$$$$
