
 OpenBabel11232418503D

 41 46  0  0  1  0  0  0  0  0999 V2000
    6.9350   -5.1730   10.4720 C   0  0  0  0  0  0  0  0  0  0  0  0
    6.7410   -5.4970    9.1390 N   0  0  0  0  0  0  0  0  0  0  0  0
    6.6000   -4.3560    8.5060 C   0  0  0  0  0  0  0  0  0  0  0  0
    6.6800   -3.3070    9.3740 N   0  0  0  0  0  0  0  0  0  0  0  0
    6.9270   -3.7910   10.6410 C   0  0  0  0  0  0  0  0  0  0  0  0
    6.6790   -1.9340    8.9050 C   0  0  0  0  0  2  0  0  0  0  0  0
    5.9990   -1.7590    7.6420 O   0  0  0  0  0  0  0  0  0  0  0  0
    6.1230   -2.7740    6.7280 C   0  0  0  0  0  0  0  0  0  0  0  0
    5.8810   -2.4630    5.3920 C   0  0  0  0  0  3  0  0  0  0  0  0
    5.9640   -3.4630    4.4170 C   0  0  0  0  0  3  0  0  0  0  0  0
    6.2810   -4.7800    4.7810 C   0  0  0  0  0  0  0  0  0  0  0  0
    6.4850   -5.0940    6.1320 C   0  0  0  0  0  3  0  0  0  0  0  0
    6.4080   -4.0920    7.1010 C   0  0  0  0  0  0  0  0  0  0  0  0
    7.7160   -8.3680   13.3290 C   0  0  0  0  0  0  0  0  0  0  0  0
    8.4520   -8.1900   12.1380 C   0  0  0  0  0  3  0  0  0  0  0  0
    8.1840   -7.1500   11.2350 C   0  0  0  0  0  3  0  0  0  0  0  0
    7.1540   -6.2300   11.4570 C   0  0  0  0  0  0  0  0  0  0  0  0
    6.3890   -6.4010   12.6080 C   0  0  0  0  0  3  0  0  0  0  0  0
    6.6720   -7.4350   13.5170 C   0  0  0  0  0  3  0  0  0  0  0  0
    7.7540  -12.9420   14.7540 C   0  0  0  0  0  1  0  0  0  0  0  0
    7.6030  -11.6450   13.9720 C   0  0  1  0  0  0  0  0  0  0  0  0
    6.8650  -10.5300   14.7570 C   0  0  0  0  0  2  0  0  0  0  0  0
    8.0070   -9.5350   14.4000 C   0  0  1  0  0  0  0  0  0  0  0  0
    8.8650  -10.7490   13.9440 C   0  0  0  0  0  2  0  0  0  0  0  0
    8.5590   -8.9390   15.6460 N   0  0  0  0  0  4  0  0  0  0  0  0
    9.4810   -8.5180   15.4780 H   0  0  0  0  0  0  0  0  0  0  0  0
    7.9370   -8.1980   15.9990 H   0  0  0  0  0  0  0  0  0  0  0  0
    8.6740   -9.6240   16.4020 H   0  0  0  0  0  0  0  0  0  0  0  0
    7.0310  -11.9240   12.6810 O   0  0  0  0  0  0  0  0  0  0  0  0
    7.5610  -12.6410   12.2850 H   0  0  0  0  0  0  0  0  0  0  0  0
    7.1730   -2.9170   11.7790 C   0  0  0  0  0  0  0  0  0  0  0  0
    6.3530   -1.8070   12.0100 C   0  0  0  0  0  3  0  0  0  0  0  0
    6.6020   -0.9660   13.0950 C   0  0  0  0  0  3  0  0  0  0  0  0
    7.6690   -1.2310   13.9530 C   0  0  0  0  0  3  0  0  0  0  0  0
    8.4880   -2.3360   13.7280 C   0  0  0  0  0  3  0  0  0  0  0  0
    8.2430   -3.1780   12.6430 C   0  0  0  0  0  3  0  0  0  0  0  0
    6.3890   -5.8840    3.7880 C   0  0  0  0  0  0  0  0  0  0  0  0
    7.5670   -6.5730    3.7240 N   0  0  0  0  0  0  0  0  0  0  0  0
    5.4470   -6.1930    3.0690 O   0  0  0  0  0  0  0  0  0  0  0  0
    7.6220   -7.3260    3.0490 H   0  0  0  0  0  0  0  0  0  0  0  0
    8.3530   -6.4350    4.3400 H   0  0  0  0  0  0  0  0  0  0  0  0
  1  5  2  0  0  0  0
  1 17  1  0  0  0  0
  2  1  1  0  0  0  0
  3  2  2  0  0  0  0
  3  4  1  0  0  0  0
  4  5  1  0  0  0  0
  5 31  1  0  0  0  0
  6  4  1  0  0  0  0
  7  6  1  0  0  0  0
  8 13  1  0  0  0  0
  8  7  1  0  0  0  0
  9  8  2  0  0  0  0
 10 11  2  0  0  0  0
 10  9  1  0  0  0  0
 11 12  1  0  0  0  0
 12 13  2  0  0  0  0
 13  3  1  0  0  0  0
 14 19  1  0  0  0  0
 14 23  1  0  0  0  0
 15 14  2  0  0  0  0
 16 17  2  0  0  0  0
 16 15  1  0  0  0  0
 17 18  1  0  0  0  0
 18 19  2  0  0  0  0
 21 20  1  1  0  0  0
 21 22  1  0  0  0  0
 23 22  1  0  0  0  0
 23 25  1  1  0  0  0
 24 21  1  0  0  0  0
 24 23  1  0  0  0  0
 25 27  1  0  0  0  0
 25 28  1  0  0  0  0
 26 25  1  0  0  0  0
 29 21  1  0  0  0  0
 30 29  1  0  0  0  0
 31 32  2  0  0  0  0
 31 36  1  0  0  0  0
 32 33  1  0  0  0  0
 33 34  2  0  0  0  0
 35 34  1  0  0  0  0
 36 35  2  0  0  0  0
 37 11  1  0  0  0  0
 38 37  1  0  0  0  0
 38 41  1  0  0  0  0
 39 37  2  0  0  0  0
 40 38  1  0  0  0  0
M  END
>  <minimizedAffinity>
-12.6203909

$$$$
