
 OpenBabel11232418503D

 41 46  0  0  1  0  0  0  0  0999 V2000
    8.1860   -6.4220   12.3450 C   0  0  0  0  0  0  0  0  0  0  0  0
    8.3150   -5.1450   12.8670 N   0  0  0  0  0  0  0  0  0  0  0  0
    7.8330   -4.3310   11.9590 C   0  0  0  0  0  0  0  0  0  0  0  0
    7.4090   -5.0240   10.8630 N   0  0  0  0  0  0  0  0  0  0  0  0
    7.5900   -6.3720   11.0860 C   0  0  0  0  0  0  0  0  0  0  0  0
    6.7220   -4.3640    9.7690 C   0  0  0  0  0  2  0  0  0  0  0  0
    7.0620   -2.9660    9.6360 O   0  0  0  0  0  0  0  0  0  0  0  0
    7.2840   -2.2710   10.7980 C   0  0  0  0  0  0  0  0  0  0  0  0
    7.1680   -0.8850   10.7430 C   0  0  0  0  0  3  0  0  0  0  0  0
    7.4100   -0.1190   11.8900 C   0  0  0  0  0  3  0  0  0  0  0  0
    7.7800   -0.7430   13.0900 C   0  0  0  0  0  0  0  0  0  0  0  0
    7.9330   -2.1360   13.1270 C   0  0  0  0  0  3  0  0  0  0  0  0
    7.6840   -2.8960   11.9830 C   0  0  0  0  0  0  0  0  0  0  0  0
    9.3600   -9.8260   14.7970 C   0  0  0  0  0  0  0  0  0  0  0  0
    8.5480   -8.7700   15.2650 C   0  0  0  0  0  3  0  0  0  0  0  0
    8.1800   -7.6860   14.4540 C   0  0  0  0  0  3  0  0  0  0  0  0
    8.6110   -7.5800   13.1280 C   0  0  0  0  0  0  0  0  0  0  0  0
    9.4410   -8.5890   12.6480 C   0  0  0  0  0  3  0  0  0  0  0  0
    9.7950   -9.6810   13.4600 C   0  0  0  0  0  3  0  0  0  0  0  0
   11.1770  -11.8610   18.7350 C   0  0  0  0  0  1  0  0  0  0  0  0
   10.6730  -10.8860   17.6810 C   0  0  1  0  0  0  0  0  0  0  0  0
   11.2320  -11.1630   16.2610 C   0  0  0  0  0  2  0  0  0  0  0  0
    9.7870  -11.0970   15.6890 C   0  0  1  0  0  0  0  0  0  0  0  0
    9.2500  -11.1810   17.1460 C   0  0  0  0  0  2  0  0  0  0  0  0
    9.4850  -12.3490   14.9450 N   0  0  0  0  0  4  0  0  0  0  0  0
    8.4730  -12.4660   14.8100 H   0  0  0  0  0  0  0  0  0  0  0  0
    9.9230  -12.3310   14.0140 H   0  0  0  0  0  0  0  0  0  0  0  0
    9.8240  -13.1920   15.4230 H   0  0  0  0  0  0  0  0  0  0  0  0
   10.8800   -9.5350   18.1340 O   0  0  0  0  0  0  0  0  0  0  0  0
   10.5040   -9.4760   19.0330 H   0  0  0  0  0  0  0  0  0  0  0  0
    7.1380   -7.3900   10.1490 C   0  0  0  0  0  0  0  0  0  0  0  0
    6.3050   -8.4280   10.5800 C   0  0  0  0  0  3  0  0  0  0  0  0
    5.8850   -9.4080    9.6810 C   0  0  0  0  0  3  0  0  0  0  0  0
    6.2940   -9.3540    8.3480 C   0  0  0  0  0  3  0  0  0  0  0  0
    7.1230   -8.3210    7.9140 C   0  0  0  0  0  3  0  0  0  0  0  0
    7.5460   -7.3410    8.8120 C   0  0  0  0  0  3  0  0  0  0  0  0
    8.0440    0.0180   14.3420 C   0  0  0  0  0  0  0  0  0  0  0  0
    7.9650   -0.6550   15.5280 N   0  0  0  0  0  0  0  0  0  0  0  0
    8.3540    1.2020   14.3180 O   0  0  0  0  0  0  0  0  0  0  0  0
    8.1550   -0.1250   16.3710 H   0  0  0  0  0  0  0  0  0  0  0  0
    7.8020   -1.6460   15.6220 H   0  0  0  0  0  0  0  0  0  0  0  0
  1  2  1  0  0  0  0
  1 17  1  0  0  0  0
  3 13  1  0  0  0  0
  3  2  2  0  0  0  0
  4  5  1  0  0  0  0
  4  3  1  0  0  0  0
  5  1  2  0  0  0  0
  6  4  1  0  0  0  0
  7  6  1  0  0  0  0
  7  8  1  0  0  0  0
  8 13  1  0  0  0  0
  9  8  2  0  0  0  0
  9 10  1  0  0  0  0
 10 11  2  0  0  0  0
 11 12  1  0  0  0  0
 11 37  1  0  0  0  0
 13 12  2  0  0  0  0
 14 15  1  0  0  0  0
 14 23  1  0  0  0  0
 16 15  2  0  0  0  0
 17 16  1  0  0  0  0
 18 17  2  0  0  0  0
 18 19  1  0  0  0  0
 19 14  2  0  0  0  0
 21 29  1  0  0  0  0
 21 20  1  1  0  0  0
 22 21  1  0  0  0  0
 23 25  1  6  0  0  0
 23 22  1  0  0  0  0
 23 24  1  0  0  0  0
 24 21  1  0  0  0  0
 25 28  1  0  0  0  0
 26 25  1  0  0  0  0
 27 25  1  0  0  0  0
 29 30  1  0  0  0  0
 31 32  1  0  0  0  0
 31  5  1  0  0  0  0
 33 32  2  0  0  0  0
 34 33  1  0  0  0  0
 35 34  2  0  0  0  0
 35 36  1  0  0  0  0
 36 31  2  0  0  0  0
 37 38  1  0  0  0  0
 38 41  1  0  0  0  0
 38 40  1  0  0  0  0
 39 37  2  0  0  0  0
M  END
>  <minimizedAffinity>
-12.7569046

$$$$
