
 OpenBabel11232418503D

 41 46  0  0  1  0  0  0  0  0999 V2000
    7.6120   -6.7220   11.7480 C   0  0  0  0  0  0  0  0  0  0  0  0
    7.6510   -5.5280   12.4510 N   0  0  0  0  0  0  0  0  0  0  0  0
    7.3880   -4.5840   11.5780 C   0  0  0  0  0  0  0  0  0  0  0  0
    7.1940   -5.1140   10.3370 N   0  0  0  0  0  0  0  0  0  0  0  0
    7.2980   -6.4860   10.4120 C   0  0  0  0  0  0  0  0  0  0  0  0
    6.7670   -4.2910    9.2210 C   0  0  0  0  0  2  0  0  0  0  0  0
    7.1540   -2.9040    9.3480 O   0  0  0  0  0  0  0  0  0  0  0  0
    7.1370   -2.3720   10.6130 C   0  0  0  0  0  0  0  0  0  0  0  0
    7.0610   -0.9860   10.7200 C   0  0  0  0  0  3  0  0  0  0  0  0
    7.0680   -0.3830   11.9830 C   0  0  0  0  0  3  0  0  0  0  0  0
    7.1630   -1.1690   13.1400 C   0  0  0  0  0  0  0  0  0  0  0  0
    7.2790   -2.5610   13.0230 C   0  0  0  0  0  3  0  0  0  0  0  0
    7.2640   -3.1590   11.7620 C   0  0  0  0  0  0  0  0  0  0  0  0
    8.4380  -10.4930   13.7670 C   0  0  0  0  0  0  0  0  0  0  0  0
    9.3640   -9.8400   12.9250 C   0  0  0  0  0  3  0  0  0  0  0  0
    9.0760   -8.6220   12.2890 C   0  0  0  0  0  3  0  0  0  0  0  0
    7.8390   -7.9880   12.4420 C   0  0  0  0  0  0  0  0  0  0  0  0
    6.8930   -8.6250   13.2400 C   0  0  0  0  0  3  0  0  0  0  0  0
    7.1920   -9.8370   13.8870 C   0  0  0  0  0  3  0  0  0  0  0  0
    7.3630  -14.9830   15.0460 C   0  0  0  0  0  1  0  0  0  0  0  0
    7.3680  -13.5840   14.4440 C   0  0  1  0  0  0  0  0  0  0  0  0
    7.6530  -12.4650   15.4790 C   0  0  0  0  0  2  0  0  0  0  0  0
    8.7380  -11.8780   14.5310 C   0  0  1  0  0  0  0  0  0  0  0  0
    8.6740  -13.1960   13.7080 C   0  0  0  0  0  2  0  0  0  0  0  0
   10.0330  -11.7740   15.2570 N   0  0  0  0  0  4  0  0  0  0  0  0
   10.8180  -11.6740   14.6020 H   0  0  0  0  0  0  0  0  0  0  0  0
   10.0360  -10.9520   15.8750 H   0  0  0  0  0  0  0  0  0  0  0  0
   10.2320  -12.5940   15.8420 H   0  0  0  0  0  0  0  0  0  0  0  0
    6.1630  -13.3820   13.6830 O   0  0  0  0  0  0  0  0  0  0  0  0
    6.0770  -14.1430   13.0790 H   0  0  0  0  0  0  0  0  0  0  0  0
    7.0360   -7.3560    9.2740 C   0  0  0  0  0  0  0  0  0  0  0  0
    6.4360   -8.6060    9.4630 C   0  0  0  0  0  3  0  0  0  0  0  0
    6.1980   -9.4410    8.3710 C   0  0  0  0  0  3  0  0  0  0  0  0
    6.5580   -9.0310    7.0870 C   0  0  0  0  0  3  0  0  0  0  0  0
    7.1560   -7.7860    6.8940 C   0  0  0  0  0  3  0  0  0  0  0  0
    7.3960   -6.9500    7.9850 C   0  0  0  0  0  3  0  0  0  0  0  0
    7.1700   -0.5850   14.5090 C   0  0  0  0  0  0  0  0  0  0  0  0
    8.0150    0.4600   14.7550 N   0  0  0  0  0  0  0  0  0  0  0  0
    6.4230   -1.0010   15.3860 O   0  0  0  0  0  0  0  0  0  0  0  0
    8.0030    0.8510   15.6900 H   0  0  0  0  0  0  0  0  0  0  0  0
    8.5940    0.9110   14.0630 H   0  0  0  0  0  0  0  0  0  0  0  0
  1 17  1  0  0  0  0
  1  2  1  0  0  0  0
  3 13  1  0  0  0  0
  3  2  2  0  0  0  0
  4  5  1  0  0  0  0
  4  3  1  0  0  0  0
  5  1  2  0  0  0  0
  6  7  1  0  0  0  0
  6  4  1  0  0  0  0
  7  8  1  0  0  0  0
  8  9  2  0  0  0  0
  8 13  1  0  0  0  0
  9 10  1  0  0  0  0
 10 11  2  0  0  0  0
 11 37  1  0  0  0  0
 12 11  1  0  0  0  0
 13 12  2  0  0  0  0
 14 19  1  0  0  0  0
 14 23  1  0  0  0  0
 15 14  2  0  0  0  0
 16 17  2  0  0  0  0
 16 15  1  0  0  0  0
 17 18  1  0  0  0  0
 18 19  2  0  0  0  0
 21 20  1  1  0  0  0
 21 22  1  0  0  0  0
 23 25  1  1  0  0  0
 23 22  1  0  0  0  0
 24 21  1  0  0  0  0
 24 23  1  0  0  0  0
 25 28  1  0  0  0  0
 25 27  1  0  0  0  0
 26 25  1  0  0  0  0
 29 21  1  0  0  0  0
 30 29  1  0  0  0  0
 31 32  1  0  0  0  0
 31  5  1  0  0  0  0
 33 32  2  0  0  0  0
 34 33  1  0  0  0  0
 35 34  2  0  0  0  0
 35 36  1  0  0  0  0
 36 31  2  0  0  0  0
 37 38  1  0  0  0  0
 37 39  2  0  0  0  0
 38 40  1  0  0  0  0
 41 38  1  0  0  0  0
M  END
>  <minimizedAffinity>
-11.6645784

$$$$
