
 OpenBabel11232419533D

 36 40  0  0  1  0  0  0  0  0999 V2000
   -9.8310   -9.7500    8.2730 C   0  0  0  0  0  0  0  0  0  0  0  0
   -9.7750  -10.9920    8.8610 C   0  0  0  0  0  3  0  0  0  0  0  0
   -8.5100  -11.0930    9.3870 N   0  0  0  0  0  0  0  0  0  0  0  0
   -7.8740   -9.8870    9.1850 C   0  0  0  0  0  0  0  0  0  0  0  0
   -8.6290   -9.1100    8.4350 N   0  0  0  0  0  0  0  0  0  0  0  0
  -14.7770   -9.2900    7.4830 C   0  0  0  0  0  1  0  0  0  0  0  0
  -13.3570   -8.9350    7.1550 C   0  0  0  0  0  0  0  0  0  0  0  0
  -12.2860   -9.5270    7.8440 C   0  0  0  0  0  3  0  0  0  0  0  0
  -10.9580   -9.1580    7.5680 C   0  0  0  0  0  0  0  0  0  0  0  0
  -10.7190   -8.1700    6.6020 C   0  0  0  0  0  3  0  0  0  0  0  0
  -11.7780   -7.5690    5.9180 C   0  0  0  0  0  3  0  0  0  0  0  0
  -13.0830   -7.9520    6.2020 C   0  0  0  0  0  0  0  0  0  0  0  0
  -14.0890   -7.3560    5.5490 F   0  0  0  0  0  0  0  0  0  0  0  0
   -6.5160   -9.5110    9.7230 C   0  0  2  0  0  3  0  0  0  0  0  0
   -6.5120   -9.5070   11.2590 C   0  0  0  0  0  2  0  0  0  0  0  0
   -7.1320   -8.2370   11.8450 C   0  0  0  0  0  2  0  0  0  0  0  0
   -6.5430   -7.0430   11.2460 N   0  0  0  0  0  0  0  0  0  0  0  0
   -6.6510   -6.9470    9.7930 C   0  0  0  0  0  2  0  0  0  0  0  0
   -6.0090   -8.1770    9.1430 C   0  0  0  0  0  2  0  0  0  0  0  0
   -5.4180   -6.4860   11.8490 C   0  0  0  0  0  0  0  0  0  0  0  0
   -4.2230   -7.0280   11.5310 N   0  0  0  0  0  0  0  0  0  0  0  0
   -3.1360   -6.4740   12.0840 C   0  0  0  0  0  3  0  0  0  0  0  0
   -3.1150   -5.4340   12.9210 N   0  0  0  0  0  0  0  0  0  0  0  0
   -4.3080   -4.9270   13.2620 C   0  0  0  0  0  0  0  0  0  0  0  0
   -4.2520   -3.8380   14.1170 N   0  0  0  0  0  0  0  0  0  0  0  0
   -5.5040   -5.4170   12.7440 C   0  0  0  0  0  0  0  0  0  0  0  0
   -7.1660   -4.7100   13.3490 Br  0  0  0  0  0  0  0  0  0  0  0  0
   -3.3150   -3.6080   14.4200 H   0  0  0  0  0  0  0  0  0  0  0  0
   -5.0010   -3.7320   14.7880 H   0  0  0  0  0  0  0  0  0  0  0  0
   -8.0020  -12.2720   10.0530 C   0  0  0  0  0  2  0  0  0  0  0  0
   -7.3550  -13.3170    9.1230 C   0  0  0  0  0  2  0  0  0  0  0  0
   -7.0960  -13.0130    7.6860 N   0  0  0  0  0  4  0  0  0  0  0  0
   -5.7710  -12.4520    7.3680 C   0  0  0  0  0  2  0  0  0  0  0  0
   -5.7820  -13.3130    6.0950 C   0  0  0  0  0  2  0  0  0  0  0  0
   -6.8430  -14.1650    6.8090 C   0  0  0  0  0  2  0  0  0  0  0  0
   -7.8440  -12.4090    7.3100 H   0  0  0  0  0  0  0  0  0  0  0  0
  1  5  1  0  0  0  0
  1  2  2  0  0  0  0
  2  3  1  0  0  0  0
  3 30  1  0  0  0  0
  4  3  1  0  0  0  0
  5  4  2  0  0  0  0
  7  6  1  0  0  0  0
  7  8  1  0  0  0  0
  9  8  2  0  0  0  0
  9  1  1  0  0  0  0
 10  9  1  0  0  0  0
 11 12  1  0  0  0  0
 11 10  2  0  0  0  0
 12  7  2  0  0  0  0
 13 12  1  0  0  0  0
 14  4  1  1  0  0  0
 14 15  1  0  0  0  0
 15 16  1  0  0  0  0
 17 16  1  0  0  0  0
 17 20  1  0  0  0  0
 18 17  1  0  0  0  0
 19 14  1  0  0  0  0
 19 18  1  0  0  0  0
 20 26  1  0  0  0  0
 21 20  2  0  0  0  0
 21 22  1  0  0  0  0
 22 23  2  0  0  0  0
 23 24  1  0  0  0  0
 24 25  1  0  0  0  0
 25 28  1  0  0  0  0
 25 29  1  0  0  0  0
 26 24  2  0  0  0  0
 26 27  1  0  0  0  0
 31 30  1  0  0  0  0
 32 31  1  0  0  0  0
 33 32  1  0  0  0  0
 34 35  1  0  0  0  0
 34 33  1  0  0  0  0
 35 32  1  0  0  0  0
 36 32  1  0  0  0  0
M  END
>  <minimizedAffinity>
-5.61207199

$$$$
