
 OpenBabel11232419533D

 36 40  0  0  1  0  0  0  0  0999 V2000
  -10.0370   -9.5090    8.1550 C   0  0  0  0  0  0  0  0  0  0  0  0
   -9.9290  -10.8160    8.5700 C   0  0  0  0  0  3  0  0  0  0  0  0
   -8.6400  -10.9520    9.0240 N   0  0  0  0  0  0  0  0  0  0  0  0
   -8.0380   -9.7130    8.9570 C   0  0  0  0  0  0  0  0  0  0  0  0
   -8.8410   -8.8650    8.3510 N   0  0  0  0  0  0  0  0  0  0  0  0
  -14.9060   -8.2630    8.3360 C   0  0  0  0  0  1  0  0  0  0  0  0
  -13.5760   -8.2600    7.6430 C   0  0  0  0  0  0  0  0  0  0  0  0
  -12.4640   -8.9030    8.2110 C   0  0  0  0  0  3  0  0  0  0  0  0
  -11.2060   -8.8580    7.5850 C   0  0  0  0  0  0  0  0  0  0  0  0
  -11.0740   -8.1430    6.3850 C   0  0  0  0  0  3  0  0  0  0  0  0
  -12.1730   -7.4920    5.8180 C   0  0  0  0  0  3  0  0  0  0  0  0
  -13.4080   -7.5530    6.4510 C   0  0  0  0  0  0  0  0  0  0  0  0
  -14.4490   -6.9120    5.9020 F   0  0  0  0  0  0  0  0  0  0  0  0
   -6.6650   -9.3770    9.4830 C   0  0  2  0  0  3  0  0  0  0  0  0
   -6.6180   -9.4830   11.0150 C   0  0  0  0  0  2  0  0  0  0  0  0
   -7.2190   -8.2580   11.7070 C   0  0  0  0  0  2  0  0  0  0  0  0
   -6.6450   -7.0250   11.1790 N   0  0  0  0  0  0  0  0  0  0  0  0
   -6.7930   -6.8250    9.7400 C   0  0  0  0  0  2  0  0  0  0  0  0
   -6.1720   -8.0050    8.9870 C   0  0  0  0  0  2  0  0  0  0  0  0
   -5.5030   -6.5120   11.7890 C   0  0  0  0  0  0  0  0  0  0  0  0
   -4.3270   -7.0950   11.4730 N   0  0  0  0  0  0  0  0  0  0  0  0
   -3.2230   -6.5850   12.0330 C   0  0  0  0  0  3  0  0  0  0  0  0
   -3.1670   -5.5500   12.8750 N   0  0  0  0  0  0  0  0  0  0  0  0
   -4.3420   -5.0010   13.2140 C   0  0  0  0  0  0  0  0  0  0  0  0
   -4.2500   -3.9190   14.0740 N   0  0  0  0  0  0  0  0  0  0  0  0
   -5.5530   -5.4440   12.6900 C   0  0  0  0  0  0  0  0  0  0  0  0
   -7.1900   -4.6800   13.2920 Br  0  0  0  0  0  0  0  0  0  0  0  0
   -3.3060   -3.7250   14.3820 H   0  0  0  0  0  0  0  0  0  0  0  0
   -4.9970   -3.7890   14.7430 H   0  0  0  0  0  0  0  0  0  0  0  0
   -8.0770  -12.1950    9.5050 C   0  0  0  0  0  2  0  0  0  0  0  0
   -9.0140  -13.0300   10.4000 C   0  0  0  0  0  2  0  0  0  0  0  0
   -8.9590  -12.9180   11.8860 N   0  0  0  0  0  4  0  0  0  0  0  0
   -7.6160  -12.7830   12.4790 C   0  0  0  0  0  2  0  0  0  0  0  0
   -8.2270  -11.7880   13.4790 C   0  0  0  0  0  2  0  0  0  0  0  0
   -9.3660  -11.6270   12.4600 C   0  0  0  0  0  2  0  0  0  0  0  0
   -9.4700  -13.7020   12.3210 H   0  0  0  0  0  0  0  0  0  0  0  0
  1  5  1  0  0  0  0
  1  2  2  0  0  0  0
  2  3  1  0  0  0  0
  3 30  1  0  0  0  0
  4  3  1  0  0  0  0
  5  4  2  0  0  0  0
  7  8  1  0  0  0  0
  7  6  1  0  0  0  0
  9  1  1  0  0  0  0
  9  8  2  0  0  0  0
 10  9  1  0  0  0  0
 11 10  2  0  0  0  0
 11 12  1  0  0  0  0
 12  7  2  0  0  0  0
 13 12  1  0  0  0  0
 14  4  1  1  0  0  0
 14 15  1  0  0  0  0
 15 16  1  0  0  0  0
 17 16  1  0  0  0  0
 17 20  1  0  0  0  0
 18 17  1  0  0  0  0
 19 14  1  0  0  0  0
 19 18  1  0  0  0  0
 20 26  1  0  0  0  0
 21 20  2  0  0  0  0
 21 22  1  0  0  0  0
 22 23  2  0  0  0  0
 23 24  1  0  0  0  0
 24 25  1  0  0  0  0
 25 28  1  0  0  0  0
 25 29  1  0  0  0  0
 26 24  2  0  0  0  0
 26 27  1  0  0  0  0
 30 31  1  0  0  0  0
 31 32  1  0  0  0  0
 32 36  1  0  0  0  0
 32 35  1  0  0  0  0
 32 33  1  0  0  0  0
 33 34  1  0  0  0  0
 35 34  1  0  0  0  0
M  END
>  <minimizedAffinity>
-5.0150466

$$$$
