
 OpenBabel11232419533D

 36 40  0  0  1  0  0  0  0  0999 V2000
   -6.5800  -12.0530    7.9840 C   0  0  0  0  0  0  0  0  0  0  0  0
   -5.5890  -11.3340    8.6120 C   0  0  0  0  0  3  0  0  0  0  0  0
   -6.2070  -10.2140    9.1110 N   0  0  0  0  0  0  0  0  0  0  0  0
   -7.5570  -10.3300    8.8540 C   0  0  0  0  0  0  0  0  0  0  0  0
   -7.7730  -11.3850    8.0970 N   0  0  0  0  0  0  0  0  0  0  0  0
   -7.4150  -17.0010    7.6500 C   0  0  0  0  0  1  0  0  0  0  0  0
   -6.8190  -15.7320    7.1170 C   0  0  0  0  0  0  0  0  0  0  0  0
   -6.9590  -14.5200    7.8130 C   0  0  0  0  0  3  0  0  0  0  0  0
   -6.4420  -13.3230    7.2880 C   0  0  0  0  0  0  0  0  0  0  0  0
   -5.7960  -13.3550    6.0430 C   0  0  0  0  0  3  0  0  0  0  0  0
   -5.6610  -14.5540    5.3400 C   0  0  0  0  0  3  0  0  0  0  0  0
   -6.1750  -15.7270    5.8790 C   0  0  0  0  0  0  0  0  0  0  0  0
   -6.0500  -16.8670    5.1850 F   0  0  0  0  0  0  0  0  0  0  0  0
   -8.6260   -9.3870    9.3470 C   0  0  2  0  0  3  0  0  0  0  0  0
   -9.1170   -9.7910   10.7460 C   0  0  0  0  0  2  0  0  0  0  0  0
  -10.1110  -10.9530   10.7080 C   0  0  0  0  0  2  0  0  0  0  0  0
  -11.1850  -10.6910    9.7550 N   0  0  0  0  0  0  0  0  0  0  0  0
  -10.7620  -10.4380    8.3800 C   0  0  0  0  0  2  0  0  0  0  0  0
   -9.7900   -9.2540    8.3470 C   0  0  0  0  0  2  0  0  0  0  0  0
  -12.3290  -10.0400   10.2090 C   0  0  0  0  0  0  0  0  0  0  0  0
  -12.2650   -8.6950   10.3130 N   0  0  0  0  0  0  0  0  0  0  0  0
  -13.3740   -8.0620   10.7200 C   0  0  0  0  0  3  0  0  0  0  0  0
  -14.5420   -8.6300   11.0310 N   0  0  0  0  0  0  0  0  0  0  0  0
  -14.5840   -9.9680   10.9620 C   0  0  0  0  0  0  0  0  0  0  0  0
  -15.8140  -10.5250   11.2720 N   0  0  0  0  0  0  0  0  0  0  0  0
  -13.4970  -10.7300   10.5460 C   0  0  0  0  0  0  0  0  0  0  0  0
  -13.6010  -12.6310   10.5650 Br  0  0  0  0  0  0  0  0  0  0  0  0
  -16.5030   -9.8470   11.5720 H   0  0  0  0  0  0  0  0  0  0  0  0
  -15.8160  -11.4280   11.7280 H   0  0  0  0  0  0  0  0  0  0  0  0
   -5.5160   -9.1480    9.8030 C   0  0  0  0  0  2  0  0  0  0  0  0
   -5.4710   -7.8040    9.0490 C   0  0  0  0  0  2  0  0  0  0  0  0
   -6.1290   -6.5880    9.6050 N   0  0  0  0  0  4  0  0  0  0  0  0
   -5.6080   -6.0990   10.8940 C   0  0  0  0  0  2  0  0  0  0  0  0
   -5.7990   -4.6710   10.3580 C   0  0  0  0  0  2  0  0  0  0  0  0
   -5.7930   -5.3100    8.9600 C   0  0  0  0  0  2  0  0  0  0  0  0
   -7.1500   -6.7270    9.6560 H   0  0  0  0  0  0  0  0  0  0  0  0
  1  5  1  0  0  0  0
  1  2  2  0  0  0  0
  2  3  1  0  0  0  0
  3 30  1  0  0  0  0
  4  3  1  0  0  0  0
  5  4  2  0  0  0  0
  7  6  1  0  0  0  0
  7  8  1  0  0  0  0
  9  8  2  0  0  0  0
  9  1  1  0  0  0  0
 10  9  1  0  0  0  0
 11 12  1  0  0  0  0
 11 10  2  0  0  0  0
 12  7  2  0  0  0  0
 13 12  1  0  0  0  0
 14  4  1  6  0  0  0
 14 15  1  0  0  0  0
 16 15  1  0  0  0  0
 17 20  1  0  0  0  0
 17 16  1  0  0  0  0
 18 17  1  0  0  0  0
 19 18  1  0  0  0  0
 19 14  1  0  0  0  0
 20 21  2  0  0  0  0
 20 26  1  0  0  0  0
 21 22  1  0  0  0  0
 22 23  2  0  0  0  0
 24 23  1  0  0  0  0
 24 25  1  0  0  0  0
 25 28  1  0  0  0  0
 25 29  1  0  0  0  0
 26 27  1  0  0  0  0
 26 24  2  0  0  0  0
 31 32  1  0  0  0  0
 31 30  1  0  0  0  0
 32 36  1  0  0  0  0
 32 33  1  0  0  0  0
 34 33  1  0  0  0  0
 35 32  1  0  0  0  0
 35 34  1  0  0  0  0
M  END
>  <minimizedAffinity>
-5.24936914

$$$$
