
 OpenBabel11232419533D

 36 40  0  0  1  0  0  0  0  0999 V2000
   -7.3950   -8.7510    9.3510 C   0  0  0  0  0  0  0  0  0  0  0  0
   -6.6310   -9.8400    8.9980 C   0  0  0  0  0  3  0  0  0  0  0  0
   -7.5200  -10.8740    8.8320 N   0  0  0  0  0  0  0  0  0  0  0  0
   -8.7910  -10.3660    8.9990 C   0  0  0  0  0  0  0  0  0  0  0  0
   -8.7170   -9.1150    9.4010 N   0  0  0  0  0  0  0  0  0  0  0  0
   -6.7590   -4.9100   12.5350 C   0  0  0  0  0  1  0  0  0  0  0  0
   -6.6290   -5.5190   11.1700 C   0  0  0  0  0  0  0  0  0  0  0  0
   -7.0950   -6.8180   10.9110 C   0  0  0  0  0  3  0  0  0  0  0  0
   -6.9280   -7.4040    9.6440 C   0  0  0  0  0  0  0  0  0  0  0  0
   -6.2700   -6.6750    8.6430 C   0  0  0  0  0  3  0  0  0  0  0  0
   -5.7950   -5.3860    8.8950 C   0  0  0  0  0  3  0  0  0  0  0  0
   -5.9740   -4.8220   10.1530 C   0  0  0  0  0  0  0  0  0  0  0  0
   -5.5000   -3.5910   10.3830 F   0  0  0  0  0  0  0  0  0  0  0  0
  -10.0740  -11.1250    8.7710 C   0  0  2  0  0  3  0  0  0  0  0  0
  -11.1310  -10.2360    8.0980 C   0  0  0  0  0  2  0  0  0  0  0  0
  -11.8230   -9.2950    9.0850 C   0  0  0  0  0  2  0  0  0  0  0  0
  -12.3170  -10.0270   10.2470 N   0  0  0  0  0  0  0  0  0  0  0  0
  -11.3110  -10.7770   10.9950 C   0  0  0  0  0  2  0  0  0  0  0  0
  -10.6060  -11.7690   10.0650 C   0  0  0  0  0  2  0  0  0  0  0  0
  -13.6080  -10.5450   10.2030 C   0  0  0  0  0  0  0  0  0  0  0  0
  -13.7760  -11.7140    9.5480 N   0  0  0  0  0  0  0  0  0  0  0  0
  -15.0110  -12.2320    9.5310 C   0  0  0  0  0  3  0  0  0  0  0  0
  -16.0990  -11.7080   10.1010 N   0  0  0  0  0  0  0  0  0  0  0  0
  -15.9320  -10.5280   10.7150 C   0  0  0  0  0  0  0  0  0  0  0  0
  -17.0730  -10.0190   11.3120 N   0  0  0  0  0  0  0  0  0  0  0  0
  -14.6930   -9.8990   10.8030 C   0  0  0  0  0  0  0  0  0  0  0  0
  -14.5510   -8.1790   11.6070 Br  0  0  0  0  0  0  0  0  0  0  0  0
  -17.9000  -10.5790   11.1500 H   0  0  0  0  0  0  0  0  0  0  0  0
  -17.1840   -9.0140   11.3270 H   0  0  0  0  0  0  0  0  0  0  0  0
   -7.1330  -12.2300    8.5100 C   0  0  0  0  0  2  0  0  0  0  0  0
   -6.0900  -12.8520    9.4590 C   0  0  0  0  0  2  0  0  0  0  0  0
   -6.4930  -13.4220   10.7770 N   0  0  0  0  0  4  0  0  0  0  0  0
   -6.9840  -12.4580   11.7790 C   0  0  0  0  0  2  0  0  0  0  0  0
   -8.0210  -13.5140   12.1930 C   0  0  0  0  0  2  0  0  0  0  0  0
   -7.7720  -14.1450   10.8150 C   0  0  0  0  0  2  0  0  0  0  0  0
   -5.7260  -13.9910   11.1680 H   0  0  0  0  0  0  0  0  0  0  0  0
  1  5  1  0  0  0  0
  1  9  1  0  0  0  0
  2  1  2  0  0  0  0
  3  2  1  0  0  0  0
  3  4  1  0  0  0  0
  4  5  2  0  0  0  0
  7  6  1  0  0  0  0
  8  7  1  0  0  0  0
  9  8  2  0  0  0  0
 10 11  2  0  0  0  0
 10  9  1  0  0  0  0
 11 12  1  0  0  0  0
 12 13  1  0  0  0  0
 12  7  2  0  0  0  0
 14  4  1  1  0  0  0
 14 19  1  0  0  0  0
 15 14  1  0  0  0  0
 15 16  1  0  0  0  0
 16 17  1  0  0  0  0
 17 18  1  0  0  0  0
 19 18  1  0  0  0  0
 20 17  1  0  0  0  0
 20 26  1  0  0  0  0
 21 20  2  0  0  0  0
 22 21  1  0  0  0  0
 22 23  2  0  0  0  0
 23 24  1  0  0  0  0
 24 26  2  0  0  0  0
 24 25  1  0  0  0  0
 25 29  1  0  0  0  0
 26 27  1  0  0  0  0
 28 25  1  0  0  0  0
 30  3  1  0  0  0  0
 30 31  1  0  0  0  0
 31 32  1  0  0  0  0
 32 35  1  0  0  0  0
 32 36  1  0  0  0  0
 32 33  1  0  0  0  0
 33 34  1  0  0  0  0
 35 34  1  0  0  0  0
M  END
>  <minimizedAffinity>
-4.90710878

$$$$
