
 OpenBabel11232419533D

 36 40  0  0  1  0  0  0  0  0999 V2000
   -7.5860  -12.6390    8.3870 C   0  0  0  0  0  0  0  0  0  0  0  0
   -8.5950  -12.9510    9.2690 C   0  0  0  0  0  3  0  0  0  0  0  0
   -8.8870  -11.7790    9.9230 N   0  0  0  0  0  0  0  0  0  0  0  0
   -8.1190  -10.7820    9.3600 C   0  0  0  0  0  0  0  0  0  0  0  0
   -7.2710  -11.3080    8.5020 N   0  0  0  0  0  0  0  0  0  0  0  0
   -6.7660  -17.2430    6.5360 C   0  0  0  0  0  1  0  0  0  0  0  0
   -6.4880  -15.7690    6.5590 C   0  0  0  0  0  0  0  0  0  0  0  0
   -7.1420  -14.9240    7.4710 C   0  0  0  0  0  3  0  0  0  0  0  0
   -6.9160  -13.5370    7.4590 C   0  0  0  0  0  0  0  0  0  0  0  0
   -6.0360  -13.0040    6.5050 C   0  0  0  0  0  3  0  0  0  0  0  0
   -5.3890  -13.8360    5.5890 C   0  0  0  0  0  3  0  0  0  0  0  0
   -5.6220  -15.2050    5.6210 C   0  0  0  0  0  0  0  0  0  0  0  0
   -5.0040  -15.9880    4.7260 F   0  0  0  0  0  0  0  0  0  0  0  0
   -8.2190   -9.3120    9.6830 C   0  0  2  0  0  3  0  0  0  0  0  0
   -7.2720   -8.4860    8.8000 C   0  0  0  0  0  2  0  0  0  0  0  0
   -5.8240   -8.5290    9.2910 C   0  0  0  0  0  2  0  0  0  0  0  0
   -5.7430   -8.2070   10.7120 N   0  0  0  0  0  0  0  0  0  0  0  0
   -6.5270   -9.0620   11.5990 C   0  0  0  0  0  2  0  0  0  0  0  0
   -8.0000   -9.0290   11.1810 C   0  0  0  0  0  2  0  0  0  0  0  0
   -5.5770   -6.8740   11.0800 C   0  0  0  0  0  0  0  0  0  0  0  0
   -6.3090   -5.9590   10.4090 N   0  0  0  0  0  0  0  0  0  0  0  0
   -6.1750   -4.6790   10.7810 C   0  0  0  0  0  3  0  0  0  0  0  0
   -5.3890   -4.2150   11.7560 N   0  0  0  0  0  0  0  0  0  0  0  0
   -4.6370   -5.1250   12.3900 C   0  0  0  0  0  0  0  0  0  0  0  0
   -3.8460   -4.6150   13.4070 N   0  0  0  0  0  0  0  0  0  0  0  0
   -4.6970   -6.4830   12.0930 C   0  0  0  0  0  0  0  0  0  0  0  0
   -3.5280   -7.7050   12.9700 Br  0  0  0  0  0  0  0  0  0  0  0  0
   -3.8970   -3.6090   13.4950 H   0  0  0  0  0  0  0  0  0  0  0  0
   -2.9500   -5.0550   13.5680 H   0  0  0  0  0  0  0  0  0  0  0  0
   -9.8620  -11.6670   10.9860 C   0  0  0  0  0  2  0  0  0  0  0  0
  -11.3090  -12.0070   10.5810 C   0  0  0  0  0  2  0  0  0  0  0  0
  -12.2420  -10.9490   10.0980 N   0  0  0  0  0  4  0  0  0  0  0  0
  -11.7970   -9.5560   10.2810 C   0  0  0  0  0  2  0  0  0  0  0  0
  -12.4100   -9.2460    8.9070 C   0  0  0  0  0  2  0  0  0  0  0  0
  -12.3160  -10.7560    8.6430 C   0  0  0  0  0  2  0  0  0  0  0  0
  -13.1790  -11.0860   10.5090 H   0  0  0  0  0  0  0  0  0  0  0  0
  1  5  1  0  0  0  0
  1  2  2  0  0  0  0
  2  3  1  0  0  0  0
  3 30  1  0  0  0  0
  4  3  1  0  0  0  0
  5  4  2  0  0  0  0
  6  7  1  0  0  0  0
  7  8  1  0  0  0  0
  9  8  2  0  0  0  0
  9  1  1  0  0  0  0
 10  9  1  0  0  0  0
 11 12  1  0  0  0  0
 11 10  2  0  0  0  0
 12  7  2  0  0  0  0
 13 12  1  0  0  0  0
 14  4  1  1  0  0  0
 14 19  1  0  0  0  0
 15 16  1  0  0  0  0
 15 14  1  0  0  0  0
 16 17  1  0  0  0  0
 17 20  1  0  0  0  0
 17 18  1  0  0  0  0
 19 18  1  0  0  0  0
 20 26  1  0  0  0  0
 21 22  1  0  0  0  0
 21 20  2  0  0  0  0
 22 23  2  0  0  0  0
 23 24  1  0  0  0  0
 24 25  1  0  0  0  0
 25 28  1  0  0  0  0
 25 29  1  0  0  0  0
 26 24  2  0  0  0  0
 26 27  1  0  0  0  0
 31 30  1  0  0  0  0
 32 33  1  0  0  0  0
 32 36  1  0  0  0  0
 32 31  1  0  0  0  0
 34 33  1  0  0  0  0
 35 34  1  0  0  0  0
 35 32  1  0  0  0  0
M  END
>  <minimizedAffinity>
-4.92707825

$$$$
