
 OpenBabel11232419533D

 36 40  0  0  1  0  0  0  0  0999 V2000
   -8.5460   -5.4840   12.7510 C   0  0  0  0  0  0  0  0  0  0  0  0
   -7.4770   -4.6280   12.8920 C   0  0  0  0  0  3  0  0  0  0  0  0
   -6.4610   -5.1830   12.1530 N   0  0  0  0  0  0  0  0  0  0  0  0
   -6.9650   -6.2990   11.5180 C   0  0  0  0  0  0  0  0  0  0  0  0
   -8.1870   -6.5360   11.9460 N   0  0  0  0  0  0  0  0  0  0  0  0
  -13.2040   -7.2000   13.5510 C   0  0  0  0  0  1  0  0  0  0  0  0
  -12.1430   -6.1560   13.7270 C   0  0  0  0  0  0  0  0  0  0  0  0
  -10.8770   -6.3060   13.1370 C   0  0  0  0  0  3  0  0  0  0  0  0
   -9.8680   -5.3490   13.3430 C   0  0  0  0  0  0  0  0  0  0  0  0
  -10.1400   -4.2460   14.1660 C   0  0  0  0  0  3  0  0  0  0  0  0
  -11.3930   -4.0940   14.7630 C   0  0  0  0  0  3  0  0  0  0  0  0
  -12.3790   -5.0490   14.5430 C   0  0  0  0  0  0  0  0  0  0  0  0
  -13.5710   -4.8960   15.1350 F   0  0  0  0  0  0  0  0  0  0  0  0
   -6.2300   -7.1340   10.5000 C   0  0  2  0  0  3  0  0  0  0  0  0
   -7.1630   -7.5570    9.3550 C   0  0  0  0  0  2  0  0  0  0  0  0
   -8.0560   -8.7400    9.7290 C   0  0  0  0  0  2  0  0  0  0  0  0
   -7.2680   -9.8340   10.2880 N   0  0  0  0  0  0  0  0  0  0  0  0
   -6.4720   -9.5020   11.4660 C   0  0  0  0  0  2  0  0  0  0  0  0
   -5.5240   -8.3440   11.1410 C   0  0  0  0  0  2  0  0  0  0  0  0
   -6.7640  -10.7980    9.4180 C   0  0  0  0  0  0  0  0  0  0  0  0
   -5.4900  -10.6360    8.9990 N   0  0  0  0  0  0  0  0  0  0  0  0
   -4.9910  -11.5780    8.1870 C   0  0  0  0  0  3  0  0  0  0  0  0
   -5.6280  -12.6670    7.7500 N   0  0  0  0  0  0  0  0  0  0  0  0
   -6.9040  -12.7990    8.1390 C   0  0  0  0  0  0  0  0  0  0  0  0
   -7.5320  -13.9480    7.6850 N   0  0  0  0  0  0  0  0  0  0  0  0
   -7.5260  -11.8870    8.9870 C   0  0  0  0  0  0  0  0  0  0  0  0
   -9.3700  -12.0900    9.4200 Br  0  0  0  0  0  0  0  0  0  0  0  0
   -6.9590  -14.5060    7.0660 H   0  0  0  0  0  0  0  0  0  0  0  0
   -8.5220  -13.8910    7.4840 H   0  0  0  0  0  0  0  0  0  0  0  0
   -5.1270   -4.6320   12.0690 C   0  0  0  0  0  2  0  0  0  0  0  0
   -4.3480   -4.6060   13.3990 C   0  0  0  0  0  2  0  0  0  0  0  0
   -3.2790   -5.6050   13.6850 N   0  0  0  0  0  4  0  0  0  0  0  0
   -3.7340   -6.9620   14.0370 C   0  0  0  0  0  2  0  0  0  0  0  0
   -2.5560   -7.5030   13.2110 C   0  0  0  0  0  2  0  0  0  0  0  0
   -2.5470   -6.1290   12.5230 C   0  0  0  0  0  2  0  0  0  0  0  0
   -2.6350   -5.2410   14.4040 H   0  0  0  0  0  0  0  0  0  0  0  0
  1  2  2  0  0  0  0
  1  9  1  0  0  0  0
  3  2  1  0  0  0  0
  4  5  2  0  0  0  0
  4  3  1  0  0  0  0
  5  1  1  0  0  0  0
  6  7  1  0  0  0  0
  7 12  1  0  0  0  0
  8  9  1  0  0  0  0
  8  7  2  0  0  0  0
  9 10  2  0  0  0  0
 10 11  1  0  0  0  0
 12 11  2  0  0  0  0
 12 13  1  0  0  0  0
 14 19  1  0  0  0  0
 14  4  1  1  0  0  0
 15 16  1  0  0  0  0
 15 14  1  0  0  0  0
 16 17  1  0  0  0  0
 17 18  1  0  0  0  0
 19 18  1  0  0  0  0
 20 17  1  0  0  0  0
 21 20  1  0  0  0  0
 22 21  2  0  0  0  0
 23 24  2  0  0  0  0
 23 22  1  0  0  0  0
 24 26  1  0  0  0  0
 25 24  1  0  0  0  0
 26 20  2  0  0  0  0
 26 27  1  0  0  0  0
 28 25  1  0  0  0  0
 29 25  1  0  0  0  0
 30  3  1  0  0  0  0
 30 31  1  0  0  0  0
 31 32  1  0  0  0  0
 32 33  1  0  0  0  0
 32 36  1  0  0  0  0
 34 33  1  0  0  0  0
 35 34  1  0  0  0  0
 35 32  1  0  0  0  0
M  END
>  <minimizedAffinity>
-4.97017717

$$$$
