
 OpenBabel11232419533D

 36 40  0  0  1  0  0  0  0  0999 V2000
   -9.8310   -9.7500    8.2730 C   0  0  0  0  0  0  0  0  0  0  0  0
   -9.7750  -10.9920    8.8610 C   0  0  0  0  0  3  0  0  0  0  0  0
   -8.5100  -11.0930    9.3870 N   0  0  0  0  0  0  0  0  0  0  0  0
   -7.8740   -9.8870    9.1850 C   0  0  0  0  0  0  0  0  0  0  0  0
   -8.6290   -9.1100    8.4350 N   0  0  0  0  0  0  0  0  0  0  0  0
  -14.7770   -9.2900    7.4830 C   0  0  0  0  0  1  0  0  0  0  0  0
  -13.3570   -8.9350    7.1550 C   0  0  0  0  0  0  0  0  0  0  0  0
  -12.2860   -9.5270    7.8440 C   0  0  0  0  0  3  0  0  0  0  0  0
  -10.9580   -9.1580    7.5680 C   0  0  0  0  0  0  0  0  0  0  0  0
  -10.7190   -8.1700    6.6020 C   0  0  0  0  0  3  0  0  0  0  0  0
  -11.7780   -7.5690    5.9180 C   0  0  0  0  0  3  0  0  0  0  0  0
  -13.0830   -7.9520    6.2020 C   0  0  0  0  0  0  0  0  0  0  0  0
  -14.0890   -7.3560    5.5490 F   0  0  0  0  0  0  0  0  0  0  0  0
   -6.5160   -9.5110    9.7230 C   0  0  2  0  0  3  0  0  0  0  0  0
   -6.5120   -9.5070   11.2590 C   0  0  0  0  0  2  0  0  0  0  0  0
   -7.1320   -8.2370   11.8450 C   0  0  0  0  0  2  0  0  0  0  0  0
   -6.5430   -7.0430   11.2460 N   0  0  0  0  0  0  0  0  0  0  0  0
   -6.6510   -6.9470    9.7930 C   0  0  0  0  0  2  0  0  0  0  0  0
   -6.0090   -8.1770    9.1430 C   0  0  0  0  0  2  0  0  0  0  0  0
   -5.4180   -6.4860   11.8490 C   0  0  0  0  0  0  0  0  0  0  0  0
   -4.2230   -7.0280   11.5310 N   0  0  0  0  0  0  0  0  0  0  0  0
   -3.1360   -6.4740   12.0840 C   0  0  0  0  0  3  0  0  0  0  0  0
   -3.1150   -5.4340   12.9210 N   0  0  0  0  0  0  0  0  0  0  0  0
   -4.3080   -4.9270   13.2620 C   0  0  0  0  0  0  0  0  0  0  0  0
   -4.2520   -3.8380   14.1170 N   0  0  0  0  0  0  0  0  0  0  0  0
   -5.5040   -5.4170   12.7440 C   0  0  0  0  0  0  0  0  0  0  0  0
   -7.1660   -4.7100   13.3490 Br  0  0  0  0  0  0  0  0  0  0  0  0
   -3.3150   -3.6080   14.4200 H   0  0  0  0  0  0  0  0  0  0  0  0
   -5.0010   -3.7320   14.7880 H   0  0  0  0  0  0  0  0  0  0  0  0
   -8.0020  -12.2720   10.0530 C   0  0  0  0  0  2  0  0  0  0  0  0
   -7.3550  -13.3170    9.1230 C   0  0  0  0  0  2  0  0  0  0  0  0
   -7.0960  -13.0130    7.6860 N   0  0  0  0  0  4  0  0  0  0  0  0
   -5.7710  -12.4520    7.3680 C   0  0  0  0  0  2  0  0  0  0  0  0
   -5.7820  -13.3130    6.0950 C   0  0  0  0  0  2  0  0  0  0  0  0
   -6.8430  -14.1650    6.8090 C   0  0  0  0  0  2  0  0  0  0  0  0
   -7.8440  -12.4090    7.3100 H   0  0  0  0  0  0  0  0  0  0  0  0
  1  5  1  0  0  0  0
  1  2  2  0  0  0  0
  2  3  1  0  0  0  0
  3 30  1  0  0  0  0
  4  3  1  0  0  0  0
  5  4  2  0  0  0  0
  7  6  1  0  0  0  0
  7  8  1  0  0  0  0
  9  8  2  0  0  0  0
  9  1  1  0  0  0  0
 10  9  1  0  0  0  0
 11 12  1  0  0  0  0
 11 10  2  0  0  0  0
 12  7  2  0  0  0  0
 13 12  1  0  0  0  0
 14  4  1  1  0  0  0
 14 15  1  0  0  0  0
 15 16  1  0  0  0  0
 17 16  1  0  0  0  0
 17 20  1  0  0  0  0
 18 17  1  0  0  0  0
 19 14  1  0  0  0  0
 19 18  1  0  0  0  0
 20 26  1  0  0  0  0
 21 20  2  0  0  0  0
 21 22  1  0  0  0  0
 22 23  2  0  0  0  0
 23 24  1  0  0  0  0
 24 25  1  0  0  0  0
 25 28  1  0  0  0  0
 25 29  1  0  0  0  0
 26 24  2  0  0  0  0
 26 27  1  0  0  0  0
 31 30  1  0  0  0  0
 32 31  1  0  0  0  0
 33 32  1  0  0  0  0
 34 35  1  0  0  0  0
 34 33  1  0  0  0  0
 35 32  1  0  0  0  0
 36 32  1  0  0  0  0
M  END
>  <minimizedAffinity>
-5.61207199

$$$$

 OpenBabel11232419533D

 36 40  0  0  1  0  0  0  0  0999 V2000
   -6.6960  -12.1400    7.9730 C   0  0  0  0  0  0  0  0  0  0  0  0
   -5.7320  -11.3480    8.5530 C   0  0  0  0  0  3  0  0  0  0  0  0
   -6.4090  -10.2900    9.1070 N   0  0  0  0  0  0  0  0  0  0  0  0
   -7.7580  -10.5140    8.9280 C   0  0  0  0  0  0  0  0  0  0  0  0
   -7.9310  -11.5750    8.1680 N   0  0  0  0  0  0  0  0  0  0  0  0
   -7.3220  -17.1080    7.5050 C   0  0  0  0  0  1  0  0  0  0  0  0
   -6.7720  -15.8030    7.0120 C   0  0  0  0  0  0  0  0  0  0  0  0
   -6.9720  -14.6150    7.7350 C   0  0  0  0  0  3  0  0  0  0  0  0
   -6.4970  -13.3850    7.2480 C   0  0  0  0  0  0  0  0  0  0  0  0
   -5.8320  -13.3590    6.0120 C   0  0  0  0  0  3  0  0  0  0  0  0
   -5.6380  -14.5340    5.2820 C   0  0  0  0  0  3  0  0  0  0  0  0
   -6.1110  -15.7400    5.7840 C   0  0  0  0  0  0  0  0  0  0  0  0
   -5.9290  -16.8560    5.0650 F   0  0  0  0  0  0  0  0  0  0  0  0
   -8.8700   -9.6710    9.4990 C   0  0  2  0  0  3  0  0  0  0  0  0
  -10.1200  -10.5190    9.7780 C   0  0  0  0  0  2  0  0  0  0  0  0
  -10.9360  -10.7970    8.5140 C   0  0  0  0  0  2  0  0  0  0  0  0
  -11.2060   -9.5620    7.7840 N   0  0  0  0  0  0  0  0  0  0  0  0
  -10.0300   -8.7960    7.3810 C   0  0  0  0  0  2  0  0  0  0  0  0
   -9.1890   -8.4520    8.6140 C   0  0  0  0  0  2  0  0  0  0  0  0
  -12.3660   -8.8540    8.0890 C   0  0  0  0  0  0  0  0  0  0  0  0
  -12.4800   -8.3820    9.3490 N   0  0  0  0  0  0  0  0  0  0  0  0
  -13.5800   -7.6730    9.6370 C   0  0  0  0  0  3  0  0  0  0  0  0
  -14.5770   -7.3810    8.7990 N   0  0  0  0  0  0  0  0  0  0  0  0
  -14.4740   -7.8860    7.5610 C   0  0  0  0  0  0  0  0  0  0  0  0
  -15.5150   -7.5520    6.7110 N   0  0  0  0  0  0  0  0  0  0  0  0
  -13.3740   -8.6320    7.1470 C   0  0  0  0  0  0  0  0  0  0  0  0
  -13.3420   -9.3980    5.4040 Br  0  0  0  0  0  0  0  0  0  0  0  0
  -16.2490   -7.0190    7.1580 H   0  0  0  0  0  0  0  0  0  0  0  0
  -15.7880   -8.2330    6.0150 H   0  0  0  0  0  0  0  0  0  0  0  0
   -5.7680   -9.1780    9.7750 C   0  0  0  0  0  2  0  0  0  0  0  0
   -5.3950   -7.9960    8.8590 C   0  0  0  0  0  2  0  0  0  0  0  0
   -5.0420   -6.6640    9.4290 N   0  0  0  0  0  4  0  0  0  0  0  0
   -5.8130   -5.5150    8.9220 C   0  0  0  0  0  2  0  0  0  0  0  0
   -5.8000   -4.9560   10.3540 C   0  0  0  0  0  2  0  0  0  0  0  0
   -5.5010   -6.3950   10.7990 C   0  0  0  0  0  2  0  0  0  0  0  0
   -4.0290   -6.4920    9.3290 H   0  0  0  0  0  0  0  0  0  0  0  0
  1  5  1  0  0  0  0
  1  2  2  0  0  0  0
  2  3  1  0  0  0  0
  3 30  1  0  0  0  0
  4  3  1  0  0  0  0
  5  4  2  0  0  0  0
  7  6  1  0  0  0  0
  7  8  1  0  0  0  0
  9  8  2  0  0  0  0
  9  1  1  0  0  0  0
 10  9  1  0  0  0  0
 11 12  1  0  0  0  0
 11 10  2  0  0  0  0
 12  7  2  0  0  0  0
 13 12  1  0  0  0  0
 14  4  1  6  0  0  0
 14 15  1  0  0  0  0
 16 15  1  0  0  0  0
 17 20  1  0  0  0  0
 17 16  1  0  0  0  0
 18 17  1  0  0  0  0
 18 19  1  0  0  0  0
 19 14  1  0  0  0  0
 20 21  1  0  0  0  0
 21 22  2  0  0  0  0
 23 22  1  0  0  0  0
 24 23  2  0  0  0  0
 25 28  1  0  0  0  0
 25 24  1  0  0  0  0
 26 24  1  0  0  0  0
 26 20  2  0  0  0  0
 27 26  1  0  0  0  0
 29 25  1  0  0  0  0
 31 32  1  0  0  0  0
 31 30  1  0  0  0  0
 32 35  1  0  0  0  0
 33 32  1  0  0  0  0
 33 34  1  0  0  0  0
 34 35  1  0  0  0  0
 36 32  1  0  0  0  0
M  END
>  <minimizedAffinity>
-5.53990173

$$$$

 OpenBabel11232419533D

 36 40  0  0  1  0  0  0  0  0999 V2000
   -7.5370   -8.7080    9.3420 C   0  0  0  0  0  0  0  0  0  0  0  0
   -6.8010   -9.8380    9.0690 C   0  0  0  0  0  3  0  0  0  0  0  0
   -7.7210  -10.8410    8.8860 N   0  0  0  0  0  0  0  0  0  0  0  0
   -8.9770  -10.2780    8.9620 C   0  0  0  0  0  0  0  0  0  0  0  0
   -8.8740   -9.0170    9.3260 N   0  0  0  0  0  0  0  0  0  0  0  0
   -6.8000   -4.8420   12.4730 C   0  0  0  0  0  1  0  0  0  0  0  0
   -6.6830   -5.4740   11.1170 C   0  0  0  0  0  0  0  0  0  0  0  0
   -7.1860   -6.7620   10.8750 C   0  0  0  0  0  3  0  0  0  0  0  0
   -7.0330   -7.3720    9.6170 C   0  0  0  0  0  0  0  0  0  0  0  0
   -6.3510   -6.6760    8.6080 C   0  0  0  0  0  3  0  0  0  0  0  0
   -5.8400   -5.3980    8.8430 C   0  0  0  0  0  3  0  0  0  0  0  0
   -6.0060   -4.8110   10.0920 C   0  0  0  0  0  0  0  0  0  0  0  0
   -5.4970   -3.5910   10.3070 F   0  0  0  0  0  0  0  0  0  0  0  0
  -10.2760  -10.9930    8.6850 C   0  0  2  0  0  3  0  0  0  0  0  0
  -11.2610  -10.0800    7.9390 C   0  0  0  0  0  2  0  0  0  0  0  0
  -11.9660   -9.0920    8.8700 C   0  0  0  0  0  2  0  0  0  0  0  0
  -12.5460   -9.7770   10.0200 N   0  0  0  0  0  0  0  0  0  0  0  0
  -11.6090  -10.5470   10.8350 C   0  0  0  0  0  2  0  0  0  0  0  0
  -10.8970  -11.5860    9.9630 C   0  0  0  0  0  2  0  0  0  0  0  0
  -13.8530  -10.2470    9.9210 C   0  0  0  0  0  0  0  0  0  0  0  0
  -14.0310  -11.4300    9.2930 N   0  0  0  0  0  0  0  0  0  0  0  0
  -15.2830  -11.9010    9.2230 C   0  0  0  0  0  3  0  0  0  0  0  0
  -16.3780  -11.3170    9.7170 N   0  0  0  0  0  0  0  0  0  0  0  0
  -16.1980  -10.1260   10.3040 C   0  0  0  0  0  0  0  0  0  0  0  0
  -17.3490   -9.5550   10.8210 N   0  0  0  0  0  0  0  0  0  0  0  0
  -14.9420   -9.5420   10.4400 C   0  0  0  0  0  0  0  0  0  0  0  0
  -14.7750   -7.8030   11.1990 Br  0  0  0  0  0  0  0  0  0  0  0  0
  -18.1870  -10.0880   10.6320 H   0  0  0  0  0  0  0  0  0  0  0  0
  -17.4210   -8.5460   10.8010 H   0  0  0  0  0  0  0  0  0  0  0  0
   -7.3730  -12.2220    8.6320 C   0  0  0  0  0  2  0  0  0  0  0  0
   -6.0700  -12.4290    7.8350 C   0  0  0  0  0  2  0  0  0  0  0  0
   -5.9020  -13.5980    6.9260 N   0  0  0  0  0  4  0  0  0  0  0  0
   -7.1150  -14.3920    6.6550 C   0  0  0  0  0  2  0  0  0  0  0  0
   -6.6240  -14.5310    5.2060 C   0  0  0  0  0  2  0  0  0  0  0  0
   -5.7540  -13.2980    5.4940 C   0  0  0  0  0  2  0  0  0  0  0  0
   -5.1400  -14.2060    7.2640 H   0  0  0  0  0  0  0  0  0  0  0  0
  1  9  1  0  0  0  0
  2  1  2  0  0  0  0
  3  4  1  0  0  0  0
  3  2  1  0  0  0  0
  4  5  2  0  0  0  0
  5  1  1  0  0  0  0
  7  6  1  0  0  0  0
  8  7  1  0  0  0  0
  9  8  2  0  0  0  0
 10 11  2  0  0  0  0
 10  9  1  0  0  0  0
 11 12  1  0  0  0  0
 12 13  1  0  0  0  0
 12  7  2  0  0  0  0
 14  4  1  1  0  0  0
 14 19  1  0  0  0  0
 15 14  1  0  0  0  0
 15 16  1  0  0  0  0
 16 17  1  0  0  0  0
 17 18  1  0  0  0  0
 19 18  1  0  0  0  0
 20 17  1  0  0  0  0
 20 26  1  0  0  0  0
 21 20  2  0  0  0  0
 22 21  1  0  0  0  0
 22 23  2  0  0  0  0
 23 24  1  0  0  0  0
 24 26  2  0  0  0  0
 24 25  1  0  0  0  0
 26 27  1  0  0  0  0
 28 25  1  0  0  0  0
 29 25  1  0  0  0  0
 30  3  1  0  0  0  0
 31 30  1  0  0  0  0
 32 36  1  0  0  0  0
 32 31  1  0  0  0  0
 33 32  1  0  0  0  0
 34 35  1  0  0  0  0
 34 33  1  0  0  0  0
 35 32  1  0  0  0  0
M  END
>  <minimizedAffinity>
-5.3707118

$$$$

 OpenBabel11232419533D

 36 40  0  0  1  0  0  0  0  0999 V2000
   -6.5800  -12.0530    7.9840 C   0  0  0  0  0  0  0  0  0  0  0  0
   -5.5890  -11.3340    8.6120 C   0  0  0  0  0  3  0  0  0  0  0  0
   -6.2070  -10.2140    9.1110 N   0  0  0  0  0  0  0  0  0  0  0  0
   -7.5570  -10.3300    8.8540 C   0  0  0  0  0  0  0  0  0  0  0  0
   -7.7730  -11.3850    8.0970 N   0  0  0  0  0  0  0  0  0  0  0  0
   -7.4150  -17.0010    7.6500 C   0  0  0  0  0  1  0  0  0  0  0  0
   -6.8190  -15.7320    7.1170 C   0  0  0  0  0  0  0  0  0  0  0  0
   -6.9590  -14.5200    7.8130 C   0  0  0  0  0  3  0  0  0  0  0  0
   -6.4420  -13.3230    7.2880 C   0  0  0  0  0  0  0  0  0  0  0  0
   -5.7960  -13.3550    6.0430 C   0  0  0  0  0  3  0  0  0  0  0  0
   -5.6610  -14.5540    5.3400 C   0  0  0  0  0  3  0  0  0  0  0  0
   -6.1750  -15.7270    5.8790 C   0  0  0  0  0  0  0  0  0  0  0  0
   -6.0500  -16.8670    5.1850 F   0  0  0  0  0  0  0  0  0  0  0  0
   -8.6260   -9.3870    9.3470 C   0  0  2  0  0  3  0  0  0  0  0  0
   -9.1170   -9.7910   10.7460 C   0  0  0  0  0  2  0  0  0  0  0  0
  -10.1110  -10.9530   10.7080 C   0  0  0  0  0  2  0  0  0  0  0  0
  -11.1850  -10.6910    9.7550 N   0  0  0  0  0  0  0  0  0  0  0  0
  -10.7620  -10.4380    8.3800 C   0  0  0  0  0  2  0  0  0  0  0  0
   -9.7900   -9.2540    8.3470 C   0  0  0  0  0  2  0  0  0  0  0  0
  -12.3290  -10.0400   10.2090 C   0  0  0  0  0  0  0  0  0  0  0  0
  -12.2650   -8.6950   10.3130 N   0  0  0  0  0  0  0  0  0  0  0  0
  -13.3740   -8.0620   10.7200 C   0  0  0  0  0  3  0  0  0  0  0  0
  -14.5420   -8.6300   11.0310 N   0  0  0  0  0  0  0  0  0  0  0  0
  -14.5840   -9.9680   10.9620 C   0  0  0  0  0  0  0  0  0  0  0  0
  -15.8140  -10.5250   11.2720 N   0  0  0  0  0  0  0  0  0  0  0  0
  -13.4970  -10.7300   10.5460 C   0  0  0  0  0  0  0  0  0  0  0  0
  -13.6010  -12.6310   10.5650 Br  0  0  0  0  0  0  0  0  0  0  0  0
  -16.5030   -9.8470   11.5720 H   0  0  0  0  0  0  0  0  0  0  0  0
  -15.8160  -11.4280   11.7280 H   0  0  0  0  0  0  0  0  0  0  0  0
   -5.5160   -9.1480    9.8030 C   0  0  0  0  0  2  0  0  0  0  0  0
   -5.4710   -7.8040    9.0490 C   0  0  0  0  0  2  0  0  0  0  0  0
   -6.1290   -6.5880    9.6050 N   0  0  0  0  0  4  0  0  0  0  0  0
   -5.6080   -6.0990   10.8940 C   0  0  0  0  0  2  0  0  0  0  0  0
   -5.7990   -4.6710   10.3580 C   0  0  0  0  0  2  0  0  0  0  0  0
   -5.7930   -5.3100    8.9600 C   0  0  0  0  0  2  0  0  0  0  0  0
   -7.1500   -6.7270    9.6560 H   0  0  0  0  0  0  0  0  0  0  0  0
  1  5  1  0  0  0  0
  1  2  2  0  0  0  0
  2  3  1  0  0  0  0
  3 30  1  0  0  0  0
  4  3  1  0  0  0  0
  5  4  2  0  0  0  0
  7  6  1  0  0  0  0
  7  8  1  0  0  0  0
  9  8  2  0  0  0  0
  9  1  1  0  0  0  0
 10  9  1  0  0  0  0
 11 12  1  0  0  0  0
 11 10  2  0  0  0  0
 12  7  2  0  0  0  0
 13 12  1  0  0  0  0
 14  4  1  6  0  0  0
 14 15  1  0  0  0  0
 16 15  1  0  0  0  0
 17 20  1  0  0  0  0
 17 16  1  0  0  0  0
 18 17  1  0  0  0  0
 19 18  1  0  0  0  0
 19 14  1  0  0  0  0
 20 21  2  0  0  0  0
 20 26  1  0  0  0  0
 21 22  1  0  0  0  0
 22 23  2  0  0  0  0
 24 23  1  0  0  0  0
 24 25  1  0  0  0  0
 25 28  1  0  0  0  0
 25 29  1  0  0  0  0
 26 27  1  0  0  0  0
 26 24  2  0  0  0  0
 31 32  1  0  0  0  0
 31 30  1  0  0  0  0
 32 36  1  0  0  0  0
 32 33  1  0  0  0  0
 34 33  1  0  0  0  0
 35 32  1  0  0  0  0
 35 34  1  0  0  0  0
M  END
>  <minimizedAffinity>
-5.24936914

$$$$

 OpenBabel11232419533D

 36 40  0  0  1  0  0  0  0  0999 V2000
   -7.7580   -8.8660    9.9480 C   0  0  0  0  0  0  0  0  0  0  0  0
   -7.1020  -10.0720    9.8570 C   0  0  0  0  0  3  0  0  0  0  0  0
   -8.0800  -11.0310    9.9490 N   0  0  0  0  0  0  0  0  0  0  0  0
   -9.2980  -10.3850   10.0000 C   0  0  0  0  0  0  0  0  0  0  0  0
   -9.1040   -9.0860   10.0930 N   0  0  0  0  0  0  0  0  0  0  0  0
   -6.3590   -4.6060   12.2250 C   0  0  0  0  0  1  0  0  0  0  0  0
   -6.5010   -5.4500   10.9940 C   0  0  0  0  0  0  0  0  0  0  0  0
   -7.0810   -6.7270   11.0560 C   0  0  0  0  0  3  0  0  0  0  0  0
   -7.1690   -7.5360    9.9100 C   0  0  0  0  0  0  0  0  0  0  0  0
   -6.6500   -7.0520    8.7000 C   0  0  0  0  0  3  0  0  0  0  0  0
   -6.0630   -5.7860    8.6310 C   0  0  0  0  0  3  0  0  0  0  0  0
   -5.9900   -5.0010    9.7750 C   0  0  0  0  0  0  0  0  0  0  0  0
   -5.4120   -3.7950    9.6960 F   0  0  0  0  0  0  0  0  0  0  0  0
  -10.6480  -11.0570    9.9690 C   0  0  2  0  0  3  0  0  0  0  0  0
  -11.1230  -11.2770    8.5250 C   0  0  0  0  0  2  0  0  0  0  0  0
  -11.7030  -10.0080    7.8970 C   0  0  0  0  0  2  0  0  0  0  0  0
  -12.7080   -9.4060    8.7680 N   0  0  0  0  0  0  0  0  0  0  0  0
  -12.2520   -9.0560   10.1110 C   0  0  0  0  0  2  0  0  0  0  0  0
  -11.6930  -10.3000   10.8090 C   0  0  0  0  0  2  0  0  0  0  0  0
  -14.0350   -9.8010    8.6180 C   0  0  0  0  0  0  0  0  0  0  0  0
  -14.3990  -10.9580    9.2110 N   0  0  0  0  0  0  0  0  0  0  0  0
  -15.6820  -11.3260    9.0960 C   0  0  0  0  0  3  0  0  0  0  0  0
  -16.6430  -10.6570    8.4540 N   0  0  0  0  0  0  0  0  0  0  0  0
  -16.2650   -9.5290    7.8360 C   0  0  0  0  0  0  0  0  0  0  0  0
  -17.2870   -8.8490    7.1950 N   0  0  0  0  0  0  0  0  0  0  0  0
  -14.9610   -9.0460    7.8930 C   0  0  0  0  0  0  0  0  0  0  0  0
  -14.4760   -7.4880    6.9100 Br  0  0  0  0  0  0  0  0  0  0  0  0
  -18.1770   -9.3300    7.2260 H   0  0  0  0  0  0  0  0  0  0  0  0
  -17.0560   -8.3470    6.3480 H   0  0  0  0  0  0  0  0  0  0  0  0
   -7.8210  -12.4540    9.9540 C   0  0  0  0  0  2  0  0  0  0  0  0
   -7.9140  -13.1380    8.5760 C   0  0  0  0  0  2  0  0  0  0  0  0
   -6.6860  -13.5420    7.8330 N   0  0  0  0  0  4  0  0  0  0  0  0
   -6.8960  -14.1010    6.4850 C   0  0  0  0  0  2  0  0  0  0  0  0
   -5.6380  -13.3360    6.0420 C   0  0  0  0  0  2  0  0  0  0  0  0
   -5.8690  -12.4530    7.2780 C   0  0  0  0  0  2  0  0  0  0  0  0
   -6.1190  -14.1850    8.4070 H   0  0  0  0  0  0  0  0  0  0  0  0
  1  5  1  0  0  0  0
  2  1  2  0  0  0  0
  2  3  1  0  0  0  0
  3 30  1  0  0  0  0
  3  4  1  0  0  0  0
  4  5  2  0  0  0  0
  7  8  1  0  0  0  0
  7  6  1  0  0  0  0
  9  1  1  0  0  0  0
  9  8  2  0  0  0  0
 10  9  1  0  0  0  0
 11 10  2  0  0  0  0
 11 12  1  0  0  0  0
 12  7  2  0  0  0  0
 13 12  1  0  0  0  0
 14  4  1  6  0  0  0
 14 19  1  0  0  0  0
 15 14  1  0  0  0  0
 16 15  1  0  0  0  0
 16 17  1  0  0  0  0
 17 18  1  0  0  0  0
 18 19  1  0  0  0  0
 20 17  1  0  0  0  0
 20 21  1  0  0  0  0
 22 21  2  0  0  0  0
 23 22  1  0  0  0  0
 24 26  1  0  0  0  0
 24 23  2  0  0  0  0
 25 28  1  0  0  0  0
 25 24  1  0  0  0  0
 26 20  2  0  0  0  0
 27 26  1  0  0  0  0
 29 25  1  0  0  0  0
 31 30  1  0  0  0  0
 32 36  1  0  0  0  0
 32 31  1  0  0  0  0
 33 32  1  0  0  0  0
 34 33  1  0  0  0  0
 34 35  1  0  0  0  0
 35 32  1  0  0  0  0
M  END
>  <minimizedAffinity>
-5.12280273

$$$$

 OpenBabel11232419533D

 36 40  0  0  1  0  0  0  0  0999 V2000
  -10.0370   -9.5090    8.1550 C   0  0  0  0  0  0  0  0  0  0  0  0
   -9.9290  -10.8160    8.5700 C   0  0  0  0  0  3  0  0  0  0  0  0
   -8.6400  -10.9520    9.0240 N   0  0  0  0  0  0  0  0  0  0  0  0
   -8.0380   -9.7130    8.9570 C   0  0  0  0  0  0  0  0  0  0  0  0
   -8.8410   -8.8650    8.3510 N   0  0  0  0  0  0  0  0  0  0  0  0
  -14.9060   -8.2630    8.3360 C   0  0  0  0  0  1  0  0  0  0  0  0
  -13.5760   -8.2600    7.6430 C   0  0  0  0  0  0  0  0  0  0  0  0
  -12.4640   -8.9030    8.2110 C   0  0  0  0  0  3  0  0  0  0  0  0
  -11.2060   -8.8580    7.5850 C   0  0  0  0  0  0  0  0  0  0  0  0
  -11.0740   -8.1430    6.3850 C   0  0  0  0  0  3  0  0  0  0  0  0
  -12.1730   -7.4920    5.8180 C   0  0  0  0  0  3  0  0  0  0  0  0
  -13.4080   -7.5530    6.4510 C   0  0  0  0  0  0  0  0  0  0  0  0
  -14.4490   -6.9120    5.9020 F   0  0  0  0  0  0  0  0  0  0  0  0
   -6.6650   -9.3770    9.4830 C   0  0  2  0  0  3  0  0  0  0  0  0
   -6.6180   -9.4830   11.0150 C   0  0  0  0  0  2  0  0  0  0  0  0
   -7.2190   -8.2580   11.7070 C   0  0  0  0  0  2  0  0  0  0  0  0
   -6.6450   -7.0250   11.1790 N   0  0  0  0  0  0  0  0  0  0  0  0
   -6.7930   -6.8250    9.7400 C   0  0  0  0  0  2  0  0  0  0  0  0
   -6.1720   -8.0050    8.9870 C   0  0  0  0  0  2  0  0  0  0  0  0
   -5.5030   -6.5120   11.7890 C   0  0  0  0  0  0  0  0  0  0  0  0
   -4.3270   -7.0950   11.4730 N   0  0  0  0  0  0  0  0  0  0  0  0
   -3.2230   -6.5850   12.0330 C   0  0  0  0  0  3  0  0  0  0  0  0
   -3.1670   -5.5500   12.8750 N   0  0  0  0  0  0  0  0  0  0  0  0
   -4.3420   -5.0010   13.2140 C   0  0  0  0  0  0  0  0  0  0  0  0
   -4.2500   -3.9190   14.0740 N   0  0  0  0  0  0  0  0  0  0  0  0
   -5.5530   -5.4440   12.6900 C   0  0  0  0  0  0  0  0  0  0  0  0
   -7.1900   -4.6800   13.2920 Br  0  0  0  0  0  0  0  0  0  0  0  0
   -3.3060   -3.7250   14.3820 H   0  0  0  0  0  0  0  0  0  0  0  0
   -4.9970   -3.7890   14.7430 H   0  0  0  0  0  0  0  0  0  0  0  0
   -8.0770  -12.1950    9.5050 C   0  0  0  0  0  2  0  0  0  0  0  0
   -9.0140  -13.0300   10.4000 C   0  0  0  0  0  2  0  0  0  0  0  0
   -8.9590  -12.9180   11.8860 N   0  0  0  0  0  4  0  0  0  0  0  0
   -7.6160  -12.7830   12.4790 C   0  0  0  0  0  2  0  0  0  0  0  0
   -8.2270  -11.7880   13.4790 C   0  0  0  0  0  2  0  0  0  0  0  0
   -9.3660  -11.6270   12.4600 C   0  0  0  0  0  2  0  0  0  0  0  0
   -9.4700  -13.7020   12.3210 H   0  0  0  0  0  0  0  0  0  0  0  0
  1  5  1  0  0  0  0
  1  2  2  0  0  0  0
  2  3  1  0  0  0  0
  3 30  1  0  0  0  0
  4  3  1  0  0  0  0
  5  4  2  0  0  0  0
  7  8  1  0  0  0  0
  7  6  1  0  0  0  0
  9  1  1  0  0  0  0
  9  8  2  0  0  0  0
 10  9  1  0  0  0  0
 11 10  2  0  0  0  0
 11 12  1  0  0  0  0
 12  7  2  0  0  0  0
 13 12  1  0  0  0  0
 14  4  1  1  0  0  0
 14 15  1  0  0  0  0
 15 16  1  0  0  0  0
 17 16  1  0  0  0  0
 17 20  1  0  0  0  0
 18 17  1  0  0  0  0
 19 14  1  0  0  0  0
 19 18  1  0  0  0  0
 20 26  1  0  0  0  0
 21 20  2  0  0  0  0
 21 22  1  0  0  0  0
 22 23  2  0  0  0  0
 23 24  1  0  0  0  0
 24 25  1  0  0  0  0
 25 28  1  0  0  0  0
 25 29  1  0  0  0  0
 26 24  2  0  0  0  0
 26 27  1  0  0  0  0
 30 31  1  0  0  0  0
 31 32  1  0  0  0  0
 32 36  1  0  0  0  0
 32 35  1  0  0  0  0
 32 33  1  0  0  0  0
 33 34  1  0  0  0  0
 35 34  1  0  0  0  0
M  END
>  <minimizedAffinity>
-5.0150466

$$$$

 OpenBabel11232419533D

 36 40  0  0  1  0  0  0  0  0999 V2000
   -8.5460   -5.4840   12.7510 C   0  0  0  0  0  0  0  0  0  0  0  0
   -7.4770   -4.6280   12.8920 C   0  0  0  0  0  3  0  0  0  0  0  0
   -6.4610   -5.1830   12.1530 N   0  0  0  0  0  0  0  0  0  0  0  0
   -6.9650   -6.2990   11.5180 C   0  0  0  0  0  0  0  0  0  0  0  0
   -8.1870   -6.5360   11.9460 N   0  0  0  0  0  0  0  0  0  0  0  0
  -13.2040   -7.2000   13.5510 C   0  0  0  0  0  1  0  0  0  0  0  0
  -12.1430   -6.1560   13.7270 C   0  0  0  0  0  0  0  0  0  0  0  0
  -10.8770   -6.3060   13.1370 C   0  0  0  0  0  3  0  0  0  0  0  0
   -9.8680   -5.3490   13.3430 C   0  0  0  0  0  0  0  0  0  0  0  0
  -10.1400   -4.2460   14.1660 C   0  0  0  0  0  3  0  0  0  0  0  0
  -11.3930   -4.0940   14.7630 C   0  0  0  0  0  3  0  0  0  0  0  0
  -12.3790   -5.0490   14.5430 C   0  0  0  0  0  0  0  0  0  0  0  0
  -13.5710   -4.8960   15.1350 F   0  0  0  0  0  0  0  0  0  0  0  0
   -6.2300   -7.1340   10.5000 C   0  0  2  0  0  3  0  0  0  0  0  0
   -7.1630   -7.5570    9.3550 C   0  0  0  0  0  2  0  0  0  0  0  0
   -8.0560   -8.7400    9.7290 C   0  0  0  0  0  2  0  0  0  0  0  0
   -7.2680   -9.8340   10.2880 N   0  0  0  0  0  0  0  0  0  0  0  0
   -6.4720   -9.5020   11.4660 C   0  0  0  0  0  2  0  0  0  0  0  0
   -5.5240   -8.3440   11.1410 C   0  0  0  0  0  2  0  0  0  0  0  0
   -6.7640  -10.7980    9.4180 C   0  0  0  0  0  0  0  0  0  0  0  0
   -5.4900  -10.6360    8.9990 N   0  0  0  0  0  0  0  0  0  0  0  0
   -4.9910  -11.5780    8.1870 C   0  0  0  0  0  3  0  0  0  0  0  0
   -5.6280  -12.6670    7.7500 N   0  0  0  0  0  0  0  0  0  0  0  0
   -6.9040  -12.7990    8.1390 C   0  0  0  0  0  0  0  0  0  0  0  0
   -7.5320  -13.9480    7.6850 N   0  0  0  0  0  0  0  0  0  0  0  0
   -7.5260  -11.8870    8.9870 C   0  0  0  0  0  0  0  0  0  0  0  0
   -9.3700  -12.0900    9.4200 Br  0  0  0  0  0  0  0  0  0  0  0  0
   -6.9590  -14.5060    7.0660 H   0  0  0  0  0  0  0  0  0  0  0  0
   -8.5220  -13.8910    7.4840 H   0  0  0  0  0  0  0  0  0  0  0  0
   -5.1270   -4.6320   12.0690 C   0  0  0  0  0  2  0  0  0  0  0  0
   -4.3480   -4.6060   13.3990 C   0  0  0  0  0  2  0  0  0  0  0  0
   -3.2790   -5.6050   13.6850 N   0  0  0  0  0  4  0  0  0  0  0  0
   -3.7340   -6.9620   14.0370 C   0  0  0  0  0  2  0  0  0  0  0  0
   -2.5560   -7.5030   13.2110 C   0  0  0  0  0  2  0  0  0  0  0  0
   -2.5470   -6.1290   12.5230 C   0  0  0  0  0  2  0  0  0  0  0  0
   -2.6350   -5.2410   14.4040 H   0  0  0  0  0  0  0  0  0  0  0  0
  1  2  2  0  0  0  0
  1  9  1  0  0  0  0
  3  2  1  0  0  0  0
  4  5  2  0  0  0  0
  4  3  1  0  0  0  0
  5  1  1  0  0  0  0
  6  7  1  0  0  0  0
  7 12  1  0  0  0  0
  8  9  1  0  0  0  0
  8  7  2  0  0  0  0
  9 10  2  0  0  0  0
 10 11  1  0  0  0  0
 12 11  2  0  0  0  0
 12 13  1  0  0  0  0
 14 19  1  0  0  0  0
 14  4  1  1  0  0  0
 15 16  1  0  0  0  0
 15 14  1  0  0  0  0
 16 17  1  0  0  0  0
 17 18  1  0  0  0  0
 19 18  1  0  0  0  0
 20 17  1  0  0  0  0
 21 20  1  0  0  0  0
 22 21  2  0  0  0  0
 23 24  2  0  0  0  0
 23 22  1  0  0  0  0
 24 26  1  0  0  0  0
 25 24  1  0  0  0  0
 26 20  2  0  0  0  0
 26 27  1  0  0  0  0
 28 25  1  0  0  0  0
 29 25  1  0  0  0  0
 30  3  1  0  0  0  0
 30 31  1  0  0  0  0
 31 32  1  0  0  0  0
 32 33  1  0  0  0  0
 32 36  1  0  0  0  0
 34 33  1  0  0  0  0
 35 34  1  0  0  0  0
 35 32  1  0  0  0  0
M  END
>  <minimizedAffinity>
-4.97017717

$$$$

 OpenBabel11232419533D

 36 40  0  0  1  0  0  0  0  0999 V2000
   -7.5860  -12.6390    8.3870 C   0  0  0  0  0  0  0  0  0  0  0  0
   -8.5950  -12.9510    9.2690 C   0  0  0  0  0  3  0  0  0  0  0  0
   -8.8870  -11.7790    9.9230 N   0  0  0  0  0  0  0  0  0  0  0  0
   -8.1190  -10.7820    9.3600 C   0  0  0  0  0  0  0  0  0  0  0  0
   -7.2710  -11.3080    8.5020 N   0  0  0  0  0  0  0  0  0  0  0  0
   -6.7660  -17.2430    6.5360 C   0  0  0  0  0  1  0  0  0  0  0  0
   -6.4880  -15.7690    6.5590 C   0  0  0  0  0  0  0  0  0  0  0  0
   -7.1420  -14.9240    7.4710 C   0  0  0  0  0  3  0  0  0  0  0  0
   -6.9160  -13.5370    7.4590 C   0  0  0  0  0  0  0  0  0  0  0  0
   -6.0360  -13.0040    6.5050 C   0  0  0  0  0  3  0  0  0  0  0  0
   -5.3890  -13.8360    5.5890 C   0  0  0  0  0  3  0  0  0  0  0  0
   -5.6220  -15.2050    5.6210 C   0  0  0  0  0  0  0  0  0  0  0  0
   -5.0040  -15.9880    4.7260 F   0  0  0  0  0  0  0  0  0  0  0  0
   -8.2190   -9.3120    9.6830 C   0  0  2  0  0  3  0  0  0  0  0  0
   -7.2720   -8.4860    8.8000 C   0  0  0  0  0  2  0  0  0  0  0  0
   -5.8240   -8.5290    9.2910 C   0  0  0  0  0  2  0  0  0  0  0  0
   -5.7430   -8.2070   10.7120 N   0  0  0  0  0  0  0  0  0  0  0  0
   -6.5270   -9.0620   11.5990 C   0  0  0  0  0  2  0  0  0  0  0  0
   -8.0000   -9.0290   11.1810 C   0  0  0  0  0  2  0  0  0  0  0  0
   -5.5770   -6.8740   11.0800 C   0  0  0  0  0  0  0  0  0  0  0  0
   -6.3090   -5.9590   10.4090 N   0  0  0  0  0  0  0  0  0  0  0  0
   -6.1750   -4.6790   10.7810 C   0  0  0  0  0  3  0  0  0  0  0  0
   -5.3890   -4.2150   11.7560 N   0  0  0  0  0  0  0  0  0  0  0  0
   -4.6370   -5.1250   12.3900 C   0  0  0  0  0  0  0  0  0  0  0  0
   -3.8460   -4.6150   13.4070 N   0  0  0  0  0  0  0  0  0  0  0  0
   -4.6970   -6.4830   12.0930 C   0  0  0  0  0  0  0  0  0  0  0  0
   -3.5280   -7.7050   12.9700 Br  0  0  0  0  0  0  0  0  0  0  0  0
   -3.8970   -3.6090   13.4950 H   0  0  0  0  0  0  0  0  0  0  0  0
   -2.9500   -5.0550   13.5680 H   0  0  0  0  0  0  0  0  0  0  0  0
   -9.8620  -11.6670   10.9860 C   0  0  0  0  0  2  0  0  0  0  0  0
  -11.3090  -12.0070   10.5810 C   0  0  0  0  0  2  0  0  0  0  0  0
  -12.2420  -10.9490   10.0980 N   0  0  0  0  0  4  0  0  0  0  0  0
  -11.7970   -9.5560   10.2810 C   0  0  0  0  0  2  0  0  0  0  0  0
  -12.4100   -9.2460    8.9070 C   0  0  0  0  0  2  0  0  0  0  0  0
  -12.3160  -10.7560    8.6430 C   0  0  0  0  0  2  0  0  0  0  0  0
  -13.1790  -11.0860   10.5090 H   0  0  0  0  0  0  0  0  0  0  0  0
  1  5  1  0  0  0  0
  1  2  2  0  0  0  0
  2  3  1  0  0  0  0
  3 30  1  0  0  0  0
  4  3  1  0  0  0  0
  5  4  2  0  0  0  0
  6  7  1  0  0  0  0
  7  8  1  0  0  0  0
  9  8  2  0  0  0  0
  9  1  1  0  0  0  0
 10  9  1  0  0  0  0
 11 12  1  0  0  0  0
 11 10  2  0  0  0  0
 12  7  2  0  0  0  0
 13 12  1  0  0  0  0
 14  4  1  1  0  0  0
 14 19  1  0  0  0  0
 15 16  1  0  0  0  0
 15 14  1  0  0  0  0
 16 17  1  0  0  0  0
 17 20  1  0  0  0  0
 17 18  1  0  0  0  0
 19 18  1  0  0  0  0
 20 26  1  0  0  0  0
 21 22  1  0  0  0  0
 21 20  2  0  0  0  0
 22 23  2  0  0  0  0
 23 24  1  0  0  0  0
 24 25  1  0  0  0  0
 25 28  1  0  0  0  0
 25 29  1  0  0  0  0
 26 24  2  0  0  0  0
 26 27  1  0  0  0  0
 31 30  1  0  0  0  0
 32 33  1  0  0  0  0
 32 36  1  0  0  0  0
 32 31  1  0  0  0  0
 34 33  1  0  0  0  0
 35 34  1  0  0  0  0
 35 32  1  0  0  0  0
M  END
>  <minimizedAffinity>
-4.92707825

$$$$

 OpenBabel11232419533D

 36 40  0  0  1  0  0  0  0  0999 V2000
   -7.3950   -8.7510    9.3510 C   0  0  0  0  0  0  0  0  0  0  0  0
   -6.6310   -9.8400    8.9980 C   0  0  0  0  0  3  0  0  0  0  0  0
   -7.5200  -10.8740    8.8320 N   0  0  0  0  0  0  0  0  0  0  0  0
   -8.7910  -10.3660    8.9990 C   0  0  0  0  0  0  0  0  0  0  0  0
   -8.7170   -9.1150    9.4010 N   0  0  0  0  0  0  0  0  0  0  0  0
   -6.7590   -4.9100   12.5350 C   0  0  0  0  0  1  0  0  0  0  0  0
   -6.6290   -5.5190   11.1700 C   0  0  0  0  0  0  0  0  0  0  0  0
   -7.0950   -6.8180   10.9110 C   0  0  0  0  0  3  0  0  0  0  0  0
   -6.9280   -7.4040    9.6440 C   0  0  0  0  0  0  0  0  0  0  0  0
   -6.2700   -6.6750    8.6430 C   0  0  0  0  0  3  0  0  0  0  0  0
   -5.7950   -5.3860    8.8950 C   0  0  0  0  0  3  0  0  0  0  0  0
   -5.9740   -4.8220   10.1530 C   0  0  0  0  0  0  0  0  0  0  0  0
   -5.5000   -3.5910   10.3830 F   0  0  0  0  0  0  0  0  0  0  0  0
  -10.0740  -11.1250    8.7710 C   0  0  2  0  0  3  0  0  0  0  0  0
  -11.1310  -10.2360    8.0980 C   0  0  0  0  0  2  0  0  0  0  0  0
  -11.8230   -9.2950    9.0850 C   0  0  0  0  0  2  0  0  0  0  0  0
  -12.3170  -10.0270   10.2470 N   0  0  0  0  0  0  0  0  0  0  0  0
  -11.3110  -10.7770   10.9950 C   0  0  0  0  0  2  0  0  0  0  0  0
  -10.6060  -11.7690   10.0650 C   0  0  0  0  0  2  0  0  0  0  0  0
  -13.6080  -10.5450   10.2030 C   0  0  0  0  0  0  0  0  0  0  0  0
  -13.7760  -11.7140    9.5480 N   0  0  0  0  0  0  0  0  0  0  0  0
  -15.0110  -12.2320    9.5310 C   0  0  0  0  0  3  0  0  0  0  0  0
  -16.0990  -11.7080   10.1010 N   0  0  0  0  0  0  0  0  0  0  0  0
  -15.9320  -10.5280   10.7150 C   0  0  0  0  0  0  0  0  0  0  0  0
  -17.0730  -10.0190   11.3120 N   0  0  0  0  0  0  0  0  0  0  0  0
  -14.6930   -9.8990   10.8030 C   0  0  0  0  0  0  0  0  0  0  0  0
  -14.5510   -8.1790   11.6070 Br  0  0  0  0  0  0  0  0  0  0  0  0
  -17.9000  -10.5790   11.1500 H   0  0  0  0  0  0  0  0  0  0  0  0
  -17.1840   -9.0140   11.3270 H   0  0  0  0  0  0  0  0  0  0  0  0
   -7.1330  -12.2300    8.5100 C   0  0  0  0  0  2  0  0  0  0  0  0
   -6.0900  -12.8520    9.4590 C   0  0  0  0  0  2  0  0  0  0  0  0
   -6.4930  -13.4220   10.7770 N   0  0  0  0  0  4  0  0  0  0  0  0
   -6.9840  -12.4580   11.7790 C   0  0  0  0  0  2  0  0  0  0  0  0
   -8.0210  -13.5140   12.1930 C   0  0  0  0  0  2  0  0  0  0  0  0
   -7.7720  -14.1450   10.8150 C   0  0  0  0  0  2  0  0  0  0  0  0
   -5.7260  -13.9910   11.1680 H   0  0  0  0  0  0  0  0  0  0  0  0
  1  5  1  0  0  0  0
  1  9  1  0  0  0  0
  2  1  2  0  0  0  0
  3  2  1  0  0  0  0
  3  4  1  0  0  0  0
  4  5  2  0  0  0  0
  7  6  1  0  0  0  0
  8  7  1  0  0  0  0
  9  8  2  0  0  0  0
 10 11  2  0  0  0  0
 10  9  1  0  0  0  0
 11 12  1  0  0  0  0
 12 13  1  0  0  0  0
 12  7  2  0  0  0  0
 14  4  1  1  0  0  0
 14 19  1  0  0  0  0
 15 14  1  0  0  0  0
 15 16  1  0  0  0  0
 16 17  1  0  0  0  0
 17 18  1  0  0  0  0
 19 18  1  0  0  0  0
 20 17  1  0  0  0  0
 20 26  1  0  0  0  0
 21 20  2  0  0  0  0
 22 21  1  0  0  0  0
 22 23  2  0  0  0  0
 23 24  1  0  0  0  0
 24 26  2  0  0  0  0
 24 25  1  0  0  0  0
 25 29  1  0  0  0  0
 26 27  1  0  0  0  0
 28 25  1  0  0  0  0
 30  3  1  0  0  0  0
 30 31  1  0  0  0  0
 31 32  1  0  0  0  0
 32 35  1  0  0  0  0
 32 36  1  0  0  0  0
 32 33  1  0  0  0  0
 33 34  1  0  0  0  0
 35 34  1  0  0  0  0
M  END
>  <minimizedAffinity>
-4.90710878

$$$$
