
 OpenBabel11232419443D

 38 36  0  0  0  0  0  0  0  0999 V2000
   57.9700  -42.5760   16.9460 C   0  0  0  0  0  2  0  0  0  0  0  0
   57.2380  -42.2320   18.0690 N   0  0  0  0  0  0  0  0  0  0  0  0
   55.9550  -42.6960   18.1160 C   0  0  0  0  0  0  0  0  0  0  0  0
   55.6600  -43.2700   16.9280 C   0  0  0  0  0  2  0  0  0  0  0  0
   56.7650  -43.0850   16.1380 N   0  0  0  0  0  0  0  0  0  0  0  0
   55.0820  -42.5380   19.2610 C   0  0  0  0  0  0  0  0  0  0  0  0
   53.6970  -42.7420   19.1620 C   0  0  0  0  0  3  0  0  0  0  0  0
   52.8770  -42.5890   20.2850 C   0  0  0  0  0  3  0  0  0  0  0  0
   53.4380  -42.2290   21.5050 C   0  0  0  0  0  0  0  0  0  0  0  0
   52.6330  -42.0830   22.5670 F   0  0  0  0  0  0  0  0  0  0  0  0
   54.8110  -42.0250   21.6190 C   0  0  0  0  0  0  0  0  0  0  0  0
   55.5120  -41.5720   23.1240 Cl  0  0  0  0  0  0  0  0  0  0  0  0
   55.6340  -42.1860   20.5030 C   0  0  0  0  0  3  0  0  0  0  0  0
   63.1750  -41.8090   16.1620 N   0  0  0  0  0  0  0  0  0  0  0  0
   62.7300  -42.9110   17.0040 C   0  0  0  0  0  2  0  0  0  0  0  0
   61.3960  -43.5170   16.5170 C   0  0  0  0  0  2  0  0  0  0  0  0
   60.0810  -42.3130   16.5790 C   0  0  0  0  0  2  0  0  0  0  0  0
   60.9230  -41.3780   15.2860 C   0  0  0  0  0  2  0  0  0  0  0  0
   62.2250  -40.7630   15.8340 C   0  0  0  0  0  2  0  0  0  0  0  0
   64.8060  -43.3250   15.1790 C   0  0  0  0  0  0  0  0  0  0  0  0
   65.6680  -43.5410   14.1110 C   0  0  0  0  0  0  0  0  0  0  0  0
   66.4910  -44.6500   14.0350 N   0  0  0  0  0  0  0  0  0  0  0  0
   65.8120  -42.6740   13.1040 N   0  0  0  0  0  0  0  0  0  0  0  0
   65.0320  -41.5920   13.1400 C   0  0  0  0  0  3  0  0  0  0  0  0
   64.1580  -41.2830   14.1020 N   0  0  0  0  0  0  0  0  0  0  0  0
   64.0520  -42.1500   15.1250 C   0  0  0  0  0  0  0  0  0  0  0  0
   67.0730  -44.6320   13.2040 H   0  0  0  0  0  0  0  0  0  0  0  0
   66.0940  -45.5470   14.2700 H   0  0  0  0  0  0  0  0  0  0  0  0
   65.8170  -44.3270   17.2460 C   0  0  0  0  0  1  0  0  0  0  0  0
   64.6400  -44.3410   16.2810 C   0  0  0  0  0  2  0  0  0  0  0  0
   56.6730  -43.3750   14.7210 C   0  0  0  0  0  2  0  0  0  0  0  0
   57.7030  -42.5430   14.0840 C   0  0  0  0  0  2  0  0  0  0  0  0
   58.5470  -43.4930   13.3030 N   0  0  0  0  0  2  0  0  0  0  0  0
   59.1900  -45.1560   14.3400 C   0  0  0  0  0 15  0  0  0  0  0  0
   61.1140  -45.4040   13.8140 C   0  0  0  0  0 15  0  0  0  0  0  0
   61.5980  -43.9510   12.4760 C   0  0  0  0  0 15  0  0  0  0  0  0
   60.1140  -42.6200   12.3800 C   0  0  0  0  0 15  0  0  0  0  0  0
   57.9300  -43.6480   12.5010 H   0  0  0  0  0  0  0  0  0  0  0  0
  1  2  1  0  0  0  0
  2  3  2  0  0  0  0
  3  6  1  0  0  0  0
  4  3  1  0  0  0  0
  5  4  1  0  0  0  0
  5  1  1  0  0  0  0
  6 13  1  0  0  0  0
  7  6  2  0  0  0  0
  7  8  1  0  0  0  0
  8  9  2  0  0  0  0
  9 11  1  0  0  0  0
  9 10  1  0  0  0  0
 11 12  1  0  0  0  0
 13 11  2  0  0  0  0
 14 15  1  0  0  0  0
 16 17  1  0  0  0  0
 16 15  1  0  0  0  0
 18 19  1  0  0  0  0
 18 17  1  0  0  0  0
 19 14  1  0  0  0  0
 20 30  1  0  0  0  0
 21 20  2  0  0  0  0
 22 21  1  0  0  0  0
 22 28  1  0  0  0  0
 23 24  2  0  0  0  0
 23 21  1  0  0  0  0
 24 25  1  0  0  0  0
 25 26  2  0  0  0  0
 26 20  1  0  0  0  0
 26 14  1  0  0  0  0
 27 22  1  0  0  0  0
 30 29  1  0  0  0  0
 31  5  1  0  0  0  0
 32 31  1  0  0  0  0
 33 32  1  0  0  0  0
 38 33  1  0  0  0  0
M  END
>  <minimizedAffinity>
-2.53719544

$$$$
