
 OpenBabel11232419443D

 38 36  0  0  0  0  0  0  0  0999 V2000
   56.7510  -42.9350   16.4080 C   0  0  0  0  0  2  0  0  0  0  0  0
   56.4150  -42.9110   17.7500 N   0  0  0  0  0  0  0  0  0  0  0  0
   55.0840  -43.0120   18.0370 C   0  0  0  0  0  0  0  0  0  0  0  0
   54.3850  -42.9500   16.8810 C   0  0  0  0  0  2  0  0  0  0  0  0
   55.3150  -42.7430   15.8950 N   0  0  0  0  0  0  0  0  0  0  0  0
   54.5550  -43.1240   19.3820 C   0  0  0  0  0  0  0  0  0  0  0  0
   53.3070  -42.5840   19.7280 C   0  0  0  0  0  3  0  0  0  0  0  0
   52.8170  -42.7120   21.0310 C   0  0  0  0  0  3  0  0  0  0  0  0
   53.5750  -43.3740   21.9910 C   0  0  0  0  0  0  0  0  0  0  0  0
   53.0880  -43.4800   23.2360 F   0  0  0  0  0  0  0  0  0  0  0  0
   54.8150  -43.9160   21.6630 C   0  0  0  0  0  0  0  0  0  0  0  0
   55.7620  -44.7300   22.8470 Cl  0  0  0  0  0  0  0  0  0  0  0  0
   55.3030  -43.7980   20.3600 C   0  0  0  0  0  3  0  0  0  0  0  0
   61.5340  -43.4680   14.1420 N   0  0  0  0  0  0  0  0  0  0  0  0
   60.4850  -42.7380   13.4430 C   0  0  0  0  0  2  0  0  0  0  0  0
   59.5600  -41.9710   14.4120 C   0  0  0  0  0  2  0  0  0  0  0  0
   58.7090  -43.0890   15.5110 C   0  0  0  0  0  2  0  0  0  0  0  0
   60.2960  -43.5060   16.2610 C   0  0  0  0  0  2  0  0  0  0  0  0
   61.1620  -44.3040   15.2670 C   0  0  0  0  0  2  0  0  0  0  0  0
   63.9630  -43.4850   14.2970 C   0  0  0  0  0  0  0  0  0  0  0  0
   65.1020  -42.7130   14.4880 C   0  0  0  0  0  0  0  0  0  0  0  0
   66.3710  -43.2620   14.5360 N   0  0  0  0  0  0  0  0  0  0  0  0
   65.0610  -41.3930   14.6960 N   0  0  0  0  0  0  0  0  0  0  0  0
   63.8550  -40.8260   14.6540 C   0  0  0  0  0  3  0  0  0  0  0  0
   62.6930  -41.4580   14.4640 N   0  0  0  0  0  0  0  0  0  0  0  0
   62.7510  -42.7910   14.2920 C   0  0  0  0  0  0  0  0  0  0  0  0
   67.0810  -42.5580   14.7110 H   0  0  0  0  0  0  0  0  0  0  0  0
   66.6080  -43.9580   13.8450 H   0  0  0  0  0  0  0  0  0  0  0  0
   64.8930  -45.2720   12.8010 C   0  0  0  0  0  1  0  0  0  0  0  0
   64.0470  -44.9660   14.0280 C   0  0  0  0  0  2  0  0  0  0  0  0
   54.8610  -42.3900   14.5640 C   0  0  0  0  0  2  0  0  0  0  0  0
   53.6050  -41.6560   14.7620 C   0  0  0  0  0  2  0  0  0  0  0  0
   53.9800  -40.2130   14.7110 N   0  0  0  0  0  2  0  0  0  0  0  0
   54.4650  -39.3650   16.5270 C   0  0  0  0  0 15  0  0  0  0  0  0
   53.5800  -37.5610   16.5290 C   0  0  0  0  0 15  0  0  0  0  0  0
   52.6220  -37.3230   14.7510 C   0  0  0  0  0 15  0  0  0  0  0  0
   52.6330  -39.0540   13.7570 C   0  0  0  0  0 15  0  0  0  0  0  0
   54.7160  -40.2550   14.0000 H   0  0  0  0  0  0  0  0  0  0  0  0
  1  2  1  0  0  0  0
  2  3  2  0  0  0  0
  3  6  1  0  0  0  0
  4  3  1  0  0  0  0
  5  1  1  0  0  0  0
  5  4  1  0  0  0  0
  6  7  2  0  0  0  0
  6 13  1  0  0  0  0
  7  8  1  0  0  0  0
  8  9  2  0  0  0  0
  9 10  1  0  0  0  0
 11  9  1  0  0  0  0
 11 12  1  0  0  0  0
 13 11  2  0  0  0  0
 14 26  1  0  0  0  0
 14 19  1  0  0  0  0
 15 14  1  0  0  0  0
 15 16  1  0  0  0  0
 16 17  1  0  0  0  0
 17 18  1  0  0  0  0
 19 18  1  0  0  0  0
 20 21  1  0  0  0  0
 21 22  1  0  0  0  0
 21 23  2  0  0  0  0
 22 27  1  0  0  0  0
 24 23  1  0  0  0  0
 25 24  2  0  0  0  0
 26 20  2  0  0  0  0
 26 25  1  0  0  0  0
 28 22  1  0  0  0  0
 29 30  1  0  0  0  0
 30 20  1  0  0  0  0
 31 32  1  0  0  0  0
 31  5  1  0  0  0  0
 33 32  1  0  0  0  0
 38 33  1  0  0  0  0
M  END
>  <minimizedAffinity>
-2.82352495

$$$$
