
 OpenBabel11232419443D

 38 36  0  0  0  0  0  0  0  0999 V2000
   57.5690  -42.6400   17.2150 C   0  0  0  0  0  2  0  0  0  0  0  0
   56.9220  -41.4470   17.4820 N   0  0  0  0  0  0  0  0  0  0  0  0
   55.6400  -41.5490   17.9410 C   0  0  0  0  0  0  0  0  0  0  0  0
   55.2560  -42.8430   17.8670 C   0  0  0  0  0  2  0  0  0  0  0  0
   56.3060  -43.5110   17.2920 N   0  0  0  0  0  0  0  0  0  0  0  0
   54.8500  -40.4180   18.3850 C   0  0  0  0  0  0  0  0  0  0  0  0
   53.9170  -40.5380   19.4270 C   0  0  0  0  0  3  0  0  0  0  0  0
   53.1720  -39.4290   19.8410 C   0  0  0  0  0  3  0  0  0  0  0  0
   53.3550  -38.2020   19.2120 C   0  0  0  0  0  0  0  0  0  0  0  0
   52.6260  -37.1530   19.6220 F   0  0  0  0  0  0  0  0  0  0  0  0
   54.2780  -38.0670   18.1790 C   0  0  0  0  0  0  0  0  0  0  0  0
   54.5050  -36.5540   17.3920 Cl  0  0  0  0  0  0  0  0  0  0  0  0
   55.0300  -39.1700   17.7700 C   0  0  0  0  0  3  0  0  0  0  0  0
   62.7390  -43.4380   16.2470 N   0  0  0  0  0  0  0  0  0  0  0  0
   61.8420  -44.5820   16.3530 C   0  0  0  0  0  2  0  0  0  0  0  0
   60.4300  -44.2700   15.8130 C   0  0  0  0  0  2  0  0  0  0  0  0
   59.6530  -42.9700   16.7550 C   0  0  0  0  0  2  0  0  0  0  0  0
   60.8960  -41.8210   16.1310 C   0  0  0  0  0  2  0  0  0  0  0  0
   62.2760  -42.1510   16.7300 C   0  0  0  0  0  2  0  0  0  0  0  0
   64.6550  -42.5700   15.0230 C   0  0  0  0  0  0  0  0  0  0  0  0
   65.3320  -42.5670   13.8090 C   0  0  0  0  0  0  0  0  0  0  0  0
   66.4600  -41.7980   13.5910 N   0  0  0  0  0  0  0  0  0  0  0  0
   64.9180  -43.2600   12.7440 N   0  0  0  0  0  0  0  0  0  0  0  0
   63.8340  -44.0180   12.9160 C   0  0  0  0  0  3  0  0  0  0  0  0
   63.1100  -44.1140   14.0350 N   0  0  0  0  0  0  0  0  0  0  0  0
   63.5200  -43.3820   15.0860 C   0  0  0  0  0  0  0  0  0  0  0  0
   66.8060  -41.8960   12.6420 H   0  0  0  0  0  0  0  0  0  0  0  0
   67.1650  -41.7810   14.3120 H   0  0  0  0  0  0  0  0  0  0  0  0
   66.1530  -42.6270   17.0360 C   0  0  0  0  0  1  0  0  0  0  0  0
   65.1680  -41.8050   16.2170 C   0  0  0  0  0  2  0  0  0  0  0  0
   56.1130  -44.8790   16.8530 C   0  0  0  0  0  2  0  0  0  0  0  0
   54.8860  -44.8610   16.0450 C   0  0  0  0  0  2  0  0  0  0  0  0
   55.3230  -44.4600   14.6760 N   0  0  0  0  0  2  0  0  0  0  0  0
   57.2250  -45.0570   14.1490 C   0  0  0  0  0 15  0  0  0  0  0  0
   58.0420  -43.4770   13.2130 C   0  0  0  0  0 15  0  0  0  0  0  0
   56.6560  -41.9890   13.1540 C   0  0  0  0  0 15  0  0  0  0  0  0
   55.0960  -42.4920   14.2930 C   0  0  0  0  0 15  0  0  0  0  0  0
   54.5430  -44.8400   14.1320 H   0  0  0  0  0  0  0  0  0  0  0  0
  1  5  1  0  0  0  0
  1  2  1  0  0  0  0
  2  3  2  0  0  0  0
  3  6  1  0  0  0  0
  4  3  1  0  0  0  0
  5  4  1  0  0  0  0
  6  7  1  0  0  0  0
  7  8  2  0  0  0  0
  9 10  1  0  0  0  0
  9  8  1  0  0  0  0
 11  9  2  0  0  0  0
 12 11  1  0  0  0  0
 13 11  1  0  0  0  0
 13  6  2  0  0  0  0
 14 15  1  0  0  0  0
 14 19  1  0  0  0  0
 16 15  1  0  0  0  0
 16 17  1  0  0  0  0
 18 19  1  0  0  0  0
 18 17  1  0  0  0  0
 20 26  1  0  0  0  0
 20 30  1  0  0  0  0
 21 20  2  0  0  0  0
 22 21  1  0  0  0  0
 22 28  1  0  0  0  0
 23 24  2  0  0  0  0
 23 21  1  0  0  0  0
 24 25  1  0  0  0  0
 25 26  2  0  0  0  0
 26 14  1  0  0  0  0
 27 22  1  0  0  0  0
 30 29  1  0  0  0  0
 31  5  1  0  0  0  0
 32 31  1  0  0  0  0
 33 32  1  0  0  0  0
 38 33  1  0  0  0  0
M  END
>  <minimizedAffinity>
-4.17766714

$$$$

 OpenBabel11232419443D

 38 36  0  0  0  0  0  0  0  0999 V2000
   57.3430  -43.6670   17.0800 C   0  0  0  0  0  2  0  0  0  0  0  0
   56.7170  -43.5880   18.3120 N   0  0  0  0  0  0  0  0  0  0  0  0
   55.4940  -44.1880   18.4030 C   0  0  0  0  0  0  0  0  0  0  0  0
   55.1160  -44.5910   17.1690 C   0  0  0  0  0  2  0  0  0  0  0  0
   56.1040  -44.1640   16.3190 N   0  0  0  0  0  0  0  0  0  0  0  0
   54.7460  -44.3100   19.6390 C   0  0  0  0  0  0  0  0  0  0  0  0
   53.7050  -45.2410   19.7780 C   0  0  0  0  0  3  0  0  0  0  0  0
   53.0040  -45.3430   20.9830 C   0  0  0  0  0  3  0  0  0  0  0  0
   53.3390  -44.5140   22.0490 C   0  0  0  0  0  0  0  0  0  0  0  0
   52.6500  -44.6260   23.1940 F   0  0  0  0  0  0  0  0  0  0  0  0
   54.3700  -43.5880   21.9270 C   0  0  0  0  0  0  0  0  0  0  0  0
   54.7860  -42.5540   23.2370 Cl  0  0  0  0  0  0  0  0  0  0  0  0
   55.0790  -43.4890   20.7270 C   0  0  0  0  0  3  0  0  0  0  0  0
   62.3270  -42.2180   15.9200 N   0  0  0  0  0  0  0  0  0  0  0  0
   62.0950  -43.3950   16.7460 C   0  0  0  0  0  2  0  0  0  0  0  0
   60.8110  -44.1490   16.3410 C   0  0  0  0  0  2  0  0  0  0  0  0
   59.3670  -43.1250   16.5580 C   0  0  0  0  0  2  0  0  0  0  0  0
   59.9740  -42.0490   15.2440 C   0  0  0  0  0  2  0  0  0  0  0  0
   61.2310  -41.2910   15.7140 C   0  0  0  0  0  2  0  0  0  0  0  0
   64.4710  -41.9550   14.7980 C   0  0  0  0  0  0  0  0  0  0  0  0
   65.1810  -42.1700   13.6220 C   0  0  0  0  0  0  0  0  0  0  0  0
   66.4910  -41.7580   13.4620 N   0  0  0  0  0  0  0  0  0  0  0  0
   64.6420  -42.7390   12.5400 N   0  0  0  0  0  0  0  0  0  0  0  0
   63.3790  -43.1530   12.6570 C   0  0  0  0  0  3  0  0  0  0  0  0
   62.6020  -43.0160   13.7360 N   0  0  0  0  0  0  0  0  0  0  0  0
   63.1500  -42.4100   14.8030 C   0  0  0  0  0  0  0  0  0  0  0  0
   66.8430  -41.9700   12.5340 H   0  0  0  0  0  0  0  0  0  0  0  0
   67.1340  -41.9270   14.2200 H   0  0  0  0  0  0  0  0  0  0  0  0
   65.7100  -42.4030   16.9340 C   0  0  0  0  0  1  0  0  0  0  0  0
   65.1210  -41.3440   16.0140 C   0  0  0  0  0  2  0  0  0  0  0  0
   55.8760  -44.2300   14.8890 C   0  0  0  0  0  2  0  0  0  0  0  0
   56.0970  -42.8650   14.3940 C   0  0  0  0  0  2  0  0  0  0  0  0
   54.7640  -42.1990   14.4710 N   0  0  0  0  0  2  0  0  0  0  0  0
   54.1580  -41.2420   12.7480 C   0  0  0  0  0 15  0  0  0  0  0  0
   53.3590  -39.5010   13.3550 C   0  0  0  0  0 15  0  0  0  0  0  0
   53.4540  -39.4340   15.3860 C   0  0  0  0  0 15  0  0  0  0  0  0
   54.5650  -40.9550   16.0460 C   0  0  0  0  0 15  0  0  0  0  0  0
   54.1980  -42.9900   14.7940 H   0  0  0  0  0  0  0  0  0  0  0  0
  1  2  1  0  0  0  0
  2  3  2  0  0  0  0
  3  6  1  0  0  0  0
  4  3  1  0  0  0  0
  5  1  1  0  0  0  0
  5  4  1  0  0  0  0
  6  7  2  0  0  0  0
  6 13  1  0  0  0  0
  7  8  1  0  0  0  0
  8  9  2  0  0  0  0
  9 10  1  0  0  0  0
 11  9  1  0  0  0  0
 11 12  1  0  0  0  0
 13 11  2  0  0  0  0
 14 15  1  0  0  0  0
 16 17  1  0  0  0  0
 16 15  1  0  0  0  0
 18 19  1  0  0  0  0
 18 17  1  0  0  0  0
 19 14  1  0  0  0  0
 20 26  1  0  0  0  0
 20 30  1  0  0  0  0
 21 20  2  0  0  0  0
 22 21  1  0  0  0  0
 22 28  1  0  0  0  0
 23 24  2  0  0  0  0
 23 21  1  0  0  0  0
 24 25  1  0  0  0  0
 25 26  2  0  0  0  0
 26 14  1  0  0  0  0
 27 22  1  0  0  0  0
 30 29  1  0  0  0  0
 31  5  1  0  0  0  0
 32 33  1  0  0  0  0
 32 31  1  0  0  0  0
 33 38  1  0  0  0  0
M  END
>  <minimizedAffinity>
-4.07977152

$$$$

 OpenBabel11232419443D

 38 36  0  0  0  0  0  0  0  0999 V2000
   56.7200  -42.4080   16.6410 C   0  0  0  0  0  2  0  0  0  0  0  0
   56.2630  -41.1800   17.0850 N   0  0  0  0  0  0  0  0  0  0  0  0
   54.9610  -41.1360   17.4940 C   0  0  0  0  0  0  0  0  0  0  0  0
   54.3760  -42.3190   17.2020 C   0  0  0  0  0  2  0  0  0  0  0  0
   55.3300  -43.0560   16.5480 N   0  0  0  0  0  0  0  0  0  0  0  0
   54.3450  -39.9720   18.1000 C   0  0  0  0  0  0  0  0  0  0  0  0
   53.4990  -40.0850   19.2130 C   0  0  0  0  0  3  0  0  0  0  0  0
   52.9220  -38.9460   19.7830 C   0  0  0  0  0  3  0  0  0  0  0  0
   53.1870  -37.6940   19.2390 C   0  0  0  0  0  0  0  0  0  0  0  0
   52.6200  -36.6150   19.7990 F   0  0  0  0  0  0  0  0  0  0  0  0
   54.0270  -37.5650   18.1360 C   0  0  0  0  0  0  0  0  0  0  0  0
   54.3540  -36.0200   17.4530 Cl  0  0  0  0  0  0  0  0  0  0  0  0
   54.6120  -38.7000   17.5710 C   0  0  0  0  0  3  0  0  0  0  0  0
   61.6420  -44.0330   15.4430 N   0  0  0  0  0  0  0  0  0  0  0  0
   60.9130  -43.1930   14.5020 C   0  0  0  0  0  2  0  0  0  0  0  0
   59.9940  -42.1780   15.2140 C   0  0  0  0  0  2  0  0  0  0  0  0
   58.7420  -43.0070   16.1770 C   0  0  0  0  0  2  0  0  0  0  0  0
   60.0400  -43.6360   17.2600 C   0  0  0  0  0  2  0  0  0  0  0  0
   60.9020  -44.6720   16.5150 C   0  0  0  0  0  2  0  0  0  0  0  0
   64.0630  -44.1300   15.2200 C   0  0  0  0  0  0  0  0  0  0  0  0
   65.2760  -43.6280   15.6790 C   0  0  0  0  0  0  0  0  0  0  0  0
   66.4930  -44.0880   15.2110 N   0  0  0  0  0  0  0  0  0  0  0  0
   65.3640  -42.7060   16.6420 N   0  0  0  0  0  0  0  0  0  0  0  0
   64.2110  -42.2340   17.1160 C   0  0  0  0  0  3  0  0  0  0  0  0
   62.9880  -42.6270   16.7460 N   0  0  0  0  0  0  0  0  0  0  0  0
   62.9180  -43.5810   15.8010 C   0  0  0  0  0  0  0  0  0  0  0  0
   67.2730  -43.6330   15.6740 H   0  0  0  0  0  0  0  0  0  0  0  0
   66.5950  -44.2220   14.2160 H   0  0  0  0  0  0  0  0  0  0  0  0
   64.1210  -44.4910   12.7380 C   0  0  0  0  0  1  0  0  0  0  0  0
   63.9980  -45.1450   14.1060 C   0  0  0  0  0  2  0  0  0  0  0  0
   54.9380  -44.2850   15.8880 C   0  0  0  0  0  2  0  0  0  0  0  0
   53.9000  -43.8980   14.9240 C   0  0  0  0  0  2  0  0  0  0  0  0
   54.6290  -43.6260   13.6510 N   0  0  0  0  0  2  0  0  0  0  0  0
   56.2750  -44.8190   13.3060 C   0  0  0  0  0 15  0  0  0  0  0  0
   57.6930  -43.5830   12.5980 C   0  0  0  0  0 15  0  0  0  0  0  0
   56.9070  -41.7110   12.4910 C   0  0  0  0  0 15  0  0  0  0  0  0
   55.1280  -41.6880   13.3970 C   0  0  0  0  0 15  0  0  0  0  0  0
   53.8490  -43.6980   12.9910 H   0  0  0  0  0  0  0  0  0  0  0  0
  1  2  1  0  0  0  0
  2  3  2  0  0  0  0
  3  6  1  0  0  0  0
  4  3  1  0  0  0  0
  5  1  1  0  0  0  0
  5  4  1  0  0  0  0
  6  7  1  0  0  0  0
  7  8  2  0  0  0  0
  9  8  1  0  0  0  0
  9 10  1  0  0  0  0
 11  9  2  0  0  0  0
 12 11  1  0  0  0  0
 13  6  2  0  0  0  0
 13 11  1  0  0  0  0
 14 26  1  0  0  0  0
 14 19  1  0  0  0  0
 15 16  1  0  0  0  0
 15 14  1  0  0  0  0
 16 17  1  0  0  0  0
 17 18  1  0  0  0  0
 19 18  1  0  0  0  0
 20 21  2  0  0  0  0
 20 26  1  0  0  0  0
 21 23  1  0  0  0  0
 22 27  1  0  0  0  0
 22 21  1  0  0  0  0
 23 24  2  0  0  0  0
 25 24  1  0  0  0  0
 26 25  2  0  0  0  0
 28 22  1  0  0  0  0
 29 30  1  0  0  0  0
 30 20  1  0  0  0  0
 31  5  1  0  0  0  0
 32 31  1  0  0  0  0
 33 32  1  0  0  0  0
 38 33  1  0  0  0  0
M  END
>  <minimizedAffinity>
-3.85853815

$$$$

 OpenBabel11232419443D

 38 36  0  0  0  0  0  0  0  0999 V2000
   57.3860  -44.0710   17.1040 C   0  0  0  0  0  2  0  0  0  0  0  0
   56.8050  -43.5440   18.2440 N   0  0  0  0  0  0  0  0  0  0  0  0
   55.5270  -43.9480   18.5070 C   0  0  0  0  0  0  0  0  0  0  0  0
   55.0770  -44.6720   17.4580 C   0  0  0  0  0  2  0  0  0  0  0  0
   56.0820  -44.6410   16.5250 N   0  0  0  0  0  0  0  0  0  0  0  0
   54.8030  -43.5970   19.7130 C   0  0  0  0  0  0  0  0  0  0  0  0
   54.7360  -44.4700   20.8100 C   0  0  0  0  0  3  0  0  0  0  0  0
   54.0370  -44.1040   21.9640 C   0  0  0  0  0  3  0  0  0  0  0  0
   53.3990  -42.8690   22.0220 C   0  0  0  0  0  0  0  0  0  0  0  0
   52.7300  -42.5410   23.1360 F   0  0  0  0  0  0  0  0  0  0  0  0
   53.4580  -41.9920   20.9430 C   0  0  0  0  0  0  0  0  0  0  0  0
   52.6660  -40.4660   21.0030 Cl  0  0  0  0  0  0  0  0  0  0  0  0
   54.1640  -42.3500   19.7920 C   0  0  0  0  0  3  0  0  0  0  0  0
   62.4980  -43.8340   15.6530 N   0  0  0  0  0  0  0  0  0  0  0  0
   61.6510  -44.8960   15.1270 C   0  0  0  0  0  2  0  0  0  0  0  0
   60.1940  -44.4300   14.9150 C   0  0  0  0  0  2  0  0  0  0  0  0
   59.4430  -43.9430   16.4570 C   0  0  0  0  0  2  0  0  0  0  0  0
   60.5990  -42.5610   16.5460 C   0  0  0  0  0  2  0  0  0  0  0  0
   62.0290  -43.0780   16.7990 C   0  0  0  0  0  2  0  0  0  0  0  0
   64.5690  -42.8680   14.8170 C   0  0  0  0  0  0  0  0  0  0  0  0
   65.1460  -42.0760   13.8300 C   0  0  0  0  0  0  0  0  0  0  0  0
   66.4930  -41.7620   13.8250 N   0  0  0  0  0  0  0  0  0  0  0  0
   64.4410  -41.5120   12.8450 N   0  0  0  0  0  0  0  0  0  0  0  0
   63.1380  -41.7940   12.8140 C   0  0  0  0  0  3  0  0  0  0  0  0
   62.4750  -42.5510   13.6950 N   0  0  0  0  0  0  0  0  0  0  0  0
   63.1940  -43.0810   14.6990 C   0  0  0  0  0  0  0  0  0  0  0  0
   66.7360  -41.1530   13.0510 H   0  0  0  0  0  0  0  0  0  0  0  0
   67.1500  -42.5030   14.0190 H   0  0  0  0  0  0  0  0  0  0  0  0
   65.6420  -42.5810   17.0670 C   0  0  0  0  0  1  0  0  0  0  0  0
   65.4000  -43.5200   15.8940 C   0  0  0  0  0  2  0  0  0  0  0  0
   55.8120  -45.1240   15.1860 C   0  0  0  0  0  2  0  0  0  0  0  0
   56.6640  -44.3190   14.3010 C   0  0  0  0  0  2  0  0  0  0  0  0
   55.7220  -43.6090   13.3870 N   0  0  0  0  0  2  0  0  0  0  0  0
   54.9610  -41.8350   14.1120 C   0  0  0  0  0 15  0  0  0  0  0  0
   53.0120  -41.8500   13.6250 C   0  0  0  0  0 15  0  0  0  0  0  0
   52.6250  -43.5680   12.6090 C   0  0  0  0  0 15  0  0  0  0  0  0
   54.2170  -44.7690   12.7090 C   0  0  0  0  0 15  0  0  0  0  0  0
   56.3050  -43.5630   12.5460 H   0  0  0  0  0  0  0  0  0  0  0  0
  1  2  1  0  0  0  0
  2  3  2  0  0  0  0
  3  6  1  0  0  0  0
  4  3  1  0  0  0  0
  5  1  1  0  0  0  0
  5  4  1  0  0  0  0
  6 13  2  0  0  0  0
  6  7  1  0  0  0  0
  7  8  2  0  0  0  0
  8  9  1  0  0  0  0
  9 10  1  0  0  0  0
 11 12  1  0  0  0  0
 11  9  2  0  0  0  0
 13 11  1  0  0  0  0
 14 19  1  0  0  0  0
 15 14  1  0  0  0  0
 16 15  1  0  0  0  0
 16 17  1  0  0  0  0
 17 18  1  0  0  0  0
 18 19  1  0  0  0  0
 20 30  1  0  0  0  0
 21 20  2  0  0  0  0
 22 21  1  0  0  0  0
 22 28  1  0  0  0  0
 23 21  1  0  0  0  0
 24 23  2  0  0  0  0
 24 25  1  0  0  0  0
 25 26  2  0  0  0  0
 26 20  1  0  0  0  0
 26 14  1  0  0  0  0
 27 22  1  0  0  0  0
 30 29  1  0  0  0  0
 31  5  1  0  0  0  0
 32 31  1  0  0  0  0
 33 32  1  0  0  0  0
 38 33  1  0  0  0  0
M  END
>  <minimizedAffinity>
-2.90647197

$$$$

 OpenBabel11232419443D

 38 36  0  0  0  0  0  0  0  0999 V2000
   56.7510  -42.9350   16.4080 C   0  0  0  0  0  2  0  0  0  0  0  0
   56.4150  -42.9110   17.7500 N   0  0  0  0  0  0  0  0  0  0  0  0
   55.0840  -43.0120   18.0370 C   0  0  0  0  0  0  0  0  0  0  0  0
   54.3850  -42.9500   16.8810 C   0  0  0  0  0  2  0  0  0  0  0  0
   55.3150  -42.7430   15.8950 N   0  0  0  0  0  0  0  0  0  0  0  0
   54.5550  -43.1240   19.3820 C   0  0  0  0  0  0  0  0  0  0  0  0
   53.3070  -42.5840   19.7280 C   0  0  0  0  0  3  0  0  0  0  0  0
   52.8170  -42.7120   21.0310 C   0  0  0  0  0  3  0  0  0  0  0  0
   53.5750  -43.3740   21.9910 C   0  0  0  0  0  0  0  0  0  0  0  0
   53.0880  -43.4800   23.2360 F   0  0  0  0  0  0  0  0  0  0  0  0
   54.8150  -43.9160   21.6630 C   0  0  0  0  0  0  0  0  0  0  0  0
   55.7620  -44.7300   22.8470 Cl  0  0  0  0  0  0  0  0  0  0  0  0
   55.3030  -43.7980   20.3600 C   0  0  0  0  0  3  0  0  0  0  0  0
   61.5340  -43.4680   14.1420 N   0  0  0  0  0  0  0  0  0  0  0  0
   60.4850  -42.7380   13.4430 C   0  0  0  0  0  2  0  0  0  0  0  0
   59.5600  -41.9710   14.4120 C   0  0  0  0  0  2  0  0  0  0  0  0
   58.7090  -43.0890   15.5110 C   0  0  0  0  0  2  0  0  0  0  0  0
   60.2960  -43.5060   16.2610 C   0  0  0  0  0  2  0  0  0  0  0  0
   61.1620  -44.3040   15.2670 C   0  0  0  0  0  2  0  0  0  0  0  0
   63.9630  -43.4850   14.2970 C   0  0  0  0  0  0  0  0  0  0  0  0
   65.1020  -42.7130   14.4880 C   0  0  0  0  0  0  0  0  0  0  0  0
   66.3710  -43.2620   14.5360 N   0  0  0  0  0  0  0  0  0  0  0  0
   65.0610  -41.3930   14.6960 N   0  0  0  0  0  0  0  0  0  0  0  0
   63.8550  -40.8260   14.6540 C   0  0  0  0  0  3  0  0  0  0  0  0
   62.6930  -41.4580   14.4640 N   0  0  0  0  0  0  0  0  0  0  0  0
   62.7510  -42.7910   14.2920 C   0  0  0  0  0  0  0  0  0  0  0  0
   67.0810  -42.5580   14.7110 H   0  0  0  0  0  0  0  0  0  0  0  0
   66.6080  -43.9580   13.8450 H   0  0  0  0  0  0  0  0  0  0  0  0
   64.8930  -45.2720   12.8010 C   0  0  0  0  0  1  0  0  0  0  0  0
   64.0470  -44.9660   14.0280 C   0  0  0  0  0  2  0  0  0  0  0  0
   54.8610  -42.3900   14.5640 C   0  0  0  0  0  2  0  0  0  0  0  0
   53.6050  -41.6560   14.7620 C   0  0  0  0  0  2  0  0  0  0  0  0
   53.9800  -40.2130   14.7110 N   0  0  0  0  0  2  0  0  0  0  0  0
   54.4650  -39.3650   16.5270 C   0  0  0  0  0 15  0  0  0  0  0  0
   53.5800  -37.5610   16.5290 C   0  0  0  0  0 15  0  0  0  0  0  0
   52.6220  -37.3230   14.7510 C   0  0  0  0  0 15  0  0  0  0  0  0
   52.6330  -39.0540   13.7570 C   0  0  0  0  0 15  0  0  0  0  0  0
   54.7160  -40.2550   14.0000 H   0  0  0  0  0  0  0  0  0  0  0  0
  1  2  1  0  0  0  0
  2  3  2  0  0  0  0
  3  6  1  0  0  0  0
  4  3  1  0  0  0  0
  5  1  1  0  0  0  0
  5  4  1  0  0  0  0
  6  7  2  0  0  0  0
  6 13  1  0  0  0  0
  7  8  1  0  0  0  0
  8  9  2  0  0  0  0
  9 10  1  0  0  0  0
 11  9  1  0  0  0  0
 11 12  1  0  0  0  0
 13 11  2  0  0  0  0
 14 26  1  0  0  0  0
 14 19  1  0  0  0  0
 15 14  1  0  0  0  0
 15 16  1  0  0  0  0
 16 17  1  0  0  0  0
 17 18  1  0  0  0  0
 19 18  1  0  0  0  0
 20 21  1  0  0  0  0
 21 22  1  0  0  0  0
 21 23  2  0  0  0  0
 22 27  1  0  0  0  0
 24 23  1  0  0  0  0
 25 24  2  0  0  0  0
 26 20  2  0  0  0  0
 26 25  1  0  0  0  0
 28 22  1  0  0  0  0
 29 30  1  0  0  0  0
 30 20  1  0  0  0  0
 31 32  1  0  0  0  0
 31  5  1  0  0  0  0
 33 32  1  0  0  0  0
 38 33  1  0  0  0  0
M  END
>  <minimizedAffinity>
-2.82352495

$$$$

 OpenBabel11232419443D

 38 36  0  0  0  0  0  0  0  0999 V2000
   57.1770  -43.9910   16.5820 C   0  0  0  0  0  2  0  0  0  0  0  0
   56.5790  -43.6240   17.7740 N   0  0  0  0  0  0  0  0  0  0  0  0
   55.3560  -44.1770   18.0270 C   0  0  0  0  0  0  0  0  0  0  0  0
   54.9500  -44.8510   16.9280 C   0  0  0  0  0  2  0  0  0  0  0  0
   55.9210  -44.6410   15.9820 N   0  0  0  0  0  0  0  0  0  0  0  0
   54.6360  -44.0040   19.2730 C   0  0  0  0  0  0  0  0  0  0  0  0
   53.5360  -44.8110   19.6030 C   0  0  0  0  0  3  0  0  0  0  0  0
   52.8620  -44.6290   20.8140 C   0  0  0  0  0  3  0  0  0  0  0  0
   53.2830  -43.6370   21.6950 C   0  0  0  0  0  0  0  0  0  0  0  0
   52.6190  -43.4760   22.8490 F   0  0  0  0  0  0  0  0  0  0  0  0
   54.3730  -42.8300   21.3820 C   0  0  0  0  0  0  0  0  0  0  0  0
   54.8950  -41.5970   22.4630 Cl  0  0  0  0  0  0  0  0  0  0  0  0
   55.0540  -43.0160   20.1780 C   0  0  0  0  0  3  0  0  0  0  0  0
   62.0800  -42.8970   14.8320 N   0  0  0  0  0  0  0  0  0  0  0  0
   61.6660  -42.4290   16.1480 C   0  0  0  0  0  2  0  0  0  0  0  0
   60.6990  -43.4130   16.8410 C   0  0  0  0  0  2  0  0  0  0  0  0
   59.1910  -43.6010   15.9080 C   0  0  0  0  0  2  0  0  0  0  0  0
   60.1430  -44.3850   14.5910 C   0  0  0  0  0  2  0  0  0  0  0  0
   61.0590  -43.3530   13.9070 C   0  0  0  0  0  2  0  0  0  0  0  0
   64.2890  -43.2990   13.8930 C   0  0  0  0  0  0  0  0  0  0  0  0
   65.4130  -44.1170   13.9220 C   0  0  0  0  0  0  0  0  0  0  0  0
   66.4900  -43.9260   13.0760 N   0  0  0  0  0  0  0  0  0  0  0  0
   65.5200  -45.1800   14.7240 N   0  0  0  0  0  0  0  0  0  0  0  0
   64.5020  -45.3950   15.5590 C   0  0  0  0  0  3  0  0  0  0  0  0
   63.3790  -44.6730   15.6340 N   0  0  0  0  0  0  0  0  0  0  0  0
   63.2740  -43.6290   14.7940 C   0  0  0  0  0  0  0  0  0  0  0  0
   67.2080  -44.6300   13.2130 H   0  0  0  0  0  0  0  0  0  0  0  0
   66.8240  -42.9830   12.9440 H   0  0  0  0  0  0  0  0  0  0  0  0
   64.3330  -40.7920   13.7930 C   0  0  0  0  0  1  0  0  0  0  0  0
   64.2160  -42.0860   13.0010 C   0  0  0  0  0  2  0  0  0  0  0  0
   55.6620  -45.0340   14.6110 C   0  0  0  0  0  2  0  0  0  0  0  0
   55.7240  -43.7920   13.8300 C   0  0  0  0  0  2  0  0  0  0  0  0
   54.4670  -43.0580   14.1570 N   0  0  0  0  0  2  0  0  0  0  0  0
   53.2520  -42.6300   12.5470 C   0  0  0  0  0 15  0  0  0  0  0  0
   52.6230  -40.7440   12.8370 C   0  0  0  0  0 15  0  0  0  0  0  0
   53.4110  -40.0750   14.5880 C   0  0  0  0  0 15  0  0  0  0  0  0
   54.7600  -41.3880   15.2510 C   0  0  0  0  0 15  0  0  0  0  0  0
   54.0910  -43.6810   14.8780 H   0  0  0  0  0  0  0  0  0  0  0  0
  1  2  1  0  0  0  0
  2  3  2  0  0  0  0
  3  6  1  0  0  0  0
  4  3  1  0  0  0  0
  5  1  1  0  0  0  0
  5  4  1  0  0  0  0
  6  7  2  0  0  0  0
  6 13  1  0  0  0  0
  7  8  1  0  0  0  0
  8  9  2  0  0  0  0
  9 10  1  0  0  0  0
 11  9  1  0  0  0  0
 11 12  1  0  0  0  0
 13 11  2  0  0  0  0
 14 15  1  0  0  0  0
 15 16  1  0  0  0  0
 17 16  1  0  0  0  0
 18 17  1  0  0  0  0
 19 18  1  0  0  0  0
 19 14  1  0  0  0  0
 20 21  2  0  0  0  0
 20 26  1  0  0  0  0
 21 23  1  0  0  0  0
 22 27  1  0  0  0  0
 22 21  1  0  0  0  0
 23 24  2  0  0  0  0
 24 25  1  0  0  0  0
 26 14  1  0  0  0  0
 26 25  2  0  0  0  0
 28 22  1  0  0  0  0
 30 29  1  0  0  0  0
 30 20  1  0  0  0  0
 31  5  1  0  0  0  0
 32 33  1  0  0  0  0
 32 31  1  0  0  0  0
 33 38  1  0  0  0  0
M  END
>  <minimizedAffinity>
-2.64953089

$$$$

 OpenBabel11232419443D

 38 36  0  0  0  0  0  0  0  0999 V2000
   57.9700  -42.5760   16.9460 C   0  0  0  0  0  2  0  0  0  0  0  0
   57.2380  -42.2320   18.0690 N   0  0  0  0  0  0  0  0  0  0  0  0
   55.9550  -42.6960   18.1160 C   0  0  0  0  0  0  0  0  0  0  0  0
   55.6600  -43.2700   16.9280 C   0  0  0  0  0  2  0  0  0  0  0  0
   56.7650  -43.0850   16.1380 N   0  0  0  0  0  0  0  0  0  0  0  0
   55.0820  -42.5380   19.2610 C   0  0  0  0  0  0  0  0  0  0  0  0
   53.6970  -42.7420   19.1620 C   0  0  0  0  0  3  0  0  0  0  0  0
   52.8770  -42.5890   20.2850 C   0  0  0  0  0  3  0  0  0  0  0  0
   53.4380  -42.2290   21.5050 C   0  0  0  0  0  0  0  0  0  0  0  0
   52.6330  -42.0830   22.5670 F   0  0  0  0  0  0  0  0  0  0  0  0
   54.8110  -42.0250   21.6190 C   0  0  0  0  0  0  0  0  0  0  0  0
   55.5120  -41.5720   23.1240 Cl  0  0  0  0  0  0  0  0  0  0  0  0
   55.6340  -42.1860   20.5030 C   0  0  0  0  0  3  0  0  0  0  0  0
   63.1750  -41.8090   16.1620 N   0  0  0  0  0  0  0  0  0  0  0  0
   62.7300  -42.9110   17.0040 C   0  0  0  0  0  2  0  0  0  0  0  0
   61.3960  -43.5170   16.5170 C   0  0  0  0  0  2  0  0  0  0  0  0
   60.0810  -42.3130   16.5790 C   0  0  0  0  0  2  0  0  0  0  0  0
   60.9230  -41.3780   15.2860 C   0  0  0  0  0  2  0  0  0  0  0  0
   62.2250  -40.7630   15.8340 C   0  0  0  0  0  2  0  0  0  0  0  0
   64.8060  -43.3250   15.1790 C   0  0  0  0  0  0  0  0  0  0  0  0
   65.6680  -43.5410   14.1110 C   0  0  0  0  0  0  0  0  0  0  0  0
   66.4910  -44.6500   14.0350 N   0  0  0  0  0  0  0  0  0  0  0  0
   65.8120  -42.6740   13.1040 N   0  0  0  0  0  0  0  0  0  0  0  0
   65.0320  -41.5920   13.1400 C   0  0  0  0  0  3  0  0  0  0  0  0
   64.1580  -41.2830   14.1020 N   0  0  0  0  0  0  0  0  0  0  0  0
   64.0520  -42.1500   15.1250 C   0  0  0  0  0  0  0  0  0  0  0  0
   67.0730  -44.6320   13.2040 H   0  0  0  0  0  0  0  0  0  0  0  0
   66.0940  -45.5470   14.2700 H   0  0  0  0  0  0  0  0  0  0  0  0
   65.8170  -44.3270   17.2460 C   0  0  0  0  0  1  0  0  0  0  0  0
   64.6400  -44.3410   16.2810 C   0  0  0  0  0  2  0  0  0  0  0  0
   56.6730  -43.3750   14.7210 C   0  0  0  0  0  2  0  0  0  0  0  0
   57.7030  -42.5430   14.0840 C   0  0  0  0  0  2  0  0  0  0  0  0
   58.5470  -43.4930   13.3030 N   0  0  0  0  0  2  0  0  0  0  0  0
   59.1900  -45.1560   14.3400 C   0  0  0  0  0 15  0  0  0  0  0  0
   61.1140  -45.4040   13.8140 C   0  0  0  0  0 15  0  0  0  0  0  0
   61.5980  -43.9510   12.4760 C   0  0  0  0  0 15  0  0  0  0  0  0
   60.1140  -42.6200   12.3800 C   0  0  0  0  0 15  0  0  0  0  0  0
   57.9300  -43.6480   12.5010 H   0  0  0  0  0  0  0  0  0  0  0  0
  1  2  1  0  0  0  0
  2  3  2  0  0  0  0
  3  6  1  0  0  0  0
  4  3  1  0  0  0  0
  5  4  1  0  0  0  0
  5  1  1  0  0  0  0
  6 13  1  0  0  0  0
  7  6  2  0  0  0  0
  7  8  1  0  0  0  0
  8  9  2  0  0  0  0
  9 11  1  0  0  0  0
  9 10  1  0  0  0  0
 11 12  1  0  0  0  0
 13 11  2  0  0  0  0
 14 15  1  0  0  0  0
 16 17  1  0  0  0  0
 16 15  1  0  0  0  0
 18 19  1  0  0  0  0
 18 17  1  0  0  0  0
 19 14  1  0  0  0  0
 20 30  1  0  0  0  0
 21 20  2  0  0  0  0
 22 21  1  0  0  0  0
 22 28  1  0  0  0  0
 23 24  2  0  0  0  0
 23 21  1  0  0  0  0
 24 25  1  0  0  0  0
 25 26  2  0  0  0  0
 26 20  1  0  0  0  0
 26 14  1  0  0  0  0
 27 22  1  0  0  0  0
 30 29  1  0  0  0  0
 31  5  1  0  0  0  0
 32 31  1  0  0  0  0
 33 32  1  0  0  0  0
 38 33  1  0  0  0  0
M  END
>  <minimizedAffinity>
-2.53719544

$$$$

 OpenBabel11232419443D

 38 36  0  0  0  0  0  0  0  0999 V2000
   56.5240  -42.9520   16.0660 C   0  0  0  0  0  2  0  0  0  0  0  0
   56.3720  -43.1440   17.4280 N   0  0  0  0  0  0  0  0  0  0  0  0
   55.0900  -43.1360   17.8960 C   0  0  0  0  0  0  0  0  0  0  0  0
   54.2640  -42.7710   16.8890 C   0  0  0  0  0  2  0  0  0  0  0  0
   55.0780  -42.4930   15.8210 N   0  0  0  0  0  0  0  0  0  0  0  0
   54.7300  -43.4380   19.2670 C   0  0  0  0  0  0  0  0  0  0  0  0
   54.0810  -44.6340   19.6090 C   0  0  0  0  0  3  0  0  0  0  0  0
   53.7510  -44.9040   20.9410 C   0  0  0  0  0  3  0  0  0  0  0  0
   54.0640  -43.9780   21.9310 C   0  0  0  0  0  0  0  0  0  0  0  0
   53.7330  -44.2550   23.2000 F   0  0  0  0  0  0  0  0  0  0  0  0
   54.7090  -42.7880   21.6070 C   0  0  0  0  0  0  0  0  0  0  0  0
   55.0930  -41.6340   22.8240 Cl  0  0  0  0  0  0  0  0  0  0  0  0
   55.0480  -42.5200   20.2790 C   0  0  0  0  0  3  0  0  0  0  0  0
   60.8440  -43.6210   13.0350 N   0  0  0  0  0  0  0  0  0  0  0  0
   59.8130  -42.6800   12.6190 C   0  0  0  0  0  2  0  0  0  0  0  0
   59.1360  -41.9850   13.8200 C   0  0  0  0  0  2  0  0  0  0  0  0
   58.3050  -43.1680   14.8640 C   0  0  0  0  0  2  0  0  0  0  0  0
   59.9120  -43.8680   15.2920 C   0  0  0  0  0  2  0  0  0  0  0  0
   60.5230  -44.5830   14.0720 C   0  0  0  0  0  2  0  0  0  0  0  0
   62.4400  -41.9690   13.8410 C   0  0  0  0  0  0  0  0  0  0  0  0
   63.7600  -41.5360   13.7940 C   0  0  0  0  0  0  0  0  0  0  0  0
   64.1940  -40.4100   14.4680 N   0  0  0  0  0  0  0  0  0  0  0  0
   64.6970  -42.1350   13.0530 N   0  0  0  0  0  0  0  0  0  0  0  0
   64.3170  -43.2280   12.3900 C   0  0  0  0  0  3  0  0  0  0  0  0
   63.0860  -43.7480   12.3690 N   0  0  0  0  0  0  0  0  0  0  0  0
   62.1470  -43.1110   13.0910 C   0  0  0  0  0  0  0  0  0  0  0  0
   65.1780  -40.2240   14.3000 H   0  0  0  0  0  0  0  0  0  0  0  0
   63.8840  -40.2820   15.4200 H   0  0  0  0  0  0  0  0  0  0  0  0
   61.8810  -41.1950   16.1610 C   0  0  0  0  0  1  0  0  0  0  0  0
   61.4150  -41.2920   14.7150 C   0  0  0  0  0  2  0  0  0  0  0  0
   54.5120  -41.8410   14.6580 C   0  0  0  0  0  2  0  0  0  0  0  0
   53.3990  -41.0290   15.1670 C   0  0  0  0  0  2  0  0  0  0  0  0
   53.8550  -39.6140   15.0430 N   0  0  0  0  0  2  0  0  0  0  0  0
   54.1270  -38.6180   16.8280 C   0  0  0  0  0 15  0  0  0  0  0  0
   53.3490  -36.7870   16.5430 C   0  0  0  0  0 15  0  0  0  0  0  0
   52.6620  -36.6800   14.6310 C   0  0  0  0  0 15  0  0  0  0  0  0
   52.7180  -38.4970   13.8060 C   0  0  0  0  0 15  0  0  0  0  0  0
   54.6800  -39.7540   14.4520 H   0  0  0  0  0  0  0  0  0  0  0  0
  1  2  1  0  0  0  0
  2  3  2  0  0  0  0
  3  6  1  0  0  0  0
  4  3  1  0  0  0  0
  5  1  1  0  0  0  0
  5  4  1  0  0  0  0
  6  7  2  0  0  0  0
  6 13  1  0  0  0  0
  7  8  1  0  0  0  0
  8  9  2  0  0  0  0
  9 10  1  0  0  0  0
 11  9  1  0  0  0  0
 11 12  1  0  0  0  0
 13 11  2  0  0  0  0
 14 26  1  0  0  0  0
 14 19  1  0  0  0  0
 15 14  1  0  0  0  0
 15 16  1  0  0  0  0
 16 17  1  0  0  0  0
 17 18  1  0  0  0  0
 19 18  1  0  0  0  0
 20 30  1  0  0  0  0
 21 20  1  0  0  0  0
 21 22  1  0  0  0  0
 22 28  1  0  0  0  0
 23 21  2  0  0  0  0
 24 23  1  0  0  0  0
 25 24  2  0  0  0  0
 25 26  1  0  0  0  0
 26 20  2  0  0  0  0
 27 22  1  0  0  0  0
 30 29  1  0  0  0  0
 31 32  1  0  0  0  0
 31  5  1  0  0  0  0
 33 32  1  0  0  0  0
 38 33  1  0  0  0  0
M  END
>  <minimizedAffinity>
-1.81461489

$$$$

 OpenBabel11232419443D

 38 36  0  0  0  0  0  0  0  0999 V2000
   57.9030  -43.7290   17.4120 C   0  0  0  0  0  2  0  0  0  0  0  0
   57.2200  -42.9320   18.3130 N   0  0  0  0  0  0  0  0  0  0  0  0
   55.8890  -43.2000   18.4620 C   0  0  0  0  0  0  0  0  0  0  0  0
   55.5250  -44.1150   17.5360 C   0  0  0  0  0  2  0  0  0  0  0  0
   56.6460  -44.3460   16.7800 N   0  0  0  0  0  0  0  0  0  0  0  0
   55.0420  -42.5510   19.4430 C   0  0  0  0  0  0  0  0  0  0  0  0
   54.4080  -41.3290   19.1720 C   0  0  0  0  0  3  0  0  0  0  0  0
   53.5890  -40.7280   20.1330 C   0  0  0  0  0  3  0  0  0  0  0  0
   53.4070  -41.3440   21.3670 C   0  0  0  0  0  0  0  0  0  0  0  0
   52.6220  -40.7470   22.2750 F   0  0  0  0  0  0  0  0  0  0  0  0
   54.0270  -42.5580   21.6490 C   0  0  0  0  0  0  0  0  0  0  0  0
   53.8120  -43.3230   23.1750 Cl  0  0  0  0  0  0  0  0  0  0  0  0
   54.8370  -43.1660   20.6880 C   0  0  0  0  0  3  0  0  0  0  0  0
   63.1610  -44.1270   16.7080 N   0  0  0  0  0  0  0  0  0  0  0  0
   62.2730  -45.0650   16.0350 C   0  0  0  0  0  2  0  0  0  0  0  0
   60.9320  -44.4150   15.6330 C   0  0  0  0  0  2  0  0  0  0  0  0
   60.0310  -43.8560   17.0670 C   0  0  0  0  0  2  0  0  0  0  0  0
   61.3260  -42.6340   17.3620 C   0  0  0  0  0  2  0  0  0  0  0  0
   62.6280  -43.3320   17.7980 C   0  0  0  0  0  2  0  0  0  0  0  0
   64.5720  -44.0560   14.7270 C   0  0  0  0  0  0  0  0  0  0  0  0
   65.5000  -43.3100   14.0090 C   0  0  0  0  0  0  0  0  0  0  0  0
   66.0930  -43.7800   12.8520 N   0  0  0  0  0  0  0  0  0  0  0  0
   65.9340  -42.1100   14.4070 N   0  0  0  0  0  0  0  0  0  0  0  0
   65.3820  -41.6210   15.5180 C   0  0  0  0  0  3  0  0  0  0  0  0
   64.4730  -42.2350   16.2830 N   0  0  0  0  0  0  0  0  0  0  0  0
   64.0750  -43.4570   15.8870 C   0  0  0  0  0  0  0  0  0  0  0  0
   66.7650  -43.1180   12.4760 H   0  0  0  0  0  0  0  0  0  0  0  0
   65.5030  -44.2340   12.1710 H   0  0  0  0  0  0  0  0  0  0  0  0
   63.4540  -45.2850   12.8460 C   0  0  0  0  0  1  0  0  0  0  0  0
   64.0770  -45.3910   14.2310 C   0  0  0  0  0  2  0  0  0  0  0  0
   56.5190  -45.1010   15.5490 C   0  0  0  0  0  2  0  0  0  0  0  0
   56.9440  -44.1850   14.4830 C   0  0  0  0  0  2  0  0  0  0  0  0
   55.6920  -43.8090   13.7640 N   0  0  0  0  0  2  0  0  0  0  0  0
   54.5590  -42.3480   14.6770 C   0  0  0  0  0 15  0  0  0  0  0  0
   52.6540  -42.9670   14.5120 C   0  0  0  0  0 15  0  0  0  0  0  0
   52.6450  -44.7320   13.5010 C   0  0  0  0  0 15  0  0  0  0  0  0
   54.5210  -45.3830   13.2920 C   0  0  0  0  0 15  0  0  0  0  0  0
   56.0840  -43.5950   12.8430 H   0  0  0  0  0  0  0  0  0  0  0  0
  1  2  1  0  0  0  0
  2  3  2  0  0  0  0
  3  6  1  0  0  0  0
  4  3  1  0  0  0  0
  5  1  1  0  0  0  0
  5  4  1  0  0  0  0
  6 13  1  0  0  0  0
  7  6  2  0  0  0  0
  7  8  1  0  0  0  0
  8  9  2  0  0  0  0
  9 11  1  0  0  0  0
  9 10  1  0  0  0  0
 11 12  1  0  0  0  0
 13 11  2  0  0  0  0
 14 19  1  0  0  0  0
 15 14  1  0  0  0  0
 16 15  1  0  0  0  0
 16 17  1  0  0  0  0
 17 18  1  0  0  0  0
 18 19  1  0  0  0  0
 20 26  1  0  0  0  0
 21 23  1  0  0  0  0
 21 20  2  0  0  0  0
 22 21  1  0  0  0  0
 23 24  2  0  0  0  0
 24 25  1  0  0  0  0
 26 25  2  0  0  0  0
 26 14  1  0  0  0  0
 27 22  1  0  0  0  0
 28 22  1  0  0  0  0
 29 30  1  0  0  0  0
 30 20  1  0  0  0  0
 31  5  1  0  0  0  0
 32 31  1  0  0  0  0
 33 32  1  0  0  0  0
 38 33  1  0  0  0  0
M  END
>  <minimizedAffinity>
-1.67966211

$$$$
