
 OpenBabel11232419443D

 38 36  0  0  0  0  0  0  0  0999 V2000
   57.1770  -43.9910   16.5820 C   0  0  0  0  0  2  0  0  0  0  0  0
   56.5790  -43.6240   17.7740 N   0  0  0  0  0  0  0  0  0  0  0  0
   55.3560  -44.1770   18.0270 C   0  0  0  0  0  0  0  0  0  0  0  0
   54.9500  -44.8510   16.9280 C   0  0  0  0  0  2  0  0  0  0  0  0
   55.9210  -44.6410   15.9820 N   0  0  0  0  0  0  0  0  0  0  0  0
   54.6360  -44.0040   19.2730 C   0  0  0  0  0  0  0  0  0  0  0  0
   53.5360  -44.8110   19.6030 C   0  0  0  0  0  3  0  0  0  0  0  0
   52.8620  -44.6290   20.8140 C   0  0  0  0  0  3  0  0  0  0  0  0
   53.2830  -43.6370   21.6950 C   0  0  0  0  0  0  0  0  0  0  0  0
   52.6190  -43.4760   22.8490 F   0  0  0  0  0  0  0  0  0  0  0  0
   54.3730  -42.8300   21.3820 C   0  0  0  0  0  0  0  0  0  0  0  0
   54.8950  -41.5970   22.4630 Cl  0  0  0  0  0  0  0  0  0  0  0  0
   55.0540  -43.0160   20.1780 C   0  0  0  0  0  3  0  0  0  0  0  0
   62.0800  -42.8970   14.8320 N   0  0  0  0  0  0  0  0  0  0  0  0
   61.6660  -42.4290   16.1480 C   0  0  0  0  0  2  0  0  0  0  0  0
   60.6990  -43.4130   16.8410 C   0  0  0  0  0  2  0  0  0  0  0  0
   59.1910  -43.6010   15.9080 C   0  0  0  0  0  2  0  0  0  0  0  0
   60.1430  -44.3850   14.5910 C   0  0  0  0  0  2  0  0  0  0  0  0
   61.0590  -43.3530   13.9070 C   0  0  0  0  0  2  0  0  0  0  0  0
   64.2890  -43.2990   13.8930 C   0  0  0  0  0  0  0  0  0  0  0  0
   65.4130  -44.1170   13.9220 C   0  0  0  0  0  0  0  0  0  0  0  0
   66.4900  -43.9260   13.0760 N   0  0  0  0  0  0  0  0  0  0  0  0
   65.5200  -45.1800   14.7240 N   0  0  0  0  0  0  0  0  0  0  0  0
   64.5020  -45.3950   15.5590 C   0  0  0  0  0  3  0  0  0  0  0  0
   63.3790  -44.6730   15.6340 N   0  0  0  0  0  0  0  0  0  0  0  0
   63.2740  -43.6290   14.7940 C   0  0  0  0  0  0  0  0  0  0  0  0
   67.2080  -44.6300   13.2130 H   0  0  0  0  0  0  0  0  0  0  0  0
   66.8240  -42.9830   12.9440 H   0  0  0  0  0  0  0  0  0  0  0  0
   64.3330  -40.7920   13.7930 C   0  0  0  0  0  1  0  0  0  0  0  0
   64.2160  -42.0860   13.0010 C   0  0  0  0  0  2  0  0  0  0  0  0
   55.6620  -45.0340   14.6110 C   0  0  0  0  0  2  0  0  0  0  0  0
   55.7240  -43.7920   13.8300 C   0  0  0  0  0  2  0  0  0  0  0  0
   54.4670  -43.0580   14.1570 N   0  0  0  0  0  2  0  0  0  0  0  0
   53.2520  -42.6300   12.5470 C   0  0  0  0  0 15  0  0  0  0  0  0
   52.6230  -40.7440   12.8370 C   0  0  0  0  0 15  0  0  0  0  0  0
   53.4110  -40.0750   14.5880 C   0  0  0  0  0 15  0  0  0  0  0  0
   54.7600  -41.3880   15.2510 C   0  0  0  0  0 15  0  0  0  0  0  0
   54.0910  -43.6810   14.8780 H   0  0  0  0  0  0  0  0  0  0  0  0
  1  2  1  0  0  0  0
  2  3  2  0  0  0  0
  3  6  1  0  0  0  0
  4  3  1  0  0  0  0
  5  1  1  0  0  0  0
  5  4  1  0  0  0  0
  6  7  2  0  0  0  0
  6 13  1  0  0  0  0
  7  8  1  0  0  0  0
  8  9  2  0  0  0  0
  9 10  1  0  0  0  0
 11  9  1  0  0  0  0
 11 12  1  0  0  0  0
 13 11  2  0  0  0  0
 14 15  1  0  0  0  0
 15 16  1  0  0  0  0
 17 16  1  0  0  0  0
 18 17  1  0  0  0  0
 19 18  1  0  0  0  0
 19 14  1  0  0  0  0
 20 21  2  0  0  0  0
 20 26  1  0  0  0  0
 21 23  1  0  0  0  0
 22 27  1  0  0  0  0
 22 21  1  0  0  0  0
 23 24  2  0  0  0  0
 24 25  1  0  0  0  0
 26 14  1  0  0  0  0
 26 25  2  0  0  0  0
 28 22  1  0  0  0  0
 30 29  1  0  0  0  0
 30 20  1  0  0  0  0
 31  5  1  0  0  0  0
 32 33  1  0  0  0  0
 32 31  1  0  0  0  0
 33 38  1  0  0  0  0
M  END
>  <minimizedAffinity>
-2.64953089

$$$$
