
 OpenBabel11232420493D

 40 46  0  0  1  0  0  0  0  0999 V2000
  -16.2040   20.3770    7.3070 C   0  0  0  0  0  0  0  0  0  0  0  0
  -15.5950   19.4920    6.4090 C   0  0  0  0  0  3  0  0  0  0  0  0
  -16.0890   18.1970    6.2550 C   0  0  0  0  0  3  0  0  0  0  0  0
  -17.1780   17.7740    7.0160 C   0  0  0  0  0  3  0  0  0  0  0  0
  -17.7540   18.6430    7.9430 C   0  0  0  0  0  0  0  0  0  0  0  0
  -17.2830   19.9570    8.0930 C   0  0  0  0  0  0  0  0  0  0  0  0
  -17.9890   20.7940    9.0470 C   0  0  0  0  0  0  0  0  0  0  0  0
  -17.9610   22.0940    9.2390 N   0  0  0  0  0  0  0  0  0  0  0  0
  -18.8670   22.3590   10.2520 C   0  0  0  0  0  0  0  0  0  0  0  0
  -19.4590   21.1780   10.6930 C   0  0  0  0  0  0  0  0  0  0  0  0
  -18.8870   20.2120    9.8960 N   0  0  0  0  0  0  0  0  0  0  0  0
  -19.0830   18.7760    9.9200 C   0  0  0  0  0  2  0  0  0  0  0  0
  -18.8360   18.1590    8.6430 O   0  0  0  0  0  0  0  0  0  0  0  0
  -20.4680   20.8750   11.6960 C   0  0  0  0  0  0  0  0  0  0  0  0
  -20.3130   19.7660   12.5380 C   0  0  0  0  0  3  0  0  0  0  0  0
  -21.2820   19.4750   13.5000 C   0  0  0  0  0  3  0  0  0  0  0  0
  -22.4060   20.2900   13.6270 C   0  0  0  0  0  3  0  0  0  0  0  0
  -22.5660   21.3940   12.7900 C   0  0  0  0  0  3  0  0  0  0  0  0
  -21.6020   21.6860   11.8260 C   0  0  0  0  0  3  0  0  0  0  0  0
  -19.1010   23.7320   10.6940 C   0  0  0  0  0  0  0  0  0  0  0  0
  -20.3140   24.4020   10.5450 C   0  0  0  0  0  3  0  0  0  0  0  0
  -20.4580   25.7370   10.9510 C   0  0  0  0  0  3  0  0  0  0  0  0
  -19.4090   26.4650   11.5540 C   0  0  0  0  0  0  0  0  0  0  0  0
  -18.2060   25.7580   11.7340 C   0  0  0  0  0  3  0  0  0  0  0  0
  -18.0530   24.4310   11.3080 C   0  0  0  0  0  3  0  0  0  0  0  0
  -19.6060   27.9780   12.0070 C   0  0  1  0  0  0  0  0  0  0  0  0
  -18.3960   28.8000   12.5140 C   0  0  0  0  0  2  0  0  0  0  0  0
  -18.7640   29.9780   11.5510 C   0  0  1  0  0  0  0  0  0  0  0  0
  -19.8100   29.0250   10.8860 C   0  0  0  0  0  2  0  0  0  0  0  0
  -20.7150   27.9780   12.9940 N   0  0  0  0  0  4  0  0  0  0  0  0
  -21.5830   27.6090   12.5830 H   0  0  0  0  0  0  0  0  0  0  0  0
  -20.4940   27.3640   13.7900 H   0  0  0  0  0  0  0  0  0  0  0  0
  -20.9250   28.9090   13.3700 H   0  0  0  0  0  0  0  0  0  0  0  0
  -19.2950   31.2720   12.1810 C   0  0  0  0  0  3  0  0  0  0  0  0
  -18.7200   31.9920   13.3740 C   0  0  0  0  0  2  0  0  0  0  0  0
  -18.7260   32.6590   12.0300 C   0  0  0  0  0  2  0  0  0  0  0  0
  -17.6720   30.3000   10.6510 O   0  0  0  0  0  0  0  0  0  0  0  0
  -17.3350   29.4720   10.2660 H   0  0  0  0  0  0  0  0  0  0  0  0
  -15.6210   22.2810    6.1720 C   0  0  0  0  0  1  0  0  0  0  0  0
  -15.6600   21.6280    7.4410 O   0  0  0  0  0  0  0  0  0  0  0  0
  1 40  1  0  0  0  0
  1  6  1  0  0  0  0
  2  1  2  0  0  0  0
  3  2  1  0  0  0  0
  3  4  2  0  0  0  0
  4  5  1  0  0  0  0
  5  6  2  0  0  0  0
  5 13  1  0  0  0  0
  6  7  1  0  0  0  0
  7  8  2  0  0  0  0
  7 11  1  0  0  0  0
  8  9  1  0  0  0  0
  9 10  2  0  0  0  0
  9 20  1  0  0  0  0
 10 14  1  0  0  0  0
 11 12  1  0  0  0  0
 11 10  1  0  0  0  0
 13 12  1  0  0  0  0
 14 19  2  0  0  0  0
 14 15  1  0  0  0  0
 15 16  2  0  0  0  0
 16 17  1  0  0  0  0
 18 17  2  0  0  0  0
 19 18  1  0  0  0  0
 20 25  1  0  0  0  0
 21 20  2  0  0  0  0
 21 22  1  0  0  0  0
 22 23  2  0  0  0  0
 23 24  1  0  0  0  0
 23 26  1  0  0  0  0
 25 24  2  0  0  0  0
 26 27  1  0  0  0  0
 26 30  1  1  0  0  0
 28 37  1  6  0  0  0
 28 34  1  0  0  0  0
 28 27  1  0  0  0  0
 29 28  1  0  0  0  0
 29 26  1  0  0  0  0
 30 33  1  0  0  0  0
 30 32  1  0  0  0  0
 31 30  1  0  0  0  0
 34 35  1  0  0  0  0
 36 34  1  0  0  0  0
 36 35  1  0  0  0  0
 38 37  1  0  0  0  0
 39 40  1  0  0  0  0
M  END
>  <minimizedAffinity>
-10.1776075

$$$$
