
 OpenBabel11232420493D

 40 46  0  0  1  0  0  0  0  0999 V2000
  -21.4890   18.1270   13.7910 C   0  0  0  0  0  0  0  0  0  0  0  0
  -21.9250   17.0170   14.5240 C   0  0  0  0  0  3  0  0  0  0  0  0
  -21.5050   15.7350   14.1710 C   0  0  0  0  0  3  0  0  0  0  0  0
  -20.6690   15.5550   13.0700 C   0  0  0  0  0  3  0  0  0  0  0  0
  -20.2740   16.6590   12.3130 C   0  0  0  0  0  0  0  0  0  0  0  0
  -20.6690   17.9590   12.6690 C   0  0  0  0  0  0  0  0  0  0  0  0
  -20.1580   19.0400   11.8460 C   0  0  0  0  0  0  0  0  0  0  0  0
  -20.1350   20.3390   12.0460 N   0  0  0  0  0  0  0  0  0  0  0  0
  -19.4870   20.8910   10.9540 C   0  0  0  0  0  0  0  0  0  0  0  0
  -19.1100   19.8930   10.0600 C   0  0  0  0  0  0  0  0  0  0  0  0
  -19.5390   18.7350   10.6660 N   0  0  0  0  0  0  0  0  0  0  0  0
  -19.4620   17.3690   10.1860 C   0  0  0  0  0  2  0  0  0  0  0  0
  -19.4350   16.4040   11.2530 O   0  0  0  0  0  0  0  0  0  0  0  0
  -18.4010   19.9000    8.7880 C   0  0  0  0  0  0  0  0  0  0  0  0
  -17.4750   18.8920    8.4940 C   0  0  0  0  0  3  0  0  0  0  0  0
  -16.7940   18.8990    7.2740 C   0  0  0  0  0  3  0  0  0  0  0  0
  -17.0380   19.9090    6.3460 C   0  0  0  0  0  3  0  0  0  0  0  0
  -17.9590   20.9160    6.6350 C   0  0  0  0  0  3  0  0  0  0  0  0
  -18.6380   20.9140    7.8530 C   0  0  0  0  0  3  0  0  0  0  0  0
  -19.2670   22.3340   10.8770 C   0  0  0  0  0  0  0  0  0  0  0  0
  -18.0550   22.9550   11.1770 C   0  0  0  0  0  3  0  0  0  0  0  0
  -17.9250   24.3490   11.1260 C   0  0  0  0  0  3  0  0  0  0  0  0
  -18.9870   25.1990   10.7460 C   0  0  0  0  0  0  0  0  0  0  0  0
  -20.1890   24.5510   10.4060 C   0  0  0  0  0  3  0  0  0  0  0  0
  -20.3290   23.1570   10.4780 C   0  0  0  0  0  3  0  0  0  0  0  0
  -18.8050   26.7790   10.6940 C   0  0  1  0  0  0  0  0  0  0  0  0
  -20.0460   27.7010   10.6100 C   0  0  0  0  0  2  0  0  0  0  0  0
  -19.5050   28.5740   11.7910 C   0  0  1  0  0  0  0  0  0  0  0  0
  -18.4090   27.4830   12.0140 C   0  0  0  0  0  2  0  0  0  0  0  0
  -17.8480   27.0540    9.5930 N   0  0  0  0  0  4  0  0  0  0  0  0
  -16.9430   26.5930    9.7580 H   0  0  0  0  0  0  0  0  0  0  0  0
  -18.2000   26.6800    8.7020 H   0  0  0  0  0  0  0  0  0  0  0  0
  -17.6620   28.0540    9.4560 H   0  0  0  0  0  0  0  0  0  0  0  0
  -19.0250   29.9940   11.4630 C   0  0  0  0  0  3  0  0  0  0  0  0
  -19.5610   30.8960   10.3810 C   0  0  0  0  0  2  0  0  0  0  0  0
  -19.7040   31.2900   11.8210 C   0  0  0  0  0  2  0  0  0  0  0  0
  -20.4470   28.6330   12.8930 O   0  0  0  0  0  0  0  0  0  0  0  0
  -20.7530   27.7290   13.0860 H   0  0  0  0  0  0  0  0  0  0  0  0
  -22.6990   19.2580   15.3760 C   0  0  0  0  0  1  0  0  0  0  0  0
  -21.9550   19.3620   14.1620 O   0  0  0  0  0  0  0  0  0  0  0  0
  1 40  1  0  0  0  0
  1  2  1  0  0  0  0
  3  2  2  0  0  0  0
  4  3  1  0  0  0  0
  5  6  1  0  0  0  0
  5  4  2  0  0  0  0
  6  1  2  0  0  0  0
  7  8  2  0  0  0  0
  7  6  1  0  0  0  0
  9  8  1  0  0  0  0
 10 11  1  0  0  0  0
 10  9  2  0  0  0  0
 11  7  1  0  0  0  0
 12 11  1  0  0  0  0
 12 13  1  0  0  0  0
 13  5  1  0  0  0  0
 14 10  1  0  0  0  0
 15 14  1  0  0  0  0
 16 15  2  0  0  0  0
 17 18  2  0  0  0  0
 17 16  1  0  0  0  0
 18 19  1  0  0  0  0
 19 14  2  0  0  0  0
 20  9  1  0  0  0  0
 20 21  1  0  0  0  0
 22 21  2  0  0  0  0
 23 22  1  0  0  0  0
 24 25  1  0  0  0  0
 24 23  2  0  0  0  0
 25 20  2  0  0  0  0
 26 30  1  6  0  0  0
 26 23  1  0  0  0  0
 26 29  1  0  0  0  0
 27 26  1  0  0  0  0
 27 28  1  0  0  0  0
 28 29  1  0  0  0  0
 28 37  1  1  0  0  0
 30 31  1  0  0  0  0
 32 30  1  0  0  0  0
 33 30  1  0  0  0  0
 34 28  1  0  0  0  0
 34 36  1  0  0  0  0
 35 34  1  0  0  0  0
 35 36  1  0  0  0  0
 37 38  1  0  0  0  0
 40 39  1  0  0  0  0
M  END
>  <minimizedAffinity>
-12.5066061

$$$$

 OpenBabel11232420493D

 40 46  0  0  1  0  0  0  0  0999 V2000
  -15.0310   33.2870   10.0010 C   0  0  0  0  0  0  0  0  0  0  0  0
  -14.1770   34.3510    9.6910 C   0  0  0  0  0  3  0  0  0  0  0  0
  -13.8570   35.3000   10.6620 C   0  0  0  0  0  3  0  0  0  0  0  0
  -14.4100   35.2030   11.9380 C   0  0  0  0  0  3  0  0  0  0  0  0
  -15.2980   34.1670   12.2300 C   0  0  0  0  0  0  0  0  0  0  0  0
  -15.6110   33.1910   11.2710 C   0  0  0  0  0  0  0  0  0  0  0  0
  -16.5030   32.1260   11.6960 C   0  0  0  0  0  0  0  0  0  0  0  0
  -16.7900   30.9690   11.1420 N   0  0  0  0  0  0  0  0  0  0  0  0
  -17.6680   30.3320   12.0020 C   0  0  0  0  0  0  0  0  0  0  0  0
  -17.9280   31.1330   13.1100 C   0  0  0  0  0  0  0  0  0  0  0  0
  -17.1620   32.2540   12.8860 N   0  0  0  0  0  0  0  0  0  0  0  0
  -17.0530   33.4600   13.6840 C   0  0  0  0  0  2  0  0  0  0  0  0
  -15.7880   34.1260   13.5150 O   0  0  0  0  0  0  0  0  0  0  0  0
  -18.7420   30.9620   14.3050 C   0  0  0  0  0  0  0  0  0  0  0  0
  -20.1290   31.1430   14.2440 C   0  0  0  0  0  3  0  0  0  0  0  0
  -20.9090   30.9790   15.3910 C   0  0  0  0  0  3  0  0  0  0  0  0
  -20.3080   30.6320   16.5990 C   0  0  0  0  0  3  0  0  0  0  0  0
  -18.9260   30.4510   16.6660 C   0  0  0  0  0  3  0  0  0  0  0  0
  -18.1440   30.6170   15.5230 C   0  0  0  0  0  3  0  0  0  0  0  0
  -18.1660   28.9930   11.6910 C   0  0  0  0  0  0  0  0  0  0  0  0
  -19.5160   28.6810   11.5350 C   0  0  0  0  0  3  0  0  0  0  0  0
  -19.9290   27.3650   11.2820 C   0  0  0  0  0  3  0  0  0  0  0  0
  -19.0180   26.2960   11.1400 C   0  0  0  0  0  0  0  0  0  0  0  0
  -17.6580   26.6390   11.2580 C   0  0  0  0  0  3  0  0  0  0  0  0
  -17.2440   27.9500   11.5350 C   0  0  0  0  0  3  0  0  0  0  0  0
  -19.5200   24.8140   10.8490 C   0  0  1  0  0  0  0  0  0  0  0  0
  -18.5900   23.8070   10.1300 C   0  0  0  0  0  2  0  0  0  0  0  0
  -18.8700   22.7290   11.2290 C   0  0  1  0  0  0  0  0  0  0  0  0
  -19.5870   23.8460   12.0540 C   0  0  0  0  0  2  0  0  0  0  0  0
  -20.8230   24.9440   10.1500 N   0  0  0  0  0  4  0  0  0  0  0  0
  -21.5090   25.4490   10.7250 H   0  0  0  0  0  0  0  0  0  0  0  0
  -20.7190   25.4920    9.2840 H   0  0  0  0  0  0  0  0  0  0  0  0
  -21.2400   24.0420    9.8960 H   0  0  0  0  0  0  0  0  0  0  0  0
  -19.7070   21.5070   10.8280 C   0  0  0  0  0  3  0  0  0  0  0  0
  -19.1950   20.2320   10.2060 C   0  0  0  0  0  2  0  0  0  0  0  0
  -19.8210   20.1990   11.5690 C   0  0  0  0  0  2  0  0  0  0  0  0
  -17.6480   22.2810   11.8690 O   0  0  0  0  0  0  0  0  0  0  0  0
  -17.1200   23.0620   12.1090 H   0  0  0  0  0  0  0  0  0  0  0  0
  -14.1400   31.9620    8.3570 C   0  0  0  0  0  1  0  0  0  0  0  0
  -15.3360   32.3990    9.0020 O   0  0  0  0  0  0  0  0  0  0  0  0
  1  6  1  0  0  0  0
  2  1  2  0  0  0  0
  2  3  1  0  0  0  0
  3  4  2  0  0  0  0
  4  5  1  0  0  0  0
  5 13  1  0  0  0  0
  6  7  1  0  0  0  0
  6  5  2  0  0  0  0
  7 11  1  0  0  0  0
  8  7  2  0  0  0  0
  8  9  1  0  0  0  0
  9 10  2  0  0  0  0
 10 14  1  0  0  0  0
 11 10  1  0  0  0  0
 11 12  1  0  0  0  0
 13 12  1  0  0  0  0
 14 19  1  0  0  0  0
 15 14  2  0  0  0  0
 15 16  1  0  0  0  0
 16 17  2  0  0  0  0
 17 18  1  0  0  0  0
 19 18  2  0  0  0  0
 20  9  1  0  0  0  0
 21 20  2  0  0  0  0
 22 21  1  0  0  0  0
 23 24  1  0  0  0  0
 23 22  2  0  0  0  0
 24 25  2  0  0  0  0
 25 20  1  0  0  0  0
 26 30  1  6  0  0  0
 26 23  1  0  0  0  0
 26 29  1  0  0  0  0
 27 26  1  0  0  0  0
 27 28  1  0  0  0  0
 28 37  1  1  0  0  0
 28 29  1  0  0  0  0
 30 31  1  0  0  0  0
 32 30  1  0  0  0  0
 33 30  1  0  0  0  0
 34 28  1  0  0  0  0
 34 36  1  0  0  0  0
 35 34  1  0  0  0  0
 35 36  1  0  0  0  0
 37 38  1  0  0  0  0
 39 40  1  0  0  0  0
 40  1  1  0  0  0  0
M  END
>  <minimizedAffinity>
-10.7187996

$$$$

 OpenBabel11232420493D

 40 46  0  0  1  0  0  0  0  0999 V2000
  -18.8770   32.3270   16.8720 C   0  0  0  0  0  0  0  0  0  0  0  0
  -19.2850   33.1650   17.9150 C   0  0  0  0  0  3  0  0  0  0  0  0
  -19.2010   34.5510   17.7770 C   0  0  0  0  0  3  0  0  0  0  0  0
  -18.6830   35.1020   16.6050 C   0  0  0  0  0  3  0  0  0  0  0  0
  -18.2340   34.2620   15.5850 C   0  0  0  0  0  0  0  0  0  0  0  0
  -18.3350   32.8660   15.7000 C   0  0  0  0  0  0  0  0  0  0  0  0
  -17.8880   32.0880   14.5580 C   0  0  0  0  0  0  0  0  0  0  0  0
  -18.0680   30.8210   14.2540 N   0  0  0  0  0  0  0  0  0  0  0  0
  -17.4620   30.6240   13.0260 C   0  0  0  0  0  0  0  0  0  0  0  0
  -16.8890   31.8100   12.5730 C   0  0  0  0  0  0  0  0  0  0  0  0
  -17.1920   32.7160   13.5640 N   0  0  0  0  0  0  0  0  0  0  0  0
  -16.8220   34.1130   13.6680 C   0  0  0  0  0  2  0  0  0  0  0  0
  -17.7540   34.8790   14.4520 O   0  0  0  0  0  0  0  0  0  0  0  0
  -16.1600   32.1770   11.3670 C   0  0  0  0  0  0  0  0  0  0  0  0
  -14.7910   31.9040   11.2620 C   0  0  0  0  0  3  0  0  0  0  0  0
  -14.0920   32.2570   10.1060 C   0  0  0  0  0  3  0  0  0  0  0  0
  -14.7570   32.8790    9.0520 C   0  0  0  0  0  3  0  0  0  0  0  0
  -16.1210   33.1550    9.1520 C   0  0  0  0  0  3  0  0  0  0  0  0
  -16.8220   32.8070   10.3070 C   0  0  0  0  0  3  0  0  0  0  0  0
  -17.5060   29.3130   12.3820 C   0  0  0  0  0  0  0  0  0  0  0  0
  -18.6580   28.5340   12.2790 C   0  0  0  0  0  3  0  0  0  0  0  0
  -18.6200   27.2630   11.6880 C   0  0  0  0  0  3  0  0  0  0  0  0
  -17.4400   26.7130   11.1420 C   0  0  0  0  0  0  0  0  0  0  0  0
  -16.2980   27.5320   11.2170 C   0  0  0  0  0  3  0  0  0  0  0  0
  -16.3280   28.7940   11.8290 C   0  0  0  0  0  3  0  0  0  0  0  0
  -17.4320   25.2680   10.4740 C   0  0  1  0  0  0  0  0  0  0  0  0
  -18.3710   24.1600   11.0100 C   0  0  0  0  0  2  0  0  0  0  0  0
  -18.8690   23.8480    9.5600 C   0  0  1  0  0  0  0  0  0  0  0  0
  -18.1110   25.1320    9.0900 C   0  0  0  0  0  2  0  0  0  0  0  0
  -16.0170   24.8210   10.4600 N   0  0  0  0  0  4  0  0  0  0  0  0
  -15.4240   25.4680    9.9240 H   0  0  0  0  0  0  0  0  0  0  0  0
  -15.6300   24.8040   11.4140 H   0  0  0  0  0  0  0  0  0  0  0  0
  -15.8900   23.8850   10.0590 H   0  0  0  0  0  0  0  0  0  0  0  0
  -18.4400   22.5130    8.9350 C   0  0  0  0  0  3  0  0  0  0  0  0
  -18.8110   21.1340    9.4190 C   0  0  0  0  0  2  0  0  0  0  0  0
  -19.2750   21.6030    8.0720 C   0  0  0  0  0  2  0  0  0  0  0  0
  -20.3070   23.9900    9.4400 O   0  0  0  0  0  0  0  0  0  0  0  0
  -20.5690   24.8330    9.8490 H   0  0  0  0  0  0  0  0  0  0  0  0
  -20.2830   30.5170   16.8160 C   0  0  0  0  0  1  0  0  0  0  0  0
  -18.9540   30.9730   17.0720 O   0  0  0  0  0  0  0  0  0  0  0  0
  1 40  1  0  0  0  0
  1  2  1  0  0  0  0
  3  2  2  0  0  0  0
  4  3  1  0  0  0  0
  5  6  1  0  0  0  0
  5  4  2  0  0  0  0
  6  1  2  0  0  0  0
  7  6  1  0  0  0  0
  8  7  2  0  0  0  0
  9  8  1  0  0  0  0
 10  9  2  0  0  0  0
 10 11  1  0  0  0  0
 11 12  1  0  0  0  0
 11  7  1  0  0  0  0
 12 13  1  0  0  0  0
 13  5  1  0  0  0  0
 14 10  1  0  0  0  0
 15 14  1  0  0  0  0
 16 15  2  0  0  0  0
 17 18  2  0  0  0  0
 17 16  1  0  0  0  0
 18 19  1  0  0  0  0
 19 14  2  0  0  0  0
 20  9  1  0  0  0  0
 21 20  1  0  0  0  0
 22 21  2  0  0  0  0
 23 24  2  0  0  0  0
 23 22  1  0  0  0  0
 24 25  1  0  0  0  0
 25 20  2  0  0  0  0
 26 30  1  6  0  0  0
 26 27  1  0  0  0  0
 26 23  1  0  0  0  0
 28 37  1  6  0  0  0
 28 27  1  0  0  0  0
 29 28  1  0  0  0  0
 29 26  1  0  0  0  0
 30 32  1  0  0  0  0
 31 30  1  0  0  0  0
 33 30  1  0  0  0  0
 34 35  1  0  0  0  0
 34 28  1  0  0  0  0
 36 34  1  0  0  0  0
 36 35  1  0  0  0  0
 37 38  1  0  0  0  0
 39 40  1  0  0  0  0
M  END
>  <minimizedAffinity>
-10.3528929

$$$$

 OpenBabel11232420493D

 40 46  0  0  1  0  0  0  0  0999 V2000
  -13.9180   32.7590    9.8930 C   0  0  0  0  0  0  0  0  0  0  0  0
  -13.0750   33.8330    9.5870 C   0  0  0  0  0  3  0  0  0  0  0  0
  -12.9240   34.8860   10.4900 C   0  0  0  0  0  3  0  0  0  0  0  0
  -13.6360   34.8820   11.6880 C   0  0  0  0  0  3  0  0  0  0  0  0
  -14.5120   33.8320   11.9690 C   0  0  0  0  0  0  0  0  0  0  0  0
  -14.6560   32.7530   11.0820 C   0  0  0  0  0  0  0  0  0  0  0  0
  -15.5510   31.6870   11.4970 C   0  0  0  0  0  0  0  0  0  0  0  0
  -15.7140   30.4680   11.0320 N   0  0  0  0  0  0  0  0  0  0  0  0
  -16.6710   29.8700   11.8340 C   0  0  0  0  0  0  0  0  0  0  0  0
  -17.1080   30.7590   12.8130 C   0  0  0  0  0  0  0  0  0  0  0  0
  -16.3650   31.8930   12.5750 N   0  0  0  0  0  0  0  0  0  0  0  0
  -16.4120   33.1740   13.2520 C   0  0  0  0  0  2  0  0  0  0  0  0
  -15.1640   33.8880   13.1790 O   0  0  0  0  0  0  0  0  0  0  0  0
  -18.0640   30.6580   13.9060 C   0  0  0  0  0  0  0  0  0  0  0  0
  -17.6360   30.2710   15.1820 C   0  0  0  0  0  3  0  0  0  0  0  0
  -18.5530   30.1750   16.2300 C   0  0  0  0  0  3  0  0  0  0  0  0
  -19.8980   30.4660   16.0090 C   0  0  0  0  0  3  0  0  0  0  0  0
  -20.3300   30.8500   14.7390 C   0  0  0  0  0  3  0  0  0  0  0  0
  -19.4160   30.9450   13.6890 C   0  0  0  0  0  3  0  0  0  0  0  0
  -17.0680   28.4830   11.6000 C   0  0  0  0  0  0  0  0  0  0  0  0
  -16.2620   27.5380   10.9660 C   0  0  0  0  0  3  0  0  0  0  0  0
  -16.7230   26.2350   10.7330 C   0  0  0  0  0  3  0  0  0  0  0  0
  -18.0000   25.7940   11.1450 C   0  0  0  0  0  0  0  0  0  0  0  0
  -18.7810   26.7490   11.8210 C   0  0  0  0  0  3  0  0  0  0  0  0
  -18.3320   28.0610   12.0350 C   0  0  0  0  0  3  0  0  0  0  0  0
  -18.4900   24.3060   10.8680 C   0  0  1  0  0  0  0  0  0  0  0  0
  -18.5290   23.7580    9.4210 C   0  0  0  0  0  2  0  0  0  0  0  0
  -17.7580   22.4700    9.8640 C   0  0  1  0  0  0  0  0  0  0  0  0
  -17.5140   23.1650   11.2420 C   0  0  0  0  0  2  0  0  0  0  0  0
  -19.8080   24.1690   11.5370 N   0  0  0  0  0  4  0  0  0  0  0  0
  -19.7360   24.3410   12.5480 H   0  0  0  0  0  0  0  0  0  0  0  0
  -20.4750   24.8650   11.1760 H   0  0  0  0  0  0  0  0  0  0  0  0
  -20.2320   23.2430   11.4130 H   0  0  0  0  0  0  0  0  0  0  0  0
  -18.5350   21.1460    9.8740 C   0  0  0  0  0  3  0  0  0  0  0  0
  -19.2590   20.5200    8.7090 C   0  0  0  0  0  2  0  0  0  0  0  0
  -18.0810   19.8200    9.3200 C   0  0  0  0  0  2  0  0  0  0  0  0
  -16.5280   22.2940    9.1170 O   0  0  0  0  0  0  0  0  0  0  0  0
  -16.0490   23.1410    9.1070 H   0  0  0  0  0  0  0  0  0  0  0  0
  -12.7670   31.3790    8.4700 C   0  0  0  0  0  1  0  0  0  0  0  0
  -14.0510   31.7640    8.9590 O   0  0  0  0  0  0  0  0  0  0  0  0
  1  6  1  0  0  0  0
  2  1  2  0  0  0  0
  2  3  1  0  0  0  0
  3  4  2  0  0  0  0
  4  5  1  0  0  0  0
  5 13  1  0  0  0  0
  6  7  1  0  0  0  0
  6  5  2  0  0  0  0
  7 11  1  0  0  0  0
  8  7  2  0  0  0  0
  8  9  1  0  0  0  0
  9 10  2  0  0  0  0
 10 14  1  0  0  0  0
 11 10  1  0  0  0  0
 11 12  1  0  0  0  0
 13 12  1  0  0  0  0
 14 15  1  0  0  0  0
 15 16  2  0  0  0  0
 17 16  1  0  0  0  0
 18 17  2  0  0  0  0
 19 14  2  0  0  0  0
 19 18  1  0  0  0  0
 20  9  1  0  0  0  0
 20 25  1  0  0  0  0
 21 20  2  0  0  0  0
 22 21  1  0  0  0  0
 22 23  2  0  0  0  0
 23 24  1  0  0  0  0
 24 25  2  0  0  0  0
 26 23  1  0  0  0  0
 26 29  1  0  0  0  0
 26 30  1  1  0  0  0
 27 28  1  0  0  0  0
 27 26  1  0  0  0  0
 28 37  1  6  0  0  0
 28 34  1  0  0  0  0
 28 29  1  0  0  0  0
 30 31  1  0  0  0  0
 32 30  1  0  0  0  0
 33 30  1  0  0  0  0
 35 36  1  0  0  0  0
 35 34  1  0  0  0  0
 36 34  1  0  0  0  0
 38 37  1  0  0  0  0
 39 40  1  0  0  0  0
 40  1  1  0  0  0  0
M  END
>  <minimizedAffinity>
-10.3020287

$$$$

 OpenBabel11232420493D

 40 46  0  0  1  0  0  0  0  0999 V2000
  -16.2040   20.3770    7.3070 C   0  0  0  0  0  0  0  0  0  0  0  0
  -15.5950   19.4920    6.4090 C   0  0  0  0  0  3  0  0  0  0  0  0
  -16.0890   18.1970    6.2550 C   0  0  0  0  0  3  0  0  0  0  0  0
  -17.1780   17.7740    7.0160 C   0  0  0  0  0  3  0  0  0  0  0  0
  -17.7540   18.6430    7.9430 C   0  0  0  0  0  0  0  0  0  0  0  0
  -17.2830   19.9570    8.0930 C   0  0  0  0  0  0  0  0  0  0  0  0
  -17.9890   20.7940    9.0470 C   0  0  0  0  0  0  0  0  0  0  0  0
  -17.9610   22.0940    9.2390 N   0  0  0  0  0  0  0  0  0  0  0  0
  -18.8670   22.3590   10.2520 C   0  0  0  0  0  0  0  0  0  0  0  0
  -19.4590   21.1780   10.6930 C   0  0  0  0  0  0  0  0  0  0  0  0
  -18.8870   20.2120    9.8960 N   0  0  0  0  0  0  0  0  0  0  0  0
  -19.0830   18.7760    9.9200 C   0  0  0  0  0  2  0  0  0  0  0  0
  -18.8360   18.1590    8.6430 O   0  0  0  0  0  0  0  0  0  0  0  0
  -20.4680   20.8750   11.6960 C   0  0  0  0  0  0  0  0  0  0  0  0
  -20.3130   19.7660   12.5380 C   0  0  0  0  0  3  0  0  0  0  0  0
  -21.2820   19.4750   13.5000 C   0  0  0  0  0  3  0  0  0  0  0  0
  -22.4060   20.2900   13.6270 C   0  0  0  0  0  3  0  0  0  0  0  0
  -22.5660   21.3940   12.7900 C   0  0  0  0  0  3  0  0  0  0  0  0
  -21.6020   21.6860   11.8260 C   0  0  0  0  0  3  0  0  0  0  0  0
  -19.1010   23.7320   10.6940 C   0  0  0  0  0  0  0  0  0  0  0  0
  -20.3140   24.4020   10.5450 C   0  0  0  0  0  3  0  0  0  0  0  0
  -20.4580   25.7370   10.9510 C   0  0  0  0  0  3  0  0  0  0  0  0
  -19.4090   26.4650   11.5540 C   0  0  0  0  0  0  0  0  0  0  0  0
  -18.2060   25.7580   11.7340 C   0  0  0  0  0  3  0  0  0  0  0  0
  -18.0530   24.4310   11.3080 C   0  0  0  0  0  3  0  0  0  0  0  0
  -19.6060   27.9780   12.0070 C   0  0  1  0  0  0  0  0  0  0  0  0
  -18.3960   28.8000   12.5140 C   0  0  0  0  0  2  0  0  0  0  0  0
  -18.7640   29.9780   11.5510 C   0  0  1  0  0  0  0  0  0  0  0  0
  -19.8100   29.0250   10.8860 C   0  0  0  0  0  2  0  0  0  0  0  0
  -20.7150   27.9780   12.9940 N   0  0  0  0  0  4  0  0  0  0  0  0
  -21.5830   27.6090   12.5830 H   0  0  0  0  0  0  0  0  0  0  0  0
  -20.4940   27.3640   13.7900 H   0  0  0  0  0  0  0  0  0  0  0  0
  -20.9250   28.9090   13.3700 H   0  0  0  0  0  0  0  0  0  0  0  0
  -19.2950   31.2720   12.1810 C   0  0  0  0  0  3  0  0  0  0  0  0
  -18.7200   31.9920   13.3740 C   0  0  0  0  0  2  0  0  0  0  0  0
  -18.7260   32.6590   12.0300 C   0  0  0  0  0  2  0  0  0  0  0  0
  -17.6720   30.3000   10.6510 O   0  0  0  0  0  0  0  0  0  0  0  0
  -17.3350   29.4720   10.2660 H   0  0  0  0  0  0  0  0  0  0  0  0
  -15.6210   22.2810    6.1720 C   0  0  0  0  0  1  0  0  0  0  0  0
  -15.6600   21.6280    7.4410 O   0  0  0  0  0  0  0  0  0  0  0  0
  1 40  1  0  0  0  0
  1  6  1  0  0  0  0
  2  1  2  0  0  0  0
  3  2  1  0  0  0  0
  3  4  2  0  0  0  0
  4  5  1  0  0  0  0
  5  6  2  0  0  0  0
  5 13  1  0  0  0  0
  6  7  1  0  0  0  0
  7  8  2  0  0  0  0
  7 11  1  0  0  0  0
  8  9  1  0  0  0  0
  9 10  2  0  0  0  0
  9 20  1  0  0  0  0
 10 14  1  0  0  0  0
 11 12  1  0  0  0  0
 11 10  1  0  0  0  0
 13 12  1  0  0  0  0
 14 19  2  0  0  0  0
 14 15  1  0  0  0  0
 15 16  2  0  0  0  0
 16 17  1  0  0  0  0
 18 17  2  0  0  0  0
 19 18  1  0  0  0  0
 20 25  1  0  0  0  0
 21 20  2  0  0  0  0
 21 22  1  0  0  0  0
 22 23  2  0  0  0  0
 23 24  1  0  0  0  0
 23 26  1  0  0  0  0
 25 24  2  0  0  0  0
 26 27  1  0  0  0  0
 26 30  1  1  0  0  0
 28 37  1  6  0  0  0
 28 34  1  0  0  0  0
 28 27  1  0  0  0  0
 29 28  1  0  0  0  0
 29 26  1  0  0  0  0
 30 33  1  0  0  0  0
 30 32  1  0  0  0  0
 31 30  1  0  0  0  0
 34 35  1  0  0  0  0
 36 34  1  0  0  0  0
 36 35  1  0  0  0  0
 38 37  1  0  0  0  0
 39 40  1  0  0  0  0
M  END
>  <minimizedAffinity>
-10.1776075

$$$$

 OpenBabel11232420493D

 40 46  0  0  1  0  0  0  0  0999 V2000
  -14.5710   34.5520   11.7520 C   0  0  0  0  0  0  0  0  0  0  0  0
  -13.8640   35.7590   11.8010 C   0  0  0  0  0  3  0  0  0  0  0  0
  -14.0600   36.6450   12.8600 C   0  0  0  0  0  3  0  0  0  0  0  0
  -14.9800   36.3380   13.8620 C   0  0  0  0  0  3  0  0  0  0  0  0
  -15.7170   35.1550   13.7860 C   0  0  0  0  0  0  0  0  0  0  0  0
  -15.5140   34.2430   12.7380 C   0  0  0  0  0  0  0  0  0  0  0  0
  -16.2930   33.0180   12.7850 C   0  0  0  0  0  0  0  0  0  0  0  0
  -16.1690   31.8910   12.1200 N   0  0  0  0  0  0  0  0  0  0  0  0
  -17.1560   31.0460   12.5960 C   0  0  0  0  0  0  0  0  0  0  0  0
  -17.9090   31.6840   13.5780 C   0  0  0  0  0  0  0  0  0  0  0  0
  -17.3230   32.9260   13.6790 N   0  0  0  0  0  0  0  0  0  0  0  0
  -17.7010   34.0490   14.5140 C   0  0  0  0  0  2  0  0  0  0  0  0
  -16.5910   34.9130   14.8200 O   0  0  0  0  0  0  0  0  0  0  0  0
  -19.0300   31.2730   14.4100 C   0  0  0  0  0  0  0  0  0  0  0  0
  -18.8020   30.7380   15.6840 C   0  0  0  0  0  3  0  0  0  0  0  0
  -19.8780   30.3430   16.4820 C   0  0  0  0  0  3  0  0  0  0  0  0
  -21.1820   30.4840   16.0130 C   0  0  0  0  0  3  0  0  0  0  0  0
  -21.4150   31.0150   14.7440 C   0  0  0  0  0  3  0  0  0  0  0  0
  -20.3420   31.4070   13.9430 C   0  0  0  0  0  3  0  0  0  0  0  0
  -17.2770   29.6840   12.0770 C   0  0  0  0  0  0  0  0  0  0  0  0
  -18.4810   28.9870   11.9930 C   0  0  0  0  0  3  0  0  0  0  0  0
  -18.5200   27.6650   11.5270 C   0  0  0  0  0  3  0  0  0  0  0  0
  -17.3650   26.9780   11.0920 C   0  0  0  0  0  0  0  0  0  0  0  0
  -16.1670   27.7140   11.1450 C   0  0  0  0  0  3  0  0  0  0  0  0
  -16.1220   29.0280   11.6320 C   0  0  0  0  0  3  0  0  0  0  0  0
  -17.4440   25.4790   10.5650 C   0  0  1  0  0  0  0  0  0  0  0  0
  -18.4190   24.4740   11.2260 C   0  0  0  0  0  2  0  0  0  0  0  0
  -18.9700   24.0510    9.8230 C   0  0  1  0  0  0  0  0  0  0  0  0
  -18.1670   25.2470    9.2160 C   0  0  0  0  0  2  0  0  0  0  0  0
  -16.0520   24.9620   10.5610 N   0  0  0  0  0  4  0  0  0  0  0  0
  -15.4450   25.5260    9.9520 H   0  0  0  0  0  0  0  0  0  0  0  0
  -15.6410   25.0160   11.5030 H   0  0  0  0  0  0  0  0  0  0  0  0
  -15.9810   23.9880   10.2480 H   0  0  0  0  0  0  0  0  0  0  0  0
  -18.6230   22.6450    9.3180 C   0  0  0  0  0  3  0  0  0  0  0  0
  -19.3480   21.3660    9.6510 C   0  0  0  0  0  2  0  0  0  0  0  0
  -19.3270   21.8660    8.2370 C   0  0  0  0  0  2  0  0  0  0  0  0
  -20.4030   24.2530    9.7240 O   0  0  0  0  0  0  0  0  0  0  0  0
  -20.6140   25.1420   10.0570 H   0  0  0  0  0  0  0  0  0  0  0  0
  -13.0320   33.2140   10.7040 C   0  0  0  0  0  1  0  0  0  0  0  0
  -14.3620   33.7320   10.6740 O   0  0  0  0  0  0  0  0  0  0  0  0
  1  2  2  0  0  0  0
  1  6  1  0  0  0  0
  2  3  1  0  0  0  0
  3  4  2  0  0  0  0
  5  4  1  0  0  0  0
  5 13  1  0  0  0  0
  6  7  1  0  0  0  0
  6  5  2  0  0  0  0
  7 11  1  0  0  0  0
  8  9  1  0  0  0  0
  8  7  2  0  0  0  0
  9 10  2  0  0  0  0
 10 11  1  0  0  0  0
 10 14  1  0  0  0  0
 11 12  1  0  0  0  0
 12 13  1  0  0  0  0
 14 15  1  0  0  0  0
 15 16  2  0  0  0  0
 17 16  1  0  0  0  0
 18 17  2  0  0  0  0
 19 14  2  0  0  0  0
 19 18  1  0  0  0  0
 20  9  1  0  0  0  0
 21 20  1  0  0  0  0
 22 21  2  0  0  0  0
 23 24  2  0  0  0  0
 23 22  1  0  0  0  0
 24 25  1  0  0  0  0
 25 20  2  0  0  0  0
 26 30  1  6  0  0  0
 26 23  1  0  0  0  0
 26 27  1  0  0  0  0
 28 37  1  6  0  0  0
 28 27  1  0  0  0  0
 29 28  1  0  0  0  0
 29 26  1  0  0  0  0
 30 32  1  0  0  0  0
 31 30  1  0  0  0  0
 33 30  1  0  0  0  0
 34 35  1  0  0  0  0
 34 28  1  0  0  0  0
 36 34  1  0  0  0  0
 36 35  1  0  0  0  0
 37 38  1  0  0  0  0
 40 39  1  0  0  0  0
 40  1  1  0  0  0  0
M  END
>  <minimizedAffinity>
-10.0613089

$$$$

 OpenBabel11232420493D

 40 46  0  0  1  0  0  0  0  0999 V2000
  -18.4080   25.5930   11.8240 C   0  0  0  0  0  0  0  0  0  0  0  0
  -18.2400   26.9770   11.9540 C   0  0  0  0  0  3  0  0  0  0  0  0
  -17.6900   27.7190   10.9100 C   0  0  0  0  0  3  0  0  0  0  0  0
  -17.2810   27.0770    9.7410 C   0  0  0  0  0  3  0  0  0  0  0  0
  -17.4060   25.6910    9.6330 C   0  0  0  0  0  0  0  0  0  0  0  0
  -17.9810   24.9340   10.6660 C   0  0  0  0  0  0  0  0  0  0  0  0
  -18.1140   23.5070   10.4280 C   0  0  0  0  0  0  0  0  0  0  0  0
  -18.8070   22.5880   11.0630 N   0  0  0  0  0  0  0  0  0  0  0  0
  -18.6020   21.4020   10.3770 C   0  0  0  0  0  0  0  0  0  0  0  0
  -17.7520   21.6090    9.2940 C   0  0  0  0  0  0  0  0  0  0  0  0
  -17.4760   22.9570    9.3520 N   0  0  0  0  0  0  0  0  0  0  0  0
  -16.6080   23.7480    8.5020 C   0  0  0  0  0  2  0  0  0  0  0  0
  -16.9990   25.1320    8.4430 O   0  0  0  0  0  0  0  0  0  0  0  0
  -17.2270   20.7420    8.2500 C   0  0  0  0  0  0  0  0  0  0  0  0
  -17.9200   20.5960    7.0420 C   0  0  0  0  0  3  0  0  0  0  0  0
  -17.4160   19.7630    6.0400 C   0  0  0  0  0  3  0  0  0  0  0  0
  -16.2190   19.0780    6.2410 C   0  0  0  0  0  3  0  0  0  0  0  0
  -15.5260   19.2180    7.4430 C   0  0  0  0  0  3  0  0  0  0  0  0
  -16.0290   20.0470    8.4470 C   0  0  0  0  0  3  0  0  0  0  0  0
  -19.2630   20.1740   10.8140 C   0  0  0  0  0  0  0  0  0  0  0  0
  -19.2550   18.9850   10.0850 C   0  0  0  0  0  3  0  0  0  0  0  0
  -19.9480   17.8540   10.5400 C   0  0  0  0  0  3  0  0  0  0  0  0
  -20.6610   17.8380   11.7600 C   0  0  0  0  0  0  0  0  0  0  0  0
  -20.6200   19.0340   12.5000 C   0  0  0  0  0  3  0  0  0  0  0  0
  -19.9480   20.1740   12.0360 C   0  0  0  0  0  3  0  0  0  0  0  0
  -21.4340   16.5360   12.2490 C   0  0  1  0  0  0  0  0  0  0  0  0
  -20.7240   15.5130   13.1690 C   0  0  0  0  0  2  0  0  0  0  0  0
  -21.9420   15.5170   14.1520 C   0  0  1  0  0  0  0  0  0  0  0  0
  -22.5100   16.7300   13.3440 C   0  0  0  0  0  2  0  0  0  0  0  0
  -21.9740   15.8860   11.0290 N   0  0  0  0  0  4  0  0  0  0  0  0
  -22.6120   16.5130   10.5210 H   0  0  0  0  0  0  0  0  0  0  0  0
  -21.2150   15.6580   10.3710 H   0  0  0  0  0  0  0  0  0  0  0  0
  -22.4860   15.0190   11.2230 H   0  0  0  0  0  0  0  0  0  0  0  0
  -22.8070   14.2510   14.2160 C   0  0  0  0  0  3  0  0  0  0  0  0
  -24.1730   14.1270   14.8420 C   0  0  0  0  0  2  0  0  0  0  0  0
  -24.0070   13.9240   13.3650 C   0  0  0  0  0  2  0  0  0  0  0  0
  -21.5500   15.8940   15.4960 O   0  0  0  0  0  0  0  0  0  0  0  0
  -20.9930   16.6910   15.4430 H   0  0  0  0  0  0  0  0  0  0  0  0
  -20.3540   24.9730   12.8660 C   0  0  0  0  0  1  0  0  0  0  0  0
  -18.9280   24.9080   12.8920 O   0  0  0  0  0  0  0  0  0  0  0  0
  1  2  1  0  0  0  0
  1 40  1  0  0  0  0
  3  2  2  0  0  0  0
  4  3  1  0  0  0  0
  5  4  2  0  0  0  0
  5  6  1  0  0  0  0
  6  1  2  0  0  0  0
  7  6  1  0  0  0  0
  7  8  2  0  0  0  0
  9 20  1  0  0  0  0
  9  8  1  0  0  0  0
 10 11  1  0  0  0  0
 10  9  2  0  0  0  0
 11  7  1  0  0  0  0
 12 11  1  0  0  0  0
 13 12  1  0  0  0  0
 13  5  1  0  0  0  0
 14 19  1  0  0  0  0
 14 10  1  0  0  0  0
 15 14  2  0  0  0  0
 16 17  2  0  0  0  0
 16 15  1  0  0  0  0
 17 18  1  0  0  0  0
 18 19  2  0  0  0  0
 20 25  1  0  0  0  0
 21 22  1  0  0  0  0
 21 20  2  0  0  0  0
 22 23  2  0  0  0  0
 23 26  1  0  0  0  0
 23 24  1  0  0  0  0
 25 24  2  0  0  0  0
 26 30  1  6  0  0  0
 26 27  1  0  0  0  0
 26 29  1  0  0  0  0
 27 28  1  0  0  0  0
 28 34  1  0  0  0  0
 28 37  1  1  0  0  0
 29 28  1  0  0  0  0
 30 33  1  0  0  0  0
 31 30  1  0  0  0  0
 32 30  1  0  0  0  0
 34 35  1  0  0  0  0
 36 34  1  0  0  0  0
 36 35  1  0  0  0  0
 38 37  1  0  0  0  0
 39 40  1  0  0  0  0
M  END
>  <minimizedAffinity>
-9.7563715

$$$$
