
 OpenBabel11232420493D

 40 46  0  0  1  0  0  0  0  0999 V2000
  -18.8770   32.3270   16.8720 C   0  0  0  0  0  0  0  0  0  0  0  0
  -19.2850   33.1650   17.9150 C   0  0  0  0  0  3  0  0  0  0  0  0
  -19.2010   34.5510   17.7770 C   0  0  0  0  0  3  0  0  0  0  0  0
  -18.6830   35.1020   16.6050 C   0  0  0  0  0  3  0  0  0  0  0  0
  -18.2340   34.2620   15.5850 C   0  0  0  0  0  0  0  0  0  0  0  0
  -18.3350   32.8660   15.7000 C   0  0  0  0  0  0  0  0  0  0  0  0
  -17.8880   32.0880   14.5580 C   0  0  0  0  0  0  0  0  0  0  0  0
  -18.0680   30.8210   14.2540 N   0  0  0  0  0  0  0  0  0  0  0  0
  -17.4620   30.6240   13.0260 C   0  0  0  0  0  0  0  0  0  0  0  0
  -16.8890   31.8100   12.5730 C   0  0  0  0  0  0  0  0  0  0  0  0
  -17.1920   32.7160   13.5640 N   0  0  0  0  0  0  0  0  0  0  0  0
  -16.8220   34.1130   13.6680 C   0  0  0  0  0  2  0  0  0  0  0  0
  -17.7540   34.8790   14.4520 O   0  0  0  0  0  0  0  0  0  0  0  0
  -16.1600   32.1770   11.3670 C   0  0  0  0  0  0  0  0  0  0  0  0
  -14.7910   31.9040   11.2620 C   0  0  0  0  0  3  0  0  0  0  0  0
  -14.0920   32.2570   10.1060 C   0  0  0  0  0  3  0  0  0  0  0  0
  -14.7570   32.8790    9.0520 C   0  0  0  0  0  3  0  0  0  0  0  0
  -16.1210   33.1550    9.1520 C   0  0  0  0  0  3  0  0  0  0  0  0
  -16.8220   32.8070   10.3070 C   0  0  0  0  0  3  0  0  0  0  0  0
  -17.5060   29.3130   12.3820 C   0  0  0  0  0  0  0  0  0  0  0  0
  -18.6580   28.5340   12.2790 C   0  0  0  0  0  3  0  0  0  0  0  0
  -18.6200   27.2630   11.6880 C   0  0  0  0  0  3  0  0  0  0  0  0
  -17.4400   26.7130   11.1420 C   0  0  0  0  0  0  0  0  0  0  0  0
  -16.2980   27.5320   11.2170 C   0  0  0  0  0  3  0  0  0  0  0  0
  -16.3280   28.7940   11.8290 C   0  0  0  0  0  3  0  0  0  0  0  0
  -17.4320   25.2680   10.4740 C   0  0  1  0  0  0  0  0  0  0  0  0
  -18.3710   24.1600   11.0100 C   0  0  0  0  0  2  0  0  0  0  0  0
  -18.8690   23.8480    9.5600 C   0  0  1  0  0  0  0  0  0  0  0  0
  -18.1110   25.1320    9.0900 C   0  0  0  0  0  2  0  0  0  0  0  0
  -16.0170   24.8210   10.4600 N   0  0  0  0  0  4  0  0  0  0  0  0
  -15.4240   25.4680    9.9240 H   0  0  0  0  0  0  0  0  0  0  0  0
  -15.6300   24.8040   11.4140 H   0  0  0  0  0  0  0  0  0  0  0  0
  -15.8900   23.8850   10.0590 H   0  0  0  0  0  0  0  0  0  0  0  0
  -18.4400   22.5130    8.9350 C   0  0  0  0  0  3  0  0  0  0  0  0
  -18.8110   21.1340    9.4190 C   0  0  0  0  0  2  0  0  0  0  0  0
  -19.2750   21.6030    8.0720 C   0  0  0  0  0  2  0  0  0  0  0  0
  -20.3070   23.9900    9.4400 O   0  0  0  0  0  0  0  0  0  0  0  0
  -20.5690   24.8330    9.8490 H   0  0  0  0  0  0  0  0  0  0  0  0
  -20.2830   30.5170   16.8160 C   0  0  0  0  0  1  0  0  0  0  0  0
  -18.9540   30.9730   17.0720 O   0  0  0  0  0  0  0  0  0  0  0  0
  1 40  1  0  0  0  0
  1  2  1  0  0  0  0
  3  2  2  0  0  0  0
  4  3  1  0  0  0  0
  5  6  1  0  0  0  0
  5  4  2  0  0  0  0
  6  1  2  0  0  0  0
  7  6  1  0  0  0  0
  8  7  2  0  0  0  0
  9  8  1  0  0  0  0
 10  9  2  0  0  0  0
 10 11  1  0  0  0  0
 11 12  1  0  0  0  0
 11  7  1  0  0  0  0
 12 13  1  0  0  0  0
 13  5  1  0  0  0  0
 14 10  1  0  0  0  0
 15 14  1  0  0  0  0
 16 15  2  0  0  0  0
 17 18  2  0  0  0  0
 17 16  1  0  0  0  0
 18 19  1  0  0  0  0
 19 14  2  0  0  0  0
 20  9  1  0  0  0  0
 21 20  1  0  0  0  0
 22 21  2  0  0  0  0
 23 24  2  0  0  0  0
 23 22  1  0  0  0  0
 24 25  1  0  0  0  0
 25 20  2  0  0  0  0
 26 30  1  6  0  0  0
 26 27  1  0  0  0  0
 26 23  1  0  0  0  0
 28 37  1  6  0  0  0
 28 27  1  0  0  0  0
 29 28  1  0  0  0  0
 29 26  1  0  0  0  0
 30 32  1  0  0  0  0
 31 30  1  0  0  0  0
 33 30  1  0  0  0  0
 34 35  1  0  0  0  0
 34 28  1  0  0  0  0
 36 34  1  0  0  0  0
 36 35  1  0  0  0  0
 37 38  1  0  0  0  0
 39 40  1  0  0  0  0
M  END
>  <minimizedAffinity>
-10.3528929

$$$$
