
 OpenBabel11232420493D

 40 46  0  0  1  0  0  0  0  0999 V2000
  -14.5710   34.5520   11.7520 C   0  0  0  0  0  0  0  0  0  0  0  0
  -13.8640   35.7590   11.8010 C   0  0  0  0  0  3  0  0  0  0  0  0
  -14.0600   36.6450   12.8600 C   0  0  0  0  0  3  0  0  0  0  0  0
  -14.9800   36.3380   13.8620 C   0  0  0  0  0  3  0  0  0  0  0  0
  -15.7170   35.1550   13.7860 C   0  0  0  0  0  0  0  0  0  0  0  0
  -15.5140   34.2430   12.7380 C   0  0  0  0  0  0  0  0  0  0  0  0
  -16.2930   33.0180   12.7850 C   0  0  0  0  0  0  0  0  0  0  0  0
  -16.1690   31.8910   12.1200 N   0  0  0  0  0  0  0  0  0  0  0  0
  -17.1560   31.0460   12.5960 C   0  0  0  0  0  0  0  0  0  0  0  0
  -17.9090   31.6840   13.5780 C   0  0  0  0  0  0  0  0  0  0  0  0
  -17.3230   32.9260   13.6790 N   0  0  0  0  0  0  0  0  0  0  0  0
  -17.7010   34.0490   14.5140 C   0  0  0  0  0  2  0  0  0  0  0  0
  -16.5910   34.9130   14.8200 O   0  0  0  0  0  0  0  0  0  0  0  0
  -19.0300   31.2730   14.4100 C   0  0  0  0  0  0  0  0  0  0  0  0
  -18.8020   30.7380   15.6840 C   0  0  0  0  0  3  0  0  0  0  0  0
  -19.8780   30.3430   16.4820 C   0  0  0  0  0  3  0  0  0  0  0  0
  -21.1820   30.4840   16.0130 C   0  0  0  0  0  3  0  0  0  0  0  0
  -21.4150   31.0150   14.7440 C   0  0  0  0  0  3  0  0  0  0  0  0
  -20.3420   31.4070   13.9430 C   0  0  0  0  0  3  0  0  0  0  0  0
  -17.2770   29.6840   12.0770 C   0  0  0  0  0  0  0  0  0  0  0  0
  -18.4810   28.9870   11.9930 C   0  0  0  0  0  3  0  0  0  0  0  0
  -18.5200   27.6650   11.5270 C   0  0  0  0  0  3  0  0  0  0  0  0
  -17.3650   26.9780   11.0920 C   0  0  0  0  0  0  0  0  0  0  0  0
  -16.1670   27.7140   11.1450 C   0  0  0  0  0  3  0  0  0  0  0  0
  -16.1220   29.0280   11.6320 C   0  0  0  0  0  3  0  0  0  0  0  0
  -17.4440   25.4790   10.5650 C   0  0  1  0  0  0  0  0  0  0  0  0
  -18.4190   24.4740   11.2260 C   0  0  0  0  0  2  0  0  0  0  0  0
  -18.9700   24.0510    9.8230 C   0  0  1  0  0  0  0  0  0  0  0  0
  -18.1670   25.2470    9.2160 C   0  0  0  0  0  2  0  0  0  0  0  0
  -16.0520   24.9620   10.5610 N   0  0  0  0  0  4  0  0  0  0  0  0
  -15.4450   25.5260    9.9520 H   0  0  0  0  0  0  0  0  0  0  0  0
  -15.6410   25.0160   11.5030 H   0  0  0  0  0  0  0  0  0  0  0  0
  -15.9810   23.9880   10.2480 H   0  0  0  0  0  0  0  0  0  0  0  0
  -18.6230   22.6450    9.3180 C   0  0  0  0  0  3  0  0  0  0  0  0
  -19.3480   21.3660    9.6510 C   0  0  0  0  0  2  0  0  0  0  0  0
  -19.3270   21.8660    8.2370 C   0  0  0  0  0  2  0  0  0  0  0  0
  -20.4030   24.2530    9.7240 O   0  0  0  0  0  0  0  0  0  0  0  0
  -20.6140   25.1420   10.0570 H   0  0  0  0  0  0  0  0  0  0  0  0
  -13.0320   33.2140   10.7040 C   0  0  0  0  0  1  0  0  0  0  0  0
  -14.3620   33.7320   10.6740 O   0  0  0  0  0  0  0  0  0  0  0  0
  1  2  2  0  0  0  0
  1  6  1  0  0  0  0
  2  3  1  0  0  0  0
  3  4  2  0  0  0  0
  5  4  1  0  0  0  0
  5 13  1  0  0  0  0
  6  7  1  0  0  0  0
  6  5  2  0  0  0  0
  7 11  1  0  0  0  0
  8  9  1  0  0  0  0
  8  7  2  0  0  0  0
  9 10  2  0  0  0  0
 10 11  1  0  0  0  0
 10 14  1  0  0  0  0
 11 12  1  0  0  0  0
 12 13  1  0  0  0  0
 14 15  1  0  0  0  0
 15 16  2  0  0  0  0
 17 16  1  0  0  0  0
 18 17  2  0  0  0  0
 19 14  2  0  0  0  0
 19 18  1  0  0  0  0
 20  9  1  0  0  0  0
 21 20  1  0  0  0  0
 22 21  2  0  0  0  0
 23 24  2  0  0  0  0
 23 22  1  0  0  0  0
 24 25  1  0  0  0  0
 25 20  2  0  0  0  0
 26 30  1  6  0  0  0
 26 23  1  0  0  0  0
 26 27  1  0  0  0  0
 28 37  1  6  0  0  0
 28 27  1  0  0  0  0
 29 28  1  0  0  0  0
 29 26  1  0  0  0  0
 30 32  1  0  0  0  0
 31 30  1  0  0  0  0
 33 30  1  0  0  0  0
 34 35  1  0  0  0  0
 34 28  1  0  0  0  0
 36 34  1  0  0  0  0
 36 35  1  0  0  0  0
 37 38  1  0  0  0  0
 40 39  1  0  0  0  0
 40  1  1  0  0  0  0
M  END
>  <minimizedAffinity>
-10.0613089

$$$$
