
 OpenBabel10152418153D

 39 43  0  0  0  0  0  0  0  0999 V2000
    0.9630  -11.3300  -24.8340 C   0  0  0  0  0  0  0  0  0  0  0  0
    0.1600  -11.7270  -25.9060 C   0  0  0  0  0  3  0  0  0  0  0  0
   -1.1470  -11.2580  -26.0050 C   0  0  0  0  0  3  0  0  0  0  0  0
   -1.6670  -10.4100  -25.0240 C   0  0  0  0  0  3  0  0  0  0  0  0
   -0.9010  -10.0450  -23.9140 C   0  0  0  0  0  0  0  0  0  0  0  0
    0.4220  -10.4840  -23.8460 C   0  0  0  0  0  3  0  0  0  0  0  0
   -1.3640   -9.2320  -22.8590 N   0  0  0  0  0  0  0  0  0  0  0  0
   -1.2470   -7.8760  -22.6440 C   0  0  0  0  0  0  0  0  0  0  0  0
   -1.4940   -7.3830  -21.5470 O   0  0  0  0  0  0  0  0  0  0  0  0
   -1.8770   -9.6960  -22.1180 H   0  0  0  0  0  0  0  0  0  0  0  0
   -0.9050   -6.9820  -23.7650 C   0  0  0  0  0  0  0  0  0  0  0  0
   -0.5660   -7.5520  -25.0100 C   0  0  0  0  0  3  0  0  0  0  0  0
   -0.4050   -6.7330  -26.1310 C   0  0  0  0  0  3  0  0  0  0  0  0
   -0.5810   -5.3740  -25.9610 C   0  0  0  0  0  0  0  0  0  0  0  0
   -0.8520   -4.8200  -24.7270 C   0  0  0  0  0  0  0  0  0  0  0  0
   -0.9960   -5.5940  -23.6000 C   0  0  0  0  0  3  0  0  0  0  0  0
   -1.0070   -3.4690  -24.7840 O   0  0  0  0  0  0  0  0  0  0  0  0
   -0.9410   -3.2770  -26.2030 C   0  0  0  0  0  0  0  0  0  0  0  0
   -2.1670   -2.8920  -26.6370 F   0  0  0  0  0  0  0  0  0  0  0  0
   -0.0760   -2.2700  -26.4680 F   0  0  0  0  0  0  0  0  0  0  0  0
   -0.5420   -4.4380  -26.9470 O   0  0  0  0  0  0  0  0  0  0  0  0
    2.3820  -11.8310  -24.6920 C   0  0  0  0  0  2  0  0  0  0  0  0
    4.3310   -9.1970  -29.8280 C   0  0  0  0  0  0  0  0  0  0  0  0
    4.4500  -10.3330  -30.6460 C   0  0  0  0  0  3  0  0  0  0  0  0
    4.1870  -11.5860  -30.1200 C   0  0  0  0  0  3  0  0  0  0  0  0
    3.8160  -11.6910  -28.7830 C   0  0  0  0  0  3  0  0  0  0  0  0
    3.7070  -10.5430  -27.9490 C   0  0  0  0  0  0  0  0  0  0  0  0
    3.3300  -10.5870  -26.5900 C   0  0  0  0  0  0  0  0  0  0  0  0
    3.0090  -11.8000  -25.9960 N   0  0  0  0  0  0  0  0  0  0  0  0
    3.1860   -9.4750  -25.8540 N   0  0  0  0  0  0  0  0  0  0  0  0
    3.4380   -8.3150  -26.4600 C   0  0  0  0  0  3  0  0  0  0  0  0
    3.8060   -8.1600  -27.7310 N   0  0  0  0  0  0  0  0  0  0  0  0
    3.9570   -9.2670  -28.4790 C   0  0  0  0  0  0  0  0  0  0  0  0
    3.6020  -12.5870  -26.2160 H   0  0  0  0  0  0  0  0  0  0  0  0
    4.6570   -6.8230  -29.5840 N   0  0  0  0  0  0  0  0  0  0  0  0
    4.6330   -7.8880  -30.4410 C   0  0  0  0  0  0  0  0  0  0  0  0
    4.7980   -7.7490  -31.6460 O   0  0  0  0  0  0  0  0  0  0  0  0
    4.8620   -5.9130  -29.9770 H   0  0  0  0  0  0  0  0  0  0  0  0
    4.5540   -6.9110  -28.5830 H   0  0  0  0  0  0  0  0  0  0  0  0
  1 22  1  0  0  0  0
  1  6  1  0  0  0  0
  2  1  2  0  0  0  0
  3  2  1  0  0  0  0
  3  4  2  0  0  0  0
  4  5  1  0  0  0  0
  5  6  2  0  0  0  0
  5  7  1  0  0  0  0
  7  8  1  0  0  0  0
  7 10  1  0  0  0  0
  8  9  2  0  0  0  0
 11 16  1  0  0  0  0
 11  8  1  0  0  0  0
 12 11  2  0  0  0  0
 13 14  2  0  0  0  0
 13 12  1  0  0  0  0
 14 15  1  0  0  0  0
 15 16  2  0  0  0  0
 17 15  1  0  0  0  0
 18 17  1  0  0  0  0
 19 18  1  0  0  0  0
 20 18  1  0  0  0  0
 21 18  1  0  0  0  0
 21 14  1  0  0  0  0
 23 33  1  0  0  0  0
 24 25  1  0  0  0  0
 24 23  2  0  0  0  0
 25 26  2  0  0  0  0
 26 27  1  0  0  0  0
 27 28  1  0  0  0  0
 28 29  1  0  0  0  0
 28 30  2  0  0  0  0
 29 22  1  0  0  0  0
 31 30  1  0  0  0  0
 32 31  2  0  0  0  0
 33 27  2  0  0  0  0
 33 32  1  0  0  0  0
 34 29  1  0  0  0  0
 35 39  1  0  0  0  0
 36 23  1  0  0  0  0
 36 35  1  0  0  0  0
 37 36  2  0  0  0  0
 38 35  1  0  0  0  0
M  END
>  <minimizedAffinity>
-8.36155033

$$$$
