
 OpenBabel10152418153D

 39 43  0  0  0  0  0  0  0  0999 V2000
    1.0810  -11.5130  -24.5740 C   0  0  0  0  0  0  0  0  0  0  0  0
    0.3400  -11.9840  -25.6600 C   0  0  0  0  0  3  0  0  0  0  0  0
   -1.0190  -11.6940  -25.7520 C   0  0  0  0  0  3  0  0  0  0  0  0
   -1.6490  -10.9510  -24.7500 C   0  0  0  0  0  3  0  0  0  0  0  0
   -0.9410  -10.5170  -23.6270 C   0  0  0  0  0  0  0  0  0  0  0  0
    0.4300  -10.7750  -23.5660 C   0  0  0  0  0  3  0  0  0  0  0  0
   -1.5090   -9.8040  -22.5520 N   0  0  0  0  0  0  0  0  0  0  0  0
   -1.5170   -8.4560  -22.2640 C   0  0  0  0  0  0  0  0  0  0  0  0
   -1.8450   -8.0450  -21.1550 O   0  0  0  0  0  0  0  0  0  0  0  0
   -2.0070  -10.3480  -21.8560 H   0  0  0  0  0  0  0  0  0  0  0  0
   -1.2120   -7.4770  -23.3240 C   0  0  0  0  0  0  0  0  0  0  0  0
   -0.7150   -6.2100  -22.9560 C   0  0  0  0  0  3  0  0  0  0  0  0
   -0.2570   -5.3280  -23.9400 C   0  0  0  0  0  3  0  0  0  0  0  0
   -0.3220   -5.7470  -25.2540 C   0  0  0  0  0  0  0  0  0  0  0  0
   -0.8650   -6.9640  -25.6090 C   0  0  0  0  0  0  0  0  0  0  0  0
   -1.3440   -7.8460  -24.6700 C   0  0  0  0  0  3  0  0  0  0  0  0
   -0.8140   -7.1870  -26.9500 O   0  0  0  0  0  0  0  0  0  0  0  0
   -0.0560   -6.0410  -27.3580 C   0  0  0  0  0  0  0  0  0  0  0  0
    1.1590   -6.4660  -27.7880 F   0  0  0  0  0  0  0  0  0  0  0  0
   -0.6810   -5.4530  -28.4060 F   0  0  0  0  0  0  0  0  0  0  0  0
    0.1470   -5.0600  -26.3300 O   0  0  0  0  0  0  0  0  0  0  0  0
    2.5540  -11.8210  -24.4390 C   0  0  0  0  0  2  0  0  0  0  0  0
    4.1620   -9.4040  -29.7960 C   0  0  0  0  0  0  0  0  0  0  0  0
    4.3390  -10.5810  -30.5430 C   0  0  0  0  0  3  0  0  0  0  0  0
    4.1810  -11.8110  -29.9290 C   0  0  0  0  0  3  0  0  0  0  0  0
    3.8570  -11.8530  -28.5760 C   0  0  0  0  0  3  0  0  0  0  0  0
    3.6900  -10.6630  -27.8140 C   0  0  0  0  0  0  0  0  0  0  0  0
    3.3560  -10.6430  -26.4440 C   0  0  0  0  0  0  0  0  0  0  0  0
    3.1400  -11.8330  -25.7630 N   0  0  0  0  0  0  0  0  0  0  0  0
    3.1530   -9.4970  -25.7760 N   0  0  0  0  0  0  0  0  0  0  0  0
    3.3040   -8.3650  -26.4640 C   0  0  0  0  0  3  0  0  0  0  0  0
    3.6240   -8.2700  -27.7540 N   0  0  0  0  0  0  0  0  0  0  0  0
    3.8320   -9.4100  -28.4340 C   0  0  0  0  0  0  0  0  0  0  0  0
    3.7820  -12.5890  -25.9520 H   0  0  0  0  0  0  0  0  0  0  0  0
    4.9420   -7.1260  -29.7740 N   0  0  0  0  0  0  0  0  0  0  0  0
    4.3510   -8.1210  -30.5020 C   0  0  0  0  0  0  0  0  0  0  0  0
    3.9570   -7.9360  -31.6460 O   0  0  0  0  0  0  0  0  0  0  0  0
    5.0850   -6.2350  -30.2330 H   0  0  0  0  0  0  0  0  0  0  0  0
    5.3040   -7.2580  -28.8400 H   0  0  0  0  0  0  0  0  0  0  0  0
  1 22  1  0  0  0  0
  1  6  1  0  0  0  0
  2  1  2  0  0  0  0
  3  2  1  0  0  0  0
  3  4  2  0  0  0  0
  4  5  1  0  0  0  0
  5  6  2  0  0  0  0
  5  7  1  0  0  0  0
  7  8  1  0  0  0  0
  7 10  1  0  0  0  0
  8  9  2  0  0  0  0
 11 12  1  0  0  0  0
 11  8  1  0  0  0  0
 13 12  2  0  0  0  0
 14 13  1  0  0  0  0
 15 14  2  0  0  0  0
 15 16  1  0  0  0  0
 16 11  2  0  0  0  0
 17 15  1  0  0  0  0
 18 17  1  0  0  0  0
 18 21  1  0  0  0  0
 19 18  1  0  0  0  0
 20 18  1  0  0  0  0
 21 14  1  0  0  0  0
 23 33  1  0  0  0  0
 24 25  1  0  0  0  0
 24 23  2  0  0  0  0
 25 26  2  0  0  0  0
 26 27  1  0  0  0  0
 27 28  1  0  0  0  0
 28 30  2  0  0  0  0
 28 29  1  0  0  0  0
 29 22  1  0  0  0  0
 31 30  1  0  0  0  0
 32 31  2  0  0  0  0
 33 27  2  0  0  0  0
 33 32  1  0  0  0  0
 34 29  1  0  0  0  0
 35 39  1  0  0  0  0
 36 23  1  0  0  0  0
 36 35  1  0  0  0  0
 37 36  2  0  0  0  0
 38 35  1  0  0  0  0
M  END
>  <minimizedAffinity>
-9.48420238

$$$$
