
 OpenBabel10152418153D

 39 43  0  0  0  0  0  0  0  0999 V2000
   -0.0770  -10.4890  -24.0400 C   0  0  0  0  0  0  0  0  0  0  0  0
   -1.0230  -10.8070  -25.0170 C   0  0  0  0  0  3  0  0  0  0  0  0
   -2.0620   -9.9220  -25.2920 C   0  0  0  0  0  3  0  0  0  0  0  0
   -2.1770   -8.7270  -24.5770 C   0  0  0  0  0  3  0  0  0  0  0  0
   -1.2750   -8.4140  -23.5560 C   0  0  0  0  0  0  0  0  0  0  0  0
   -0.2120   -9.2860  -23.3190 C   0  0  0  0  0  3  0  0  0  0  0  0
   -1.3460   -7.2540  -22.7580 N   0  0  0  0  0  0  0  0  0  0  0  0
   -0.9590   -5.9560  -23.0130 C   0  0  0  0  0  0  0  0  0  0  0  0
   -0.8670   -5.1310  -22.1080 O   0  0  0  0  0  0  0  0  0  0  0  0
   -1.7490   -7.3610  -21.8340 H   0  0  0  0  0  0  0  0  0  0  0  0
   -0.7340   -5.5170  -24.4030 C   0  0  0  0  0  0  0  0  0  0  0  0
   -1.1070   -4.2080  -24.7710 C   0  0  0  0  0  3  0  0  0  0  0  0
   -0.7500   -3.7080  -26.0270 C   0  0  0  0  0  3  0  0  0  0  0  0
   -0.0400   -4.5420  -26.8680 C   0  0  0  0  0  0  0  0  0  0  0  0
    0.2670   -5.8410  -26.5230 C   0  0  0  0  0  0  0  0  0  0  0  0
   -0.0870   -6.3710  -25.3050 C   0  0  0  0  0  3  0  0  0  0  0  0
    0.9850   -6.4800  -27.4860 O   0  0  0  0  0  0  0  0  0  0  0  0
    1.2030   -5.3900  -28.3910 C   0  0  0  0  0  0  0  0  0  0  0  0
    2.5230   -5.0810  -28.3740 F   0  0  0  0  0  0  0  0  0  0  0  0
    0.8910   -5.7940  -29.6450 F   0  0  0  0  0  0  0  0  0  0  0  0
    0.4560   -4.2020  -28.0880 O   0  0  0  0  0  0  0  0  0  0  0  0
    1.0560  -11.4340  -23.7100 C   0  0  0  0  0  2  0  0  0  0  0  0
    4.0390   -9.6730  -28.7230 C   0  0  0  0  0  0  0  0  0  0  0  0
    4.0890  -10.8980  -29.4100 C   0  0  0  0  0  3  0  0  0  0  0  0
    3.5710  -12.0360  -28.8180 C   0  0  0  0  0  3  0  0  0  0  0  0
    3.0170  -11.9420  -27.5450 C   0  0  0  0  0  3  0  0  0  0  0  0
    2.9760  -10.7060  -26.8420 C   0  0  0  0  0  0  0  0  0  0  0  0
    2.4220  -10.5480  -25.5540 C   0  0  0  0  0  0  0  0  0  0  0  0
    1.8450  -11.6330  -24.9070 N   0  0  0  0  0  0  0  0  0  0  0  0
    2.3540   -9.3530  -24.9480 N   0  0  0  0  0  0  0  0  0  0  0  0
    2.8570   -8.3130  -25.6120 C   0  0  0  0  0  3  0  0  0  0  0  0
    3.4080   -8.3500  -26.8260 N   0  0  0  0  0  0  0  0  0  0  0  0
    3.4850   -9.5420  -27.4420 C   0  0  0  0  0  0  0  0  0  0  0  0
    2.3360  -12.5140  -24.9680 H   0  0  0  0  0  0  0  0  0  0  0  0
    4.9660   -7.4550  -28.5830 N   0  0  0  0  0  0  0  0  0  0  0  0
    4.6140   -8.4930  -29.4000 C   0  0  0  0  0  0  0  0  0  0  0  0
    4.7200   -8.4220  -30.6170 O   0  0  0  0  0  0  0  0  0  0  0  0
    5.3640   -6.6330  -29.0210 H   0  0  0  0  0  0  0  0  0  0  0  0
    4.9170   -7.4970  -27.5760 H   0  0  0  0  0  0  0  0  0  0  0  0
  1 22  1  0  0  0  0
  1  6  1  0  0  0  0
  2  1  2  0  0  0  0
  3  2  1  0  0  0  0
  3  4  2  0  0  0  0
  4  5  1  0  0  0  0
  5  6  2  0  0  0  0
  5  7  1  0  0  0  0
  7 10  1  0  0  0  0
  8  7  1  0  0  0  0
  8  9  2  0  0  0  0
 11  8  1  0  0  0  0
 12 11  1  0  0  0  0
 13 12  2  0  0  0  0
 14 15  2  0  0  0  0
 14 13  1  0  0  0  0
 15 16  1  0  0  0  0
 16 11  2  0  0  0  0
 17 15  1  0  0  0  0
 18 19  1  0  0  0  0
 18 21  1  0  0  0  0
 18 17  1  0  0  0  0
 20 18  1  0  0  0  0
 21 14  1  0  0  0  0
 23 33  1  0  0  0  0
 24 25  1  0  0  0  0
 24 23  2  0  0  0  0
 25 26  2  0  0  0  0
 26 27  1  0  0  0  0
 27 28  1  0  0  0  0
 28 30  2  0  0  0  0
 28 29  1  0  0  0  0
 29 22  1  0  0  0  0
 31 30  1  0  0  0  0
 32 31  2  0  0  0  0
 33 27  2  0  0  0  0
 33 32  1  0  0  0  0
 34 29  1  0  0  0  0
 35 39  1  0  0  0  0
 36 23  1  0  0  0  0
 36 35  1  0  0  0  0
 37 36  2  0  0  0  0
 38 35  1  0  0  0  0
M  END
>  <minimizedAffinity>
-6.92985058

$$$$
