
 OpenBabel10152418153D

 39 43  0  0  0  0  0  0  0  0999 V2000
    2.3840  -11.4900  -26.7850 C   0  0  0  0  0  0  0  0  0  0  0  0
    3.2580  -12.0380  -25.8440 C   0  0  0  0  0  3  0  0  0  0  0  0
    4.5420  -11.5180  -25.7030 C   0  0  0  0  0  3  0  0  0  0  0  0
    4.9690  -10.4640  -26.5160 C   0  0  0  0  0  3  0  0  0  0  0  0
    4.1320   -9.9380  -27.5030 C   0  0  0  0  0  0  0  0  0  0  0  0
    2.8320  -10.4360  -27.6070 C   0  0  0  0  0  3  0  0  0  0  0  0
    4.4990   -8.9090  -28.3940 N   0  0  0  0  0  0  0  0  0  0  0  0
    3.8320   -7.7660  -28.7790 C   0  0  0  0  0  0  0  0  0  0  0  0
    4.1980   -7.1150  -29.7540 O   0  0  0  0  0  0  0  0  0  0  0  0
    5.4050   -8.9940  -28.8400 H   0  0  0  0  0  0  0  0  0  0  0  0
    2.7130   -7.2590  -27.9640 C   0  0  0  0  0  0  0  0  0  0  0  0
    2.7320   -7.4780  -26.5710 C   0  0  0  0  0  3  0  0  0  0  0  0
    1.7770   -6.8640  -25.7560 C   0  0  0  0  0  3  0  0  0  0  0  0
    0.8350   -6.0610  -26.3680 C   0  0  0  0  0  0  0  0  0  0  0  0
    0.7860   -5.9020  -27.7360 C   0  0  0  0  0  0  0  0  0  0  0  0
    1.6970   -6.5080  -28.5700 C   0  0  0  0  0  3  0  0  0  0  0  0
   -0.2050   -5.0570  -28.1290 O   0  0  0  0  0  0  0  0  0  0  0  0
   -0.6640   -4.6090  -26.8470 C   0  0  0  0  0  0  0  0  0  0  0  0
   -0.3410   -3.2990  -26.7130 F   0  0  0  0  0  0  0  0  0  0  0  0
   -2.0140   -4.7060  -26.8080 F   0  0  0  0  0  0  0  0  0  0  0  0
   -0.1160   -5.3270  -25.7310 O   0  0  0  0  0  0  0  0  0  0  0  0
    0.9890  -12.0390  -26.9710 C   0  0  0  0  0  2  0  0  0  0  0  0
   -1.9190   -9.3440  -22.3440 C   0  0  0  0  0  0  0  0  0  0  0  0
   -1.7490  -10.3270  -21.3540 C   0  0  0  0  0  3  0  0  0  0  0  0
   -1.1060  -11.5110  -21.6690 C   0  0  0  0  0  3  0  0  0  0  0  0
   -0.6470  -11.7050  -22.9680 C   0  0  0  0  0  3  0  0  0  0  0  0
   -0.8300  -10.7170  -23.9760 C   0  0  0  0  0  0  0  0  0  0  0  0
   -0.3820  -10.8550  -25.3060 C   0  0  0  0  0  0  0  0  0  0  0  0
    0.3090  -11.9950  -25.6940 N   0  0  0  0  0  0  0  0  0  0  0  0
   -0.5250   -9.8760  -26.2120 N   0  0  0  0  0  0  0  0  0  0  0  0
   -1.1350   -8.7630  -25.8040 C   0  0  0  0  0  3  0  0  0  0  0  0
   -1.6020   -8.5310  -24.5770 N   0  0  0  0  0  0  0  0  0  0  0  0
   -1.4670   -9.5060  -23.6610 C   0  0  0  0  0  0  0  0  0  0  0  0
   -0.0430  -12.8790  -25.3540 H   0  0  0  0  0  0  0  0  0  0  0  0
   -3.8020   -7.8640  -22.5980 N   0  0  0  0  0  0  0  0  0  0  0  0
   -2.6200   -8.1050  -21.9540 C   0  0  0  0  0  0  0  0  0  0  0  0
   -2.1520   -7.3120  -21.1470 O   0  0  0  0  0  0  0  0  0  0  0  0
   -4.3040   -7.0210  -22.3490 H   0  0  0  0  0  0  0  0  0  0  0  0
   -4.2260   -8.5130  -23.2450 H   0  0  0  0  0  0  0  0  0  0  0  0
  1  2  1  0  0  0  0
  2  3  2  0  0  0  0
  4  3  1  0  0  0  0
  5  4  2  0  0  0  0
  6  5  1  0  0  0  0
  6  1  2  0  0  0  0
  7  5  1  0  0  0  0
  8  7  1  0  0  0  0
  8 11  1  0  0  0  0
  9  8  2  0  0  0  0
 10  7  1  0  0  0  0
 11 12  1  0  0  0  0
 12 13  2  0  0  0  0
 14 13  1  0  0  0  0
 14 21  1  0  0  0  0
 15 14  2  0  0  0  0
 16 11  2  0  0  0  0
 16 15  1  0  0  0  0
 17 15  1  0  0  0  0
 17 18  1  0  0  0  0
 18 20  1  0  0  0  0
 18 19  1  0  0  0  0
 18 21  1  0  0  0  0
 22  1  1  0  0  0  0
 22 29  1  0  0  0  0
 23 36  1  0  0  0  0
 23 24  1  0  0  0  0
 25 24  2  0  0  0  0
 26 25  1  0  0  0  0
 27 33  1  0  0  0  0
 27 26  2  0  0  0  0
 28 27  1  0  0  0  0
 29 34  1  0  0  0  0
 29 28  1  0  0  0  0
 30 31  1  0  0  0  0
 30 28  2  0  0  0  0
 31 32  2  0  0  0  0
 32 33  1  0  0  0  0
 33 23  2  0  0  0  0
 35 38  1  0  0  0  0
 35 36  1  0  0  0  0
 36 37  2  0  0  0  0
 39 35  1  0  0  0  0
M  END
>  <minimizedAffinity>
-9.24177074

$$$$
