
 OpenBabel10152418103D

 30 33  0  0  0  0  0  0  0  0999 V2000
   -1.0490   -8.5930  -23.0850 C   0  0  0  0  0  0  0  0  0  0  0  0
   -0.4080   -8.0060  -24.1180 N   0  0  0  0  0  0  0  0  0  0  0  0
   -0.4260   -6.6690  -24.1750 C   0  0  0  0  0  0  0  0  0  0  0  0
    0.3030   -5.9780  -25.1360 N   0  0  0  0  0  0  0  0  0  0  0  0
   -1.0610   -5.9040  -23.2690 N   0  0  0  0  0  0  0  0  0  0  0  0
   -1.6870   -6.5360  -22.2510 C   0  0  0  0  0  3  0  0  0  0  0  0
   -1.7020   -7.8990  -22.0910 C   0  0  0  0  0  0  0  0  0  0  0  0
   -2.4680   -8.6270  -20.7440 Cl  0  0  0  0  0  0  0  0  0  0  0  0
    0.2990   -4.9890  -24.9370 H   0  0  0  0  0  0  0  0  0  0  0  0
    1.0570   -6.4180  -26.2280 C   0  0  0  0  0  0  0  0  0  0  0  0
    0.8120   -5.8600  -27.4910 C   0  0  0  0  0  3  0  0  0  0  0  0
    1.6030   -6.1940  -28.5990 C   0  0  0  0  0  3  0  0  0  0  0  0
    2.6550   -7.1070  -28.4710 C   0  0  0  0  0  0  0  0  0  0  0  0
    2.8860   -7.6870  -27.2190 C   0  0  0  0  0  3  0  0  0  0  0  0
    2.1080   -7.3310  -26.1110 C   0  0  0  0  0  3  0  0  0  0  0  0
    3.5150   -7.4550  -29.5930 C   0  0  0  0  0  0  0  0  0  0  0  0
    3.7920   -8.6560  -30.0620 N   0  0  0  0  0  0  0  0  0  0  0  0
    4.6710   -8.4760  -31.1040 N   0  0  0  0  0  0  0  0  0  0  0  0
    4.9550   -7.1930  -31.2670 N   0  0  0  0  0  0  0  0  0  0  0  0
    4.2470   -6.5600  -30.3250 N   0  0  0  0  0  0  0  0  0  0  0  0
    4.3330   -5.5590  -30.2210 H   0  0  0  0  0  0  0  0  0  0  0  0
   -0.8880   -9.9570  -22.9950 O   0  0  0  0  0  0  0  0  0  0  0  0
    1.7840  -11.6110  -25.7530 C   0  0  0  0  0  0  0  0  0  0  0  0
    0.7480  -10.7590  -26.1370 C   0  0  0  0  0  3  0  0  0  0  0  0
   -0.1280  -10.2370  -25.1830 C   0  0  0  0  0  3  0  0  0  0  0  0
    0.0180  -10.5640  -23.8340 C   0  0  0  0  0  0  0  0  0  0  0  0
    1.0360  -11.4400  -23.4500 C   0  0  0  0  0  3  0  0  0  0  0  0
    1.9190  -11.9580  -24.4080 C   0  0  0  0  0  3  0  0  0  0  0  0
    3.7210  -11.2440  -27.0800 C   0  0  0  0  0  1  0  0  0  0  0  0
    2.5810  -12.0380  -26.7800 O   0  0  0  0  0  0  0  0  0  0  0  0
  1 22  1  0  0  0  0
  1  7  1  0  0  0  0
  2  1  2  0  0  0  0
  3  2  1  0  0  0  0
  3  5  2  0  0  0  0
  4  9  1  0  0  0  0
  4  3  1  0  0  0  0
  5  6  1  0  0  0  0
  6  7  2  0  0  0  0
  7  8  1  0  0  0  0
 10 15  1  0  0  0  0
 10  4  1  0  0  0  0
 11 10  2  0  0  0  0
 12 13  2  0  0  0  0
 12 11  1  0  0  0  0
 13 14  1  0  0  0  0
 14 15  2  0  0  0  0
 16 13  1  0  0  0  0
 17 16  2  0  0  0  0
 18 17  1  0  0  0  0
 19 18  2  0  0  0  0
 19 20  1  0  0  0  0
 20 21  1  0  0  0  0
 20 16  1  0  0  0  0
 23 28  1  0  0  0  0
 24 23  2  0  0  0  0
 24 25  1  0  0  0  0
 25 26  2  0  0  0  0
 26 27  1  0  0  0  0
 26 22  1  0  0  0  0
 28 27  2  0  0  0  0
 29 30  1  0  0  0  0
 30 23  1  0  0  0  0
M  END
>  <minimizedAffinity>
-7.43166256

$$$$
