
 OpenBabel10152418103D

 30 33  0  0  0  0  0  0  0  0999 V2000
   -0.7430   -9.5670  -22.8160 C   0  0  0  0  0  0  0  0  0  0  0  0
    0.2080   -9.7990  -23.7470 N   0  0  0  0  0  0  0  0  0  0  0  0
    0.7070  -11.0380  -23.8230 C   0  0  0  0  0  0  0  0  0  0  0  0
    1.6030  -11.3950  -24.8250 N   0  0  0  0  0  0  0  0  0  0  0  0
    0.3180  -12.0380  -23.0110 N   0  0  0  0  0  0  0  0  0  0  0  0
   -0.6380  -11.7590  -22.0960 C   0  0  0  0  0  3  0  0  0  0  0  0
   -1.2290  -10.5280  -21.9590 C   0  0  0  0  0  0  0  0  0  0  0  0
   -2.4750  -10.2650  -20.8150 Cl  0  0  0  0  0  0  0  0  0  0  0  0
    1.7520  -12.3930  -24.8240 H   0  0  0  0  0  0  0  0  0  0  0  0
    2.2340  -10.6430  -25.8200 C   0  0  0  0  0  0  0  0  0  0  0  0
    3.1460  -11.2780  -26.6750 C   0  0  0  0  0  3  0  0  0  0  0  0
    3.7330  -10.5960  -27.7500 C   0  0  0  0  0  3  0  0  0  0  0  0
    3.4270   -9.2520  -27.9880 C   0  0  0  0  0  0  0  0  0  0  0  0
    2.5390   -8.6060  -27.1220 C   0  0  0  0  0  3  0  0  0  0  0  0
    1.9370   -9.3000  -26.0650 C   0  0  0  0  0  3  0  0  0  0  0  0
    3.9950   -8.5200  -29.1110 C   0  0  0  0  0  0  0  0  0  0  0  0
    4.5740   -9.0080  -30.1900 N   0  0  0  0  0  0  0  0  0  0  0  0
    4.9740   -7.9290  -30.9420 N   0  0  0  0  0  0  0  0  0  0  0  0
    4.6750   -6.7910  -30.3340 N   0  0  0  0  0  0  0  0  0  0  0  0
    4.0770   -7.1560  -29.1940 N   0  0  0  0  0  0  0  0  0  0  0  0
    3.7910   -6.4500  -28.5310 H   0  0  0  0  0  0  0  0  0  0  0  0
   -1.3210   -8.3190  -22.8670 O   0  0  0  0  0  0  0  0  0  0  0  0
   -0.3370   -5.7440  -26.0120 C   0  0  0  0  0  0  0  0  0  0  0  0
   -0.0380   -5.4470  -24.6820 C   0  0  0  0  0  3  0  0  0  0  0  0
   -0.3930   -6.3310  -23.6610 C   0  0  0  0  0  3  0  0  0  0  0  0
   -1.0580   -7.5220  -23.9580 C   0  0  0  0  0  0  0  0  0  0  0  0
   -1.3850   -7.8100  -25.2840 C   0  0  0  0  0  3  0  0  0  0  0  0
   -1.0200   -6.9240  -26.3090 C   0  0  0  0  0  3  0  0  0  0  0  0
    0.9200   -5.2580  -27.9690 C   0  0  0  0  0  1  0  0  0  0  0  0
    0.0810   -4.8050  -26.9140 O   0  0  0  0  0  0  0  0  0  0  0  0
  1  7  1  0  0  0  0
  2  1  2  0  0  0  0
  3  2  1  0  0  0  0
  3  5  2  0  0  0  0
  4  9  1  0  0  0  0
  4  3  1  0  0  0  0
  5  6  1  0  0  0  0
  6  7  2  0  0  0  0
  7  8  1  0  0  0  0
 10  4  1  0  0  0  0
 11 10  2  0  0  0  0
 12 11  1  0  0  0  0
 13 12  2  0  0  0  0
 13 14  1  0  0  0  0
 14 15  2  0  0  0  0
 15 10  1  0  0  0  0
 16 13  1  0  0  0  0
 17 16  2  0  0  0  0
 18 19  2  0  0  0  0
 18 17  1  0  0  0  0
 19 20  1  0  0  0  0
 20 16  1  0  0  0  0
 20 21  1  0  0  0  0
 22  1  1  0  0  0  0
 23 24  1  0  0  0  0
 24 25  2  0  0  0  0
 26 25  1  0  0  0  0
 26 22  1  0  0  0  0
 27 26  2  0  0  0  0
 28 23  2  0  0  0  0
 28 27  1  0  0  0  0
 29 30  1  0  0  0  0
 30 23  1  0  0  0  0
M  END
>  <minimizedAffinity>
-7.59725285

$$$$
