
 OpenBabel10152418103D

 30 33  0  0  0  0  0  0  0  0999 V2000
    2.8230   -7.4590  -27.7980 C   0  0  0  0  0  0  0  0  0  0  0  0
    1.8180   -7.1110  -26.9650 N   0  0  0  0  0  0  0  0  0  0  0  0
    0.9840   -6.1490  -27.3740 C   0  0  0  0  0  0  0  0  0  0  0  0
   -0.1440   -5.8090  -26.6330 N   0  0  0  0  0  0  0  0  0  0  0  0
    1.1140   -5.5150  -28.5530 N   0  0  0  0  0  0  0  0  0  0  0  0
    2.1330   -5.8990  -29.3550 C   0  0  0  0  0  3  0  0  0  0  0  0
    3.0240   -6.8930  -29.0370 C   0  0  0  0  0  0  0  0  0  0  0  0
    4.2560   -7.3640  -30.1280 Cl  0  0  0  0  0  0  0  0  0  0  0  0
   -0.7350   -5.1830  -27.1600 H   0  0  0  0  0  0  0  0  0  0  0  0
   -0.5950   -6.2290  -25.3790 C   0  0  0  0  0  0  0  0  0  0  0  0
   -1.3870   -7.3830  -25.2950 C   0  0  0  0  0  3  0  0  0  0  0  0
   -1.7850   -7.9040  -24.0550 C   0  0  0  0  0  3  0  0  0  0  0  0
   -1.4060   -7.2720  -22.8670 C   0  0  0  0  0  0  0  0  0  0  0  0
   -0.6390   -6.1050  -22.9460 C   0  0  0  0  0  3  0  0  0  0  0  0
   -0.2230   -5.6050  -24.1860 C   0  0  0  0  0  3  0  0  0  0  0  0
   -1.7760   -7.8000  -21.5620 C   0  0  0  0  0  0  0  0  0  0  0  0
   -1.7350   -9.0520  -21.1490 N   0  0  0  0  0  0  0  0  0  0  0  0
   -2.2100   -9.0560  -19.8600 N   0  0  0  0  0  0  0  0  0  0  0  0
   -2.5650   -7.8380  -19.4820 N   0  0  0  0  0  0  0  0  0  0  0  0
   -2.3060   -7.0600  -20.5390 N   0  0  0  0  0  0  0  0  0  0  0  0
   -2.5360   -6.0770  -20.5060 H   0  0  0  0  0  0  0  0  0  0  0  0
    3.5700   -8.5420  -27.3950 O   0  0  0  0  0  0  0  0  0  0  0  0
    1.6190  -11.1620  -24.7840 C   0  0  0  0  0  0  0  0  0  0  0  0
    1.6460   -9.7830  -24.5750 C   0  0  0  0  0  3  0  0  0  0  0  0
    2.3180   -8.9450  -25.4670 C   0  0  0  0  0  3  0  0  0  0  0  0
    2.9760   -9.4770  -26.5770 C   0  0  0  0  0  0  0  0  0  0  0  0
    2.9760  -10.8590  -26.7740 C   0  0  0  0  0  3  0  0  0  0  0  0
    2.2950  -11.6980  -25.8810 C   0  0  0  0  0  3  0  0  0  0  0  0
   -0.3910  -11.3930  -23.5380 C   0  0  0  0  0  1  0  0  0  0  0  0
    0.9130  -11.8670  -23.8490 O   0  0  0  0  0  0  0  0  0  0  0  0
  1 22  1  0  0  0  0
  1  2  2  0  0  0  0
  3  2  1  0  0  0  0
  3  4  1  0  0  0  0
  4 10  1  0  0  0  0
  5  3  2  0  0  0  0
  6  7  2  0  0  0  0
  6  5  1  0  0  0  0
  7  1  1  0  0  0  0
  8  7  1  0  0  0  0
  9  4  1  0  0  0  0
 10 11  2  0  0  0  0
 10 15  1  0  0  0  0
 11 12  1  0  0  0  0
 12 13  2  0  0  0  0
 13 16  1  0  0  0  0
 14 13  1  0  0  0  0
 15 14  2  0  0  0  0
 16 17  2  0  0  0  0
 16 20  1  0  0  0  0
 17 18  1  0  0  0  0
 18 19  2  0  0  0  0
 20 21  1  0  0  0  0
 20 19  1  0  0  0  0
 22 26  1  0  0  0  0
 23 24  1  0  0  0  0
 23 30  1  0  0  0  0
 25 24  2  0  0  0  0
 26 25  1  0  0  0  0
 27 26  2  0  0  0  0
 27 28  1  0  0  0  0
 28 23  2  0  0  0  0
 30 29  1  0  0  0  0
M  END
>  <minimizedAffinity>
-7.62209797

$$$$
