
 OpenBabel10152418103D

 30 33  0  0  0  0  0  0  0  0999 V2000
    0.9110   -5.9910  -27.0090 C   0  0  0  0  0  0  0  0  0  0  0  0
    0.2780   -6.3520  -25.8710 N   0  0  0  0  0  0  0  0  0  0  0  0
   -0.5840   -5.4760  -25.3420 C   0  0  0  0  0  0  0  0  0  0  0  0
   -1.3640   -5.8080  -24.2390 N   0  0  0  0  0  0  0  0  0  0  0  0
   -0.8270   -4.2670  -25.8800 N   0  0  0  0  0  0  0  0  0  0  0  0
   -0.1720   -3.9510  -27.0200 C   0  0  0  0  0  3  0  0  0  0  0  0
    0.7100   -4.7920  -27.6530 C   0  0  0  0  0  0  0  0  0  0  0  0
    1.4590   -4.3460  -29.1260 Cl  0  0  0  0  0  0  0  0  0  0  0  0
   -2.0600   -5.0960  -24.0740 H   0  0  0  0  0  0  0  0  0  0  0  0
   -1.3830   -6.9400  -23.4190 C   0  0  0  0  0  0  0  0  0  0  0  0
   -1.4520   -6.7690  -22.0290 C   0  0  0  0  0  3  0  0  0  0  0  0
   -1.5720   -7.8680  -21.1670 C   0  0  0  0  0  3  0  0  0  0  0  0
   -1.6150   -9.1690  -21.6780 C   0  0  0  0  0  0  0  0  0  0  0  0
   -1.5180   -9.3460  -23.0620 C   0  0  0  0  0  3  0  0  0  0  0  0
   -1.4240   -8.2440  -23.9200 C   0  0  0  0  0  3  0  0  0  0  0  0
   -1.7670  -10.3310  -20.8150 C   0  0  0  0  0  0  0  0  0  0  0  0
   -2.8840  -10.8640  -20.3580 N   0  0  0  0  0  0  0  0  0  0  0  0
   -2.5160  -11.9220  -19.5610 N   0  0  0  0  0  0  0  0  0  0  0  0
   -1.1980  -12.0340  -19.5010 N   0  0  0  0  0  0  0  0  0  0  0  0
   -0.7320  -11.0420  -20.2690 N   0  0  0  0  0  0  0  0  0  0  0  0
    0.2640  -10.8950  -20.3470 H   0  0  0  0  0  0  0  0  0  0  0  0
    1.6810   -6.9740  -27.5870 O   0  0  0  0  0  0  0  0  0  0  0  0
    1.7150  -10.7120  -25.7120 C   0  0  0  0  0  0  0  0  0  0  0  0
    0.5330  -10.0870  -26.1080 C   0  0  0  0  0  3  0  0  0  0  0  0
    0.5660   -8.8330  -26.7220 C   0  0  0  0  0  3  0  0  0  0  0  0
    1.7840   -8.1870  -26.9430 C   0  0  0  0  0  0  0  0  0  0  0  0
    2.9680   -8.7960  -26.5220 C   0  0  0  0  0  3  0  0  0  0  0  0
    2.9320  -10.0590  -25.9120 C   0  0  0  0  0  3  0  0  0  0  0  0
    1.0140  -11.9700  -23.8210 C   0  0  0  0  0  1  0  0  0  0  0  0
    1.5450  -11.9430  -25.1400 O   0  0  0  0  0  0  0  0  0  0  0  0
  1  2  2  0  0  0  0
  2  3  1  0  0  0  0
  3  4  1  0  0  0  0
  4  9  1  0  0  0  0
  4 10  1  0  0  0  0
  5  3  2  0  0  0  0
  6  5  1  0  0  0  0
  7  6  2  0  0  0  0
  7  1  1  0  0  0  0
  8  7  1  0  0  0  0
 10 11  1  0  0  0  0
 11 12  2  0  0  0  0
 13 12  1  0  0  0  0
 13 16  1  0  0  0  0
 14 13  2  0  0  0  0
 15 10  2  0  0  0  0
 15 14  1  0  0  0  0
 16 17  2  0  0  0  0
 16 20  1  0  0  0  0
 17 18  1  0  0  0  0
 18 19  2  0  0  0  0
 20 19  1  0  0  0  0
 21 20  1  0  0  0  0
 22  1  1  0  0  0  0
 22 26  1  0  0  0  0
 23 30  1  0  0  0  0
 24 23  2  0  0  0  0
 25 24  1  0  0  0  0
 26 25  2  0  0  0  0
 26 27  1  0  0  0  0
 27 28  2  0  0  0  0
 28 23  1  0  0  0  0
 30 29  1  0  0  0  0
M  END
>  <minimizedAffinity>
-6.45767403

$$$$
