
 OpenBabel10152418103D

 30 33  0  0  0  0  0  0  0  0999 V2000
    3.2140   -7.6580  -29.1520 C   0  0  0  0  0  0  0  0  0  0  0  0
    2.7820   -8.3310  -28.0640 N   0  0  0  0  0  0  0  0  0  0  0  0
    3.4870   -9.4020  -27.6820 C   0  0  0  0  0  0  0  0  0  0  0  0
    3.1840  -10.0850  -26.5080 N   0  0  0  0  0  0  0  0  0  0  0  0
    4.5780   -9.8360  -28.3380 N   0  0  0  0  0  0  0  0  0  0  0  0
    4.9740   -9.1290  -29.4210 C   0  0  0  0  0  3  0  0  0  0  0  0
    4.3340   -8.0030  -29.8750 C   0  0  0  0  0  0  0  0  0  0  0  0
    4.9270   -7.1260  -31.2200 Cl  0  0  0  0  0  0  0  0  0  0  0  0
    3.9040  -10.7600  -26.2980 H   0  0  0  0  0  0  0  0  0  0  0  0
    2.1400   -9.9410  -25.5910 C   0  0  0  0  0  0  0  0  0  0  0  0
    1.8700   -8.6700  -25.0630 C   0  0  0  0  0  3  0  0  0  0  0  0
    0.7750   -8.4510  -24.2160 C   0  0  0  0  0  3  0  0  0  0  0  0
   -0.0740   -9.5060  -23.8680 C   0  0  0  0  0  0  0  0  0  0  0  0
    0.2050  -10.7810  -24.3710 C   0  0  0  0  0  3  0  0  0  0  0  0
    1.2860  -10.9890  -25.2360 C   0  0  0  0  0  3  0  0  0  0  0  0
   -1.2370   -9.3100  -23.0150 C   0  0  0  0  0  0  0  0  0  0  0  0
   -2.1770   -8.3900  -23.1200 N   0  0  0  0  0  0  0  0  0  0  0  0
   -3.0400   -8.5910  -22.0700 N   0  0  0  0  0  0  0  0  0  0  0  0
   -2.6370   -9.5990  -21.3100 N   0  0  0  0  0  0  0  0  0  0  0  0
   -1.5140  -10.0390  -21.8900 N   0  0  0  0  0  0  0  0  0  0  0  0
   -0.9910  -10.7890  -21.4620 H   0  0  0  0  0  0  0  0  0  0  0  0
    2.5390   -6.4910  -29.4240 O   0  0  0  0  0  0  0  0  0  0  0  0
   -0.2570   -4.8760  -26.7670 C   0  0  0  0  0  0  0  0  0  0  0  0
    0.6520   -4.0820  -27.4670 C   0  0  0  0  0  3  0  0  0  0  0  0
    1.5760   -4.6640  -28.3380 C   0  0  0  0  0  3  0  0  0  0  0  0
    1.6060   -6.0480  -28.5150 C   0  0  0  0  0  0  0  0  0  0  0  0
    0.7170   -6.8490  -27.7940 C   0  0  0  0  0  3  0  0  0  0  0  0
   -0.2150   -6.2610  -26.9260 C   0  0  0  0  0  3  0  0  0  0  0  0
   -1.1300   -2.7670  -26.1050 C   0  0  0  0  0  1  0  0  0  0  0  0
   -1.1180   -4.1820  -25.9630 O   0  0  0  0  0  0  0  0  0  0  0  0
  1  2  2  0  0  0  0
  2  3  1  0  0  0  0
  3  4  1  0  0  0  0
  4  9  1  0  0  0  0
  4 10  1  0  0  0  0
  5  3  2  0  0  0  0
  6  5  1  0  0  0  0
  7  6  2  0  0  0  0
  7  1  1  0  0  0  0
  8  7  1  0  0  0  0
 10 15  2  0  0  0  0
 10 11  1  0  0  0  0
 11 12  2  0  0  0  0
 12 13  1  0  0  0  0
 13 16  1  0  0  0  0
 14 13  2  0  0  0  0
 15 14  1  0  0  0  0
 16 20  1  0  0  0  0
 17 16  2  0  0  0  0
 17 18  1  0  0  0  0
 18 19  2  0  0  0  0
 20 21  1  0  0  0  0
 20 19  1  0  0  0  0
 22  1  1  0  0  0  0
 22 26  1  0  0  0  0
 23 30  1  0  0  0  0
 24 23  2  0  0  0  0
 25 24  1  0  0  0  0
 26 25  2  0  0  0  0
 26 27  1  0  0  0  0
 27 28  2  0  0  0  0
 28 23  1  0  0  0  0
 29 30  1  0  0  0  0
M  END
>  <minimizedAffinity>
-8.21294498

$$$$

 OpenBabel10152418103D

 30 33  0  0  0  0  0  0  0  0999 V2000
    2.8230   -7.4590  -27.7980 C   0  0  0  0  0  0  0  0  0  0  0  0
    1.8180   -7.1110  -26.9650 N   0  0  0  0  0  0  0  0  0  0  0  0
    0.9840   -6.1490  -27.3740 C   0  0  0  0  0  0  0  0  0  0  0  0
   -0.1440   -5.8090  -26.6330 N   0  0  0  0  0  0  0  0  0  0  0  0
    1.1140   -5.5150  -28.5530 N   0  0  0  0  0  0  0  0  0  0  0  0
    2.1330   -5.8990  -29.3550 C   0  0  0  0  0  3  0  0  0  0  0  0
    3.0240   -6.8930  -29.0370 C   0  0  0  0  0  0  0  0  0  0  0  0
    4.2560   -7.3640  -30.1280 Cl  0  0  0  0  0  0  0  0  0  0  0  0
   -0.7350   -5.1830  -27.1600 H   0  0  0  0  0  0  0  0  0  0  0  0
   -0.5950   -6.2290  -25.3790 C   0  0  0  0  0  0  0  0  0  0  0  0
   -1.3870   -7.3830  -25.2950 C   0  0  0  0  0  3  0  0  0  0  0  0
   -1.7850   -7.9040  -24.0550 C   0  0  0  0  0  3  0  0  0  0  0  0
   -1.4060   -7.2720  -22.8670 C   0  0  0  0  0  0  0  0  0  0  0  0
   -0.6390   -6.1050  -22.9460 C   0  0  0  0  0  3  0  0  0  0  0  0
   -0.2230   -5.6050  -24.1860 C   0  0  0  0  0  3  0  0  0  0  0  0
   -1.7760   -7.8000  -21.5620 C   0  0  0  0  0  0  0  0  0  0  0  0
   -1.7350   -9.0520  -21.1490 N   0  0  0  0  0  0  0  0  0  0  0  0
   -2.2100   -9.0560  -19.8600 N   0  0  0  0  0  0  0  0  0  0  0  0
   -2.5650   -7.8380  -19.4820 N   0  0  0  0  0  0  0  0  0  0  0  0
   -2.3060   -7.0600  -20.5390 N   0  0  0  0  0  0  0  0  0  0  0  0
   -2.5360   -6.0770  -20.5060 H   0  0  0  0  0  0  0  0  0  0  0  0
    3.5700   -8.5420  -27.3950 O   0  0  0  0  0  0  0  0  0  0  0  0
    1.6190  -11.1620  -24.7840 C   0  0  0  0  0  0  0  0  0  0  0  0
    1.6460   -9.7830  -24.5750 C   0  0  0  0  0  3  0  0  0  0  0  0
    2.3180   -8.9450  -25.4670 C   0  0  0  0  0  3  0  0  0  0  0  0
    2.9760   -9.4770  -26.5770 C   0  0  0  0  0  0  0  0  0  0  0  0
    2.9760  -10.8590  -26.7740 C   0  0  0  0  0  3  0  0  0  0  0  0
    2.2950  -11.6980  -25.8810 C   0  0  0  0  0  3  0  0  0  0  0  0
   -0.3910  -11.3930  -23.5380 C   0  0  0  0  0  1  0  0  0  0  0  0
    0.9130  -11.8670  -23.8490 O   0  0  0  0  0  0  0  0  0  0  0  0
  1 22  1  0  0  0  0
  1  2  2  0  0  0  0
  3  2  1  0  0  0  0
  3  4  1  0  0  0  0
  4 10  1  0  0  0  0
  5  3  2  0  0  0  0
  6  7  2  0  0  0  0
  6  5  1  0  0  0  0
  7  1  1  0  0  0  0
  8  7  1  0  0  0  0
  9  4  1  0  0  0  0
 10 11  2  0  0  0  0
 10 15  1  0  0  0  0
 11 12  1  0  0  0  0
 12 13  2  0  0  0  0
 13 16  1  0  0  0  0
 14 13  1  0  0  0  0
 15 14  2  0  0  0  0
 16 17  2  0  0  0  0
 16 20  1  0  0  0  0
 17 18  1  0  0  0  0
 18 19  2  0  0  0  0
 20 21  1  0  0  0  0
 20 19  1  0  0  0  0
 22 26  1  0  0  0  0
 23 24  1  0  0  0  0
 23 30  1  0  0  0  0
 25 24  2  0  0  0  0
 26 25  1  0  0  0  0
 27 26  2  0  0  0  0
 27 28  1  0  0  0  0
 28 23  2  0  0  0  0
 30 29  1  0  0  0  0
M  END
>  <minimizedAffinity>
-7.62209797

$$$$

 OpenBabel10152418103D

 30 33  0  0  0  0  0  0  0  0999 V2000
   -0.7430   -9.5670  -22.8160 C   0  0  0  0  0  0  0  0  0  0  0  0
    0.2080   -9.7990  -23.7470 N   0  0  0  0  0  0  0  0  0  0  0  0
    0.7070  -11.0380  -23.8230 C   0  0  0  0  0  0  0  0  0  0  0  0
    1.6030  -11.3950  -24.8250 N   0  0  0  0  0  0  0  0  0  0  0  0
    0.3180  -12.0380  -23.0110 N   0  0  0  0  0  0  0  0  0  0  0  0
   -0.6380  -11.7590  -22.0960 C   0  0  0  0  0  3  0  0  0  0  0  0
   -1.2290  -10.5280  -21.9590 C   0  0  0  0  0  0  0  0  0  0  0  0
   -2.4750  -10.2650  -20.8150 Cl  0  0  0  0  0  0  0  0  0  0  0  0
    1.7520  -12.3930  -24.8240 H   0  0  0  0  0  0  0  0  0  0  0  0
    2.2340  -10.6430  -25.8200 C   0  0  0  0  0  0  0  0  0  0  0  0
    3.1460  -11.2780  -26.6750 C   0  0  0  0  0  3  0  0  0  0  0  0
    3.7330  -10.5960  -27.7500 C   0  0  0  0  0  3  0  0  0  0  0  0
    3.4270   -9.2520  -27.9880 C   0  0  0  0  0  0  0  0  0  0  0  0
    2.5390   -8.6060  -27.1220 C   0  0  0  0  0  3  0  0  0  0  0  0
    1.9370   -9.3000  -26.0650 C   0  0  0  0  0  3  0  0  0  0  0  0
    3.9950   -8.5200  -29.1110 C   0  0  0  0  0  0  0  0  0  0  0  0
    4.5740   -9.0080  -30.1900 N   0  0  0  0  0  0  0  0  0  0  0  0
    4.9740   -7.9290  -30.9420 N   0  0  0  0  0  0  0  0  0  0  0  0
    4.6750   -6.7910  -30.3340 N   0  0  0  0  0  0  0  0  0  0  0  0
    4.0770   -7.1560  -29.1940 N   0  0  0  0  0  0  0  0  0  0  0  0
    3.7910   -6.4500  -28.5310 H   0  0  0  0  0  0  0  0  0  0  0  0
   -1.3210   -8.3190  -22.8670 O   0  0  0  0  0  0  0  0  0  0  0  0
   -0.3370   -5.7440  -26.0120 C   0  0  0  0  0  0  0  0  0  0  0  0
   -0.0380   -5.4470  -24.6820 C   0  0  0  0  0  3  0  0  0  0  0  0
   -0.3930   -6.3310  -23.6610 C   0  0  0  0  0  3  0  0  0  0  0  0
   -1.0580   -7.5220  -23.9580 C   0  0  0  0  0  0  0  0  0  0  0  0
   -1.3850   -7.8100  -25.2840 C   0  0  0  0  0  3  0  0  0  0  0  0
   -1.0200   -6.9240  -26.3090 C   0  0  0  0  0  3  0  0  0  0  0  0
    0.9200   -5.2580  -27.9690 C   0  0  0  0  0  1  0  0  0  0  0  0
    0.0810   -4.8050  -26.9140 O   0  0  0  0  0  0  0  0  0  0  0  0
  1  7  1  0  0  0  0
  2  1  2  0  0  0  0
  3  2  1  0  0  0  0
  3  5  2  0  0  0  0
  4  9  1  0  0  0  0
  4  3  1  0  0  0  0
  5  6  1  0  0  0  0
  6  7  2  0  0  0  0
  7  8  1  0  0  0  0
 10  4  1  0  0  0  0
 11 10  2  0  0  0  0
 12 11  1  0  0  0  0
 13 12  2  0  0  0  0
 13 14  1  0  0  0  0
 14 15  2  0  0  0  0
 15 10  1  0  0  0  0
 16 13  1  0  0  0  0
 17 16  2  0  0  0  0
 18 19  2  0  0  0  0
 18 17  1  0  0  0  0
 19 20  1  0  0  0  0
 20 16  1  0  0  0  0
 20 21  1  0  0  0  0
 22  1  1  0  0  0  0
 23 24  1  0  0  0  0
 24 25  2  0  0  0  0
 26 25  1  0  0  0  0
 26 22  1  0  0  0  0
 27 26  2  0  0  0  0
 28 23  2  0  0  0  0
 28 27  1  0  0  0  0
 29 30  1  0  0  0  0
 30 23  1  0  0  0  0
M  END
>  <minimizedAffinity>
-7.59725285

$$$$

 OpenBabel10152418103D

 30 33  0  0  0  0  0  0  0  0999 V2000
   -1.0490   -8.5930  -23.0850 C   0  0  0  0  0  0  0  0  0  0  0  0
   -0.4080   -8.0060  -24.1180 N   0  0  0  0  0  0  0  0  0  0  0  0
   -0.4260   -6.6690  -24.1750 C   0  0  0  0  0  0  0  0  0  0  0  0
    0.3030   -5.9780  -25.1360 N   0  0  0  0  0  0  0  0  0  0  0  0
   -1.0610   -5.9040  -23.2690 N   0  0  0  0  0  0  0  0  0  0  0  0
   -1.6870   -6.5360  -22.2510 C   0  0  0  0  0  3  0  0  0  0  0  0
   -1.7020   -7.8990  -22.0910 C   0  0  0  0  0  0  0  0  0  0  0  0
   -2.4680   -8.6270  -20.7440 Cl  0  0  0  0  0  0  0  0  0  0  0  0
    0.2990   -4.9890  -24.9370 H   0  0  0  0  0  0  0  0  0  0  0  0
    1.0570   -6.4180  -26.2280 C   0  0  0  0  0  0  0  0  0  0  0  0
    0.8120   -5.8600  -27.4910 C   0  0  0  0  0  3  0  0  0  0  0  0
    1.6030   -6.1940  -28.5990 C   0  0  0  0  0  3  0  0  0  0  0  0
    2.6550   -7.1070  -28.4710 C   0  0  0  0  0  0  0  0  0  0  0  0
    2.8860   -7.6870  -27.2190 C   0  0  0  0  0  3  0  0  0  0  0  0
    2.1080   -7.3310  -26.1110 C   0  0  0  0  0  3  0  0  0  0  0  0
    3.5150   -7.4550  -29.5930 C   0  0  0  0  0  0  0  0  0  0  0  0
    3.7920   -8.6560  -30.0620 N   0  0  0  0  0  0  0  0  0  0  0  0
    4.6710   -8.4760  -31.1040 N   0  0  0  0  0  0  0  0  0  0  0  0
    4.9550   -7.1930  -31.2670 N   0  0  0  0  0  0  0  0  0  0  0  0
    4.2470   -6.5600  -30.3250 N   0  0  0  0  0  0  0  0  0  0  0  0
    4.3330   -5.5590  -30.2210 H   0  0  0  0  0  0  0  0  0  0  0  0
   -0.8880   -9.9570  -22.9950 O   0  0  0  0  0  0  0  0  0  0  0  0
    1.7840  -11.6110  -25.7530 C   0  0  0  0  0  0  0  0  0  0  0  0
    0.7480  -10.7590  -26.1370 C   0  0  0  0  0  3  0  0  0  0  0  0
   -0.1280  -10.2370  -25.1830 C   0  0  0  0  0  3  0  0  0  0  0  0
    0.0180  -10.5640  -23.8340 C   0  0  0  0  0  0  0  0  0  0  0  0
    1.0360  -11.4400  -23.4500 C   0  0  0  0  0  3  0  0  0  0  0  0
    1.9190  -11.9580  -24.4080 C   0  0  0  0  0  3  0  0  0  0  0  0
    3.7210  -11.2440  -27.0800 C   0  0  0  0  0  1  0  0  0  0  0  0
    2.5810  -12.0380  -26.7800 O   0  0  0  0  0  0  0  0  0  0  0  0
  1 22  1  0  0  0  0
  1  7  1  0  0  0  0
  2  1  2  0  0  0  0
  3  2  1  0  0  0  0
  3  5  2  0  0  0  0
  4  9  1  0  0  0  0
  4  3  1  0  0  0  0
  5  6  1  0  0  0  0
  6  7  2  0  0  0  0
  7  8  1  0  0  0  0
 10 15  1  0  0  0  0
 10  4  1  0  0  0  0
 11 10  2  0  0  0  0
 12 13  2  0  0  0  0
 12 11  1  0  0  0  0
 13 14  1  0  0  0  0
 14 15  2  0  0  0  0
 16 13  1  0  0  0  0
 17 16  2  0  0  0  0
 18 17  1  0  0  0  0
 19 18  2  0  0  0  0
 19 20  1  0  0  0  0
 20 21  1  0  0  0  0
 20 16  1  0  0  0  0
 23 28  1  0  0  0  0
 24 23  2  0  0  0  0
 24 25  1  0  0  0  0
 25 26  2  0  0  0  0
 26 27  1  0  0  0  0
 26 22  1  0  0  0  0
 28 27  2  0  0  0  0
 29 30  1  0  0  0  0
 30 23  1  0  0  0  0
M  END
>  <minimizedAffinity>
-7.43166256

$$$$

 OpenBabel10152418103D

 30 33  0  0  0  0  0  0  0  0999 V2000
    2.2940   -7.5240  -27.7540 C   0  0  0  0  0  0  0  0  0  0  0  0
    1.4810   -7.9550  -26.7660 N   0  0  0  0  0  0  0  0  0  0  0  0
    1.9840   -8.8390  -25.8960 C   0  0  0  0  0  0  0  0  0  0  0  0
    1.2580   -9.2470  -24.7820 N   0  0  0  0  0  0  0  0  0  0  0  0
    3.2370   -9.3180  -25.9770 N   0  0  0  0  0  0  0  0  0  0  0  0
    4.0160   -8.8570  -26.9820 C   0  0  0  0  0  3  0  0  0  0  0  0
    3.6010   -7.9310  -27.9070 C   0  0  0  0  0  0  0  0  0  0  0  0
    4.6610   -7.3500  -29.1190 Cl  0  0  0  0  0  0  0  0  0  0  0  0
    1.8410   -9.7870  -24.1610 H   0  0  0  0  0  0  0  0  0  0  0  0
   -0.0530   -8.9820  -24.3770 C   0  0  0  0  0  0  0  0  0  0  0  0
   -0.3980   -7.6740  -24.0060 C   0  0  0  0  0  3  0  0  0  0  0  0
   -1.7200   -7.3330  -23.6860 C   0  0  0  0  0  3  0  0  0  0  0  0
   -2.7290   -8.3000  -23.7200 C   0  0  0  0  0  0  0  0  0  0  0  0
   -2.3860   -9.6120  -24.0620 C   0  0  0  0  0  3  0  0  0  0  0  0
   -1.0690   -9.9410  -24.4050 C   0  0  0  0  0  3  0  0  0  0  0  0
   -4.1170   -7.9750  -23.4210 C   0  0  0  0  0  0  0  0  0  0  0  0
   -4.5780   -7.0580  -22.5930 N   0  0  0  0  0  0  0  0  0  0  0  0
   -5.9480   -7.1520  -22.6280 N   0  0  0  0  0  0  0  0  0  0  0  0
   -6.3370   -8.1220  -23.4410 N   0  0  0  0  0  0  0  0  0  0  0  0
   -5.2020   -8.6400  -23.9260 N   0  0  0  0  0  0  0  0  0  0  0  0
   -5.2400   -9.4360  -24.5470 H   0  0  0  0  0  0  0  0  0  0  0  0
    1.7790   -6.5190  -28.5400 O   0  0  0  0  0  0  0  0  0  0  0  0
   -0.3620   -3.3260  -26.8920 C   0  0  0  0  0  0  0  0  0  0  0  0
    0.7040   -3.1350  -27.7720 C   0  0  0  0  0  3  0  0  0  0  0  0
    1.3990   -4.2300  -28.2910 C   0  0  0  0  0  3  0  0  0  0  0  0
    1.0390   -5.5300  -27.9330 C   0  0  0  0  0  0  0  0  0  0  0  0
   -0.0090   -5.7250  -27.0300 C   0  0  0  0  0  3  0  0  0  0  0  0
   -0.7100   -4.6240  -26.5160 C   0  0  0  0  0  3  0  0  0  0  0  0
   -1.4780   -2.1650  -25.1450 C   0  0  0  0  0  1  0  0  0  0  0  0
   -0.9670   -2.1750  -26.4720 O   0  0  0  0  0  0  0  0  0  0  0  0
  1  2  2  0  0  0  0
  2  3  1  0  0  0  0
  3  4  1  0  0  0  0
  4 10  1  0  0  0  0
  4  9  1  0  0  0  0
  5  3  2  0  0  0  0
  6  5  1  0  0  0  0
  7  1  1  0  0  0  0
  7  6  2  0  0  0  0
  8  7  1  0  0  0  0
 10 11  1  0  0  0  0
 11 12  2  0  0  0  0
 13 12  1  0  0  0  0
 13 16  1  0  0  0  0
 14 13  2  0  0  0  0
 15 10  2  0  0  0  0
 15 14  1  0  0  0  0
 16 17  2  0  0  0  0
 18 17  1  0  0  0  0
 19 18  2  0  0  0  0
 20 19  1  0  0  0  0
 20 16  1  0  0  0  0
 21 20  1  0  0  0  0
 22 26  1  0  0  0  0
 22  1  1  0  0  0  0
 23 28  1  0  0  0  0
 23 30  1  0  0  0  0
 24 23  2  0  0  0  0
 25 26  2  0  0  0  0
 25 24  1  0  0  0  0
 26 27  1  0  0  0  0
 27 28  2  0  0  0  0
 30 29  1  0  0  0  0
M  END
>  <minimizedAffinity>
-6.99504185

$$$$

 OpenBabel10152418103D

 30 33  0  0  0  0  0  0  0  0999 V2000
    1.7690   -6.4970  -26.8520 C   0  0  0  0  0  0  0  0  0  0  0  0
    0.8440   -6.9900  -26.0000 N   0  0  0  0  0  0  0  0  0  0  0  0
   -0.4230   -6.5980  -26.1730 C   0  0  0  0  0  0  0  0  0  0  0  0
   -1.4570   -7.1430  -25.4180 N   0  0  0  0  0  0  0  0  0  0  0  0
   -0.8010   -5.7350  -27.1330 N   0  0  0  0  0  0  0  0  0  0  0  0
    0.1600   -5.2690  -27.9630 C   0  0  0  0  0  3  0  0  0  0  0  0
    1.4810   -5.6330  -27.8830 C   0  0  0  0  0  0  0  0  0  0  0  0
    2.6320   -5.0470  -29.0060 Cl  0  0  0  0  0  0  0  0  0  0  0  0
   -2.3510   -6.8510  -25.7840 H   0  0  0  0  0  0  0  0  0  0  0  0
   -1.4530   -8.0360  -24.3430 C   0  0  0  0  0  0  0  0  0  0  0  0
   -1.7660   -7.5580  -23.0630 C   0  0  0  0  0  3  0  0  0  0  0  0
   -1.8730   -8.4270  -21.9680 C   0  0  0  0  0  3  0  0  0  0  0  0
   -1.6570   -9.8000  -22.1290 C   0  0  0  0  0  0  0  0  0  0  0  0
   -1.3180  -10.2780  -23.3980 C   0  0  0  0  0  3  0  0  0  0  0  0
   -1.2380   -9.4090  -24.4930 C   0  0  0  0  0  3  0  0  0  0  0  0
   -1.7880  -10.7350  -21.0210 C   0  0  0  0  0  0  0  0  0  0  0  0
   -2.8940  -11.2250  -20.4960 N   0  0  0  0  0  0  0  0  0  0  0  0
   -2.5090  -12.0370  -19.4570 N   0  0  0  0  0  0  0  0  0  0  0  0
   -1.1920  -12.0370  -19.3180 N   0  0  0  0  0  0  0  0  0  0  0  0
   -0.7440  -11.2220  -20.2800 N   0  0  0  0  0  0  0  0  0  0  0  0
    0.2440  -11.0250  -20.3510 H   0  0  0  0  0  0  0  0  0  0  0  0
    3.0300   -7.0330  -26.7200 O   0  0  0  0  0  0  0  0  0  0  0  0
    3.8890  -10.7930  -28.3360 C   0  0  0  0  0  0  0  0  0  0  0  0
    4.2260   -9.6060  -28.9870 C   0  0  0  0  0  3  0  0  0  0  0  0
    3.9110   -8.3710  -28.4160 C   0  0  0  0  0  3  0  0  0  0  0  0
    3.2500   -8.3080  -27.1880 C   0  0  0  0  0  0  0  0  0  0  0  0
    2.8850   -9.4940  -26.5460 C   0  0  0  0  0  3  0  0  0  0  0  0
    3.2090  -10.7330  -27.1190 C   0  0  0  0  0  3  0  0  0  0  0  0
    4.4300  -11.8360  -30.4010 C   0  0  0  0  0  1  0  0  0  0  0  0
    4.2690  -11.9310  -28.9920 O   0  0  0  0  0  0  0  0  0  0  0  0
  1 22  1  0  0  0  0
  1  2  2  0  0  0  0
  3  2  1  0  0  0  0
  3  4  1  0  0  0  0
  4 10  1  0  0  0  0
  5  3  2  0  0  0  0
  6  7  2  0  0  0  0
  6  5  1  0  0  0  0
  7  1  1  0  0  0  0
  8  7  1  0  0  0  0
  9  4  1  0  0  0  0
 10 11  1  0  0  0  0
 11 12  2  0  0  0  0
 13 12  1  0  0  0  0
 13 16  1  0  0  0  0
 14 13  2  0  0  0  0
 15 10  2  0  0  0  0
 15 14  1  0  0  0  0
 16 17  2  0  0  0  0
 16 20  1  0  0  0  0
 17 18  1  0  0  0  0
 18 19  2  0  0  0  0
 20 19  1  0  0  0  0
 21 20  1  0  0  0  0
 23 28  1  0  0  0  0
 24 25  1  0  0  0  0
 24 23  2  0  0  0  0
 25 26  2  0  0  0  0
 26 22  1  0  0  0  0
 26 27  1  0  0  0  0
 28 27  2  0  0  0  0
 29 30  1  0  0  0  0
 30 23  1  0  0  0  0
M  END
>  <minimizedAffinity>
-6.61988831

$$$$

 OpenBabel10152418103D

 30 33  0  0  0  0  0  0  0  0999 V2000
    0.9110   -5.9910  -27.0090 C   0  0  0  0  0  0  0  0  0  0  0  0
    0.2780   -6.3520  -25.8710 N   0  0  0  0  0  0  0  0  0  0  0  0
   -0.5840   -5.4760  -25.3420 C   0  0  0  0  0  0  0  0  0  0  0  0
   -1.3640   -5.8080  -24.2390 N   0  0  0  0  0  0  0  0  0  0  0  0
   -0.8270   -4.2670  -25.8800 N   0  0  0  0  0  0  0  0  0  0  0  0
   -0.1720   -3.9510  -27.0200 C   0  0  0  0  0  3  0  0  0  0  0  0
    0.7100   -4.7920  -27.6530 C   0  0  0  0  0  0  0  0  0  0  0  0
    1.4590   -4.3460  -29.1260 Cl  0  0  0  0  0  0  0  0  0  0  0  0
   -2.0600   -5.0960  -24.0740 H   0  0  0  0  0  0  0  0  0  0  0  0
   -1.3830   -6.9400  -23.4190 C   0  0  0  0  0  0  0  0  0  0  0  0
   -1.4520   -6.7690  -22.0290 C   0  0  0  0  0  3  0  0  0  0  0  0
   -1.5720   -7.8680  -21.1670 C   0  0  0  0  0  3  0  0  0  0  0  0
   -1.6150   -9.1690  -21.6780 C   0  0  0  0  0  0  0  0  0  0  0  0
   -1.5180   -9.3460  -23.0620 C   0  0  0  0  0  3  0  0  0  0  0  0
   -1.4240   -8.2440  -23.9200 C   0  0  0  0  0  3  0  0  0  0  0  0
   -1.7670  -10.3310  -20.8150 C   0  0  0  0  0  0  0  0  0  0  0  0
   -2.8840  -10.8640  -20.3580 N   0  0  0  0  0  0  0  0  0  0  0  0
   -2.5160  -11.9220  -19.5610 N   0  0  0  0  0  0  0  0  0  0  0  0
   -1.1980  -12.0340  -19.5010 N   0  0  0  0  0  0  0  0  0  0  0  0
   -0.7320  -11.0420  -20.2690 N   0  0  0  0  0  0  0  0  0  0  0  0
    0.2640  -10.8950  -20.3470 H   0  0  0  0  0  0  0  0  0  0  0  0
    1.6810   -6.9740  -27.5870 O   0  0  0  0  0  0  0  0  0  0  0  0
    1.7150  -10.7120  -25.7120 C   0  0  0  0  0  0  0  0  0  0  0  0
    0.5330  -10.0870  -26.1080 C   0  0  0  0  0  3  0  0  0  0  0  0
    0.5660   -8.8330  -26.7220 C   0  0  0  0  0  3  0  0  0  0  0  0
    1.7840   -8.1870  -26.9430 C   0  0  0  0  0  0  0  0  0  0  0  0
    2.9680   -8.7960  -26.5220 C   0  0  0  0  0  3  0  0  0  0  0  0
    2.9320  -10.0590  -25.9120 C   0  0  0  0  0  3  0  0  0  0  0  0
    1.0140  -11.9700  -23.8210 C   0  0  0  0  0  1  0  0  0  0  0  0
    1.5450  -11.9430  -25.1400 O   0  0  0  0  0  0  0  0  0  0  0  0
  1  2  2  0  0  0  0
  2  3  1  0  0  0  0
  3  4  1  0  0  0  0
  4  9  1  0  0  0  0
  4 10  1  0  0  0  0
  5  3  2  0  0  0  0
  6  5  1  0  0  0  0
  7  6  2  0  0  0  0
  7  1  1  0  0  0  0
  8  7  1  0  0  0  0
 10 11  1  0  0  0  0
 11 12  2  0  0  0  0
 13 12  1  0  0  0  0
 13 16  1  0  0  0  0
 14 13  2  0  0  0  0
 15 10  2  0  0  0  0
 15 14  1  0  0  0  0
 16 17  2  0  0  0  0
 16 20  1  0  0  0  0
 17 18  1  0  0  0  0
 18 19  2  0  0  0  0
 20 19  1  0  0  0  0
 21 20  1  0  0  0  0
 22  1  1  0  0  0  0
 22 26  1  0  0  0  0
 23 30  1  0  0  0  0
 24 23  2  0  0  0  0
 25 24  1  0  0  0  0
 26 25  2  0  0  0  0
 26 27  1  0  0  0  0
 27 28  2  0  0  0  0
 28 23  1  0  0  0  0
 30 29  1  0  0  0  0
M  END
>  <minimizedAffinity>
-6.45767403

$$$$

 OpenBabel10152418103D

 30 33  0  0  0  0  0  0  0  0999 V2000
   -1.4100   -8.0070  -22.9420 C   0  0  0  0  0  0  0  0  0  0  0  0
   -0.4740   -8.8040  -23.5020 N   0  0  0  0  0  0  0  0  0  0  0  0
   -0.2830  -10.0090  -22.9510 C   0  0  0  0  0  0  0  0  0  0  0  0
    0.5750  -10.9380  -23.5300 N   0  0  0  0  0  0  0  0  0  0  0  0
   -0.9600  -10.4400  -21.8720 N   0  0  0  0  0  0  0  0  0  0  0  0
   -1.8880   -9.6080  -21.3470 C   0  0  0  0  0  3  0  0  0  0  0  0
   -2.1760   -8.3660  -21.8570 C   0  0  0  0  0  0  0  0  0  0  0  0
   -3.4060   -7.3900  -21.1730 Cl  0  0  0  0  0  0  0  0  0  0  0  0
    0.4800  -11.8340  -23.0760 H   0  0  0  0  0  0  0  0  0  0  0  0
    1.4420  -10.8500  -24.6230 C   0  0  0  0  0  0  0  0  0  0  0  0
    2.0220  -12.0240  -25.1260 C   0  0  0  0  0  3  0  0  0  0  0  0
    2.8200  -12.0060  -26.2780 C   0  0  0  0  0  3  0  0  0  0  0  0
    3.0650  -10.8050  -26.9510 C   0  0  0  0  0  0  0  0  0  0  0  0
    2.5120   -9.6270  -26.4390 C   0  0  0  0  0  3  0  0  0  0  0  0
    1.6950   -9.6560  -25.3020 C   0  0  0  0  0  3  0  0  0  0  0  0
    3.8650  -10.7520  -28.1670 C   0  0  0  0  0  0  0  0  0  0  0  0
    4.2720   -9.6850  -28.8270 N   0  0  0  0  0  0  0  0  0  0  0  0
    4.9670  -10.1430  -29.9210 N   0  0  0  0  0  0  0  0  0  0  0  0
    4.9730  -11.4670  -29.9590 N   0  0  0  0  0  0  0  0  0  0  0  0
    4.2810  -11.8460  -28.8770 N   0  0  0  0  0  0  0  0  0  0  0  0
    4.1110  -12.8270  -28.7100 H   0  0  0  0  0  0  0  0  0  0  0  0
   -1.6660   -6.8390  -23.6230 O   0  0  0  0  0  0  0  0  0  0  0  0
    0.2640   -6.1090  -27.2600 C   0  0  0  0  0  0  0  0  0  0  0  0
    0.3880   -5.2540  -26.1650 C   0  0  0  0  0  3  0  0  0  0  0  0
   -0.2820   -5.5310  -24.9710 C   0  0  0  0  0  3  0  0  0  0  0  0
   -1.0900   -6.6640  -24.8600 C   0  0  0  0  0  0  0  0  0  0  0  0
   -1.2400   -7.5070  -25.9640 C   0  0  0  0  0  3  0  0  0  0  0  0
   -0.5600   -7.2310  -27.1590 C   0  0  0  0  0  3  0  0  0  0  0  0
    2.3510   -6.1270  -28.3960 C   0  0  0  0  0  1  0  0  0  0  0  0
    0.9850   -5.7350  -28.3600 O   0  0  0  0  0  0  0  0  0  0  0  0
  1  7  1  0  0  0  0
  2  3  1  0  0  0  0
  2  1  2  0  0  0  0
  3  5  2  0  0  0  0
  4  9  1  0  0  0  0
  4  3  1  0  0  0  0
  5  6  1  0  0  0  0
  7  6  2  0  0  0  0
  7  8  1  0  0  0  0
 10  4  1  0  0  0  0
 11 10  1  0  0  0  0
 12 11  2  0  0  0  0
 13 14  2  0  0  0  0
 13 12  1  0  0  0  0
 14 15  1  0  0  0  0
 15 10  2  0  0  0  0
 16 13  1  0  0  0  0
 17 16  2  0  0  0  0
 18 17  1  0  0  0  0
 19 18  2  0  0  0  0
 19 20  1  0  0  0  0
 20 21  1  0  0  0  0
 20 16  1  0  0  0  0
 22  1  1  0  0  0  0
 23 28  2  0  0  0  0
 23 24  1  0  0  0  0
 24 25  2  0  0  0  0
 25 26  1  0  0  0  0
 26 22  1  0  0  0  0
 27 26  2  0  0  0  0
 28 27  1  0  0  0  0
 29 30  1  0  0  0  0
 30 23  1  0  0  0  0
M  END
>  <minimizedAffinity>
-5.69277191

$$$$
