
 OpenBabel10152418103D

 30 33  0  0  0  0  0  0  0  0999 V2000
    1.7690   -6.4970  -26.8520 C   0  0  0  0  0  0  0  0  0  0  0  0
    0.8440   -6.9900  -26.0000 N   0  0  0  0  0  0  0  0  0  0  0  0
   -0.4230   -6.5980  -26.1730 C   0  0  0  0  0  0  0  0  0  0  0  0
   -1.4570   -7.1430  -25.4180 N   0  0  0  0  0  0  0  0  0  0  0  0
   -0.8010   -5.7350  -27.1330 N   0  0  0  0  0  0  0  0  0  0  0  0
    0.1600   -5.2690  -27.9630 C   0  0  0  0  0  3  0  0  0  0  0  0
    1.4810   -5.6330  -27.8830 C   0  0  0  0  0  0  0  0  0  0  0  0
    2.6320   -5.0470  -29.0060 Cl  0  0  0  0  0  0  0  0  0  0  0  0
   -2.3510   -6.8510  -25.7840 H   0  0  0  0  0  0  0  0  0  0  0  0
   -1.4530   -8.0360  -24.3430 C   0  0  0  0  0  0  0  0  0  0  0  0
   -1.7660   -7.5580  -23.0630 C   0  0  0  0  0  3  0  0  0  0  0  0
   -1.8730   -8.4270  -21.9680 C   0  0  0  0  0  3  0  0  0  0  0  0
   -1.6570   -9.8000  -22.1290 C   0  0  0  0  0  0  0  0  0  0  0  0
   -1.3180  -10.2780  -23.3980 C   0  0  0  0  0  3  0  0  0  0  0  0
   -1.2380   -9.4090  -24.4930 C   0  0  0  0  0  3  0  0  0  0  0  0
   -1.7880  -10.7350  -21.0210 C   0  0  0  0  0  0  0  0  0  0  0  0
   -2.8940  -11.2250  -20.4960 N   0  0  0  0  0  0  0  0  0  0  0  0
   -2.5090  -12.0370  -19.4570 N   0  0  0  0  0  0  0  0  0  0  0  0
   -1.1920  -12.0370  -19.3180 N   0  0  0  0  0  0  0  0  0  0  0  0
   -0.7440  -11.2220  -20.2800 N   0  0  0  0  0  0  0  0  0  0  0  0
    0.2440  -11.0250  -20.3510 H   0  0  0  0  0  0  0  0  0  0  0  0
    3.0300   -7.0330  -26.7200 O   0  0  0  0  0  0  0  0  0  0  0  0
    3.8890  -10.7930  -28.3360 C   0  0  0  0  0  0  0  0  0  0  0  0
    4.2260   -9.6060  -28.9870 C   0  0  0  0  0  3  0  0  0  0  0  0
    3.9110   -8.3710  -28.4160 C   0  0  0  0  0  3  0  0  0  0  0  0
    3.2500   -8.3080  -27.1880 C   0  0  0  0  0  0  0  0  0  0  0  0
    2.8850   -9.4940  -26.5460 C   0  0  0  0  0  3  0  0  0  0  0  0
    3.2090  -10.7330  -27.1190 C   0  0  0  0  0  3  0  0  0  0  0  0
    4.4300  -11.8360  -30.4010 C   0  0  0  0  0  1  0  0  0  0  0  0
    4.2690  -11.9310  -28.9920 O   0  0  0  0  0  0  0  0  0  0  0  0
  1 22  1  0  0  0  0
  1  2  2  0  0  0  0
  3  2  1  0  0  0  0
  3  4  1  0  0  0  0
  4 10  1  0  0  0  0
  5  3  2  0  0  0  0
  6  7  2  0  0  0  0
  6  5  1  0  0  0  0
  7  1  1  0  0  0  0
  8  7  1  0  0  0  0
  9  4  1  0  0  0  0
 10 11  1  0  0  0  0
 11 12  2  0  0  0  0
 13 12  1  0  0  0  0
 13 16  1  0  0  0  0
 14 13  2  0  0  0  0
 15 10  2  0  0  0  0
 15 14  1  0  0  0  0
 16 17  2  0  0  0  0
 16 20  1  0  0  0  0
 17 18  1  0  0  0  0
 18 19  2  0  0  0  0
 20 19  1  0  0  0  0
 21 20  1  0  0  0  0
 23 28  1  0  0  0  0
 24 25  1  0  0  0  0
 24 23  2  0  0  0  0
 25 26  2  0  0  0  0
 26 22  1  0  0  0  0
 26 27  1  0  0  0  0
 28 27  2  0  0  0  0
 29 30  1  0  0  0  0
 30 23  1  0  0  0  0
M  END
>  <minimizedAffinity>
-6.61988831

$$$$
