
 OpenBabel10152418103D

 30 33  0  0  0  0  0  0  0  0999 V2000
   -1.4100   -8.0070  -22.9420 C   0  0  0  0  0  0  0  0  0  0  0  0
   -0.4740   -8.8040  -23.5020 N   0  0  0  0  0  0  0  0  0  0  0  0
   -0.2830  -10.0090  -22.9510 C   0  0  0  0  0  0  0  0  0  0  0  0
    0.5750  -10.9380  -23.5300 N   0  0  0  0  0  0  0  0  0  0  0  0
   -0.9600  -10.4400  -21.8720 N   0  0  0  0  0  0  0  0  0  0  0  0
   -1.8880   -9.6080  -21.3470 C   0  0  0  0  0  3  0  0  0  0  0  0
   -2.1760   -8.3660  -21.8570 C   0  0  0  0  0  0  0  0  0  0  0  0
   -3.4060   -7.3900  -21.1730 Cl  0  0  0  0  0  0  0  0  0  0  0  0
    0.4800  -11.8340  -23.0760 H   0  0  0  0  0  0  0  0  0  0  0  0
    1.4420  -10.8500  -24.6230 C   0  0  0  0  0  0  0  0  0  0  0  0
    2.0220  -12.0240  -25.1260 C   0  0  0  0  0  3  0  0  0  0  0  0
    2.8200  -12.0060  -26.2780 C   0  0  0  0  0  3  0  0  0  0  0  0
    3.0650  -10.8050  -26.9510 C   0  0  0  0  0  0  0  0  0  0  0  0
    2.5120   -9.6270  -26.4390 C   0  0  0  0  0  3  0  0  0  0  0  0
    1.6950   -9.6560  -25.3020 C   0  0  0  0  0  3  0  0  0  0  0  0
    3.8650  -10.7520  -28.1670 C   0  0  0  0  0  0  0  0  0  0  0  0
    4.2720   -9.6850  -28.8270 N   0  0  0  0  0  0  0  0  0  0  0  0
    4.9670  -10.1430  -29.9210 N   0  0  0  0  0  0  0  0  0  0  0  0
    4.9730  -11.4670  -29.9590 N   0  0  0  0  0  0  0  0  0  0  0  0
    4.2810  -11.8460  -28.8770 N   0  0  0  0  0  0  0  0  0  0  0  0
    4.1110  -12.8270  -28.7100 H   0  0  0  0  0  0  0  0  0  0  0  0
   -1.6660   -6.8390  -23.6230 O   0  0  0  0  0  0  0  0  0  0  0  0
    0.2640   -6.1090  -27.2600 C   0  0  0  0  0  0  0  0  0  0  0  0
    0.3880   -5.2540  -26.1650 C   0  0  0  0  0  3  0  0  0  0  0  0
   -0.2820   -5.5310  -24.9710 C   0  0  0  0  0  3  0  0  0  0  0  0
   -1.0900   -6.6640  -24.8600 C   0  0  0  0  0  0  0  0  0  0  0  0
   -1.2400   -7.5070  -25.9640 C   0  0  0  0  0  3  0  0  0  0  0  0
   -0.5600   -7.2310  -27.1590 C   0  0  0  0  0  3  0  0  0  0  0  0
    2.3510   -6.1270  -28.3960 C   0  0  0  0  0  1  0  0  0  0  0  0
    0.9850   -5.7350  -28.3600 O   0  0  0  0  0  0  0  0  0  0  0  0
  1  7  1  0  0  0  0
  2  3  1  0  0  0  0
  2  1  2  0  0  0  0
  3  5  2  0  0  0  0
  4  9  1  0  0  0  0
  4  3  1  0  0  0  0
  5  6  1  0  0  0  0
  7  6  2  0  0  0  0
  7  8  1  0  0  0  0
 10  4  1  0  0  0  0
 11 10  1  0  0  0  0
 12 11  2  0  0  0  0
 13 14  2  0  0  0  0
 13 12  1  0  0  0  0
 14 15  1  0  0  0  0
 15 10  2  0  0  0  0
 16 13  1  0  0  0  0
 17 16  2  0  0  0  0
 18 17  1  0  0  0  0
 19 18  2  0  0  0  0
 19 20  1  0  0  0  0
 20 21  1  0  0  0  0
 20 16  1  0  0  0  0
 22  1  1  0  0  0  0
 23 28  2  0  0  0  0
 23 24  1  0  0  0  0
 24 25  2  0  0  0  0
 25 26  1  0  0  0  0
 26 22  1  0  0  0  0
 27 26  2  0  0  0  0
 28 27  1  0  0  0  0
 29 30  1  0  0  0  0
 30 23  1  0  0  0  0
M  END
>  <minimizedAffinity>
-5.69277191

$$$$
