
 OpenBabel10152418103D

 30 33  0  0  0  0  0  0  0  0999 V2000
    3.2140   -7.6580  -29.1520 C   0  0  0  0  0  0  0  0  0  0  0  0
    2.7820   -8.3310  -28.0640 N   0  0  0  0  0  0  0  0  0  0  0  0
    3.4870   -9.4020  -27.6820 C   0  0  0  0  0  0  0  0  0  0  0  0
    3.1840  -10.0850  -26.5080 N   0  0  0  0  0  0  0  0  0  0  0  0
    4.5780   -9.8360  -28.3380 N   0  0  0  0  0  0  0  0  0  0  0  0
    4.9740   -9.1290  -29.4210 C   0  0  0  0  0  3  0  0  0  0  0  0
    4.3340   -8.0030  -29.8750 C   0  0  0  0  0  0  0  0  0  0  0  0
    4.9270   -7.1260  -31.2200 Cl  0  0  0  0  0  0  0  0  0  0  0  0
    3.9040  -10.7600  -26.2980 H   0  0  0  0  0  0  0  0  0  0  0  0
    2.1400   -9.9410  -25.5910 C   0  0  0  0  0  0  0  0  0  0  0  0
    1.8700   -8.6700  -25.0630 C   0  0  0  0  0  3  0  0  0  0  0  0
    0.7750   -8.4510  -24.2160 C   0  0  0  0  0  3  0  0  0  0  0  0
   -0.0740   -9.5060  -23.8680 C   0  0  0  0  0  0  0  0  0  0  0  0
    0.2050  -10.7810  -24.3710 C   0  0  0  0  0  3  0  0  0  0  0  0
    1.2860  -10.9890  -25.2360 C   0  0  0  0  0  3  0  0  0  0  0  0
   -1.2370   -9.3100  -23.0150 C   0  0  0  0  0  0  0  0  0  0  0  0
   -2.1770   -8.3900  -23.1200 N   0  0  0  0  0  0  0  0  0  0  0  0
   -3.0400   -8.5910  -22.0700 N   0  0  0  0  0  0  0  0  0  0  0  0
   -2.6370   -9.5990  -21.3100 N   0  0  0  0  0  0  0  0  0  0  0  0
   -1.5140  -10.0390  -21.8900 N   0  0  0  0  0  0  0  0  0  0  0  0
   -0.9910  -10.7890  -21.4620 H   0  0  0  0  0  0  0  0  0  0  0  0
    2.5390   -6.4910  -29.4240 O   0  0  0  0  0  0  0  0  0  0  0  0
   -0.2570   -4.8760  -26.7670 C   0  0  0  0  0  0  0  0  0  0  0  0
    0.6520   -4.0820  -27.4670 C   0  0  0  0  0  3  0  0  0  0  0  0
    1.5760   -4.6640  -28.3380 C   0  0  0  0  0  3  0  0  0  0  0  0
    1.6060   -6.0480  -28.5150 C   0  0  0  0  0  0  0  0  0  0  0  0
    0.7170   -6.8490  -27.7940 C   0  0  0  0  0  3  0  0  0  0  0  0
   -0.2150   -6.2610  -26.9260 C   0  0  0  0  0  3  0  0  0  0  0  0
   -1.1300   -2.7670  -26.1050 C   0  0  0  0  0  1  0  0  0  0  0  0
   -1.1180   -4.1820  -25.9630 O   0  0  0  0  0  0  0  0  0  0  0  0
  1  2  2  0  0  0  0
  2  3  1  0  0  0  0
  3  4  1  0  0  0  0
  4  9  1  0  0  0  0
  4 10  1  0  0  0  0
  5  3  2  0  0  0  0
  6  5  1  0  0  0  0
  7  6  2  0  0  0  0
  7  1  1  0  0  0  0
  8  7  1  0  0  0  0
 10 15  2  0  0  0  0
 10 11  1  0  0  0  0
 11 12  2  0  0  0  0
 12 13  1  0  0  0  0
 13 16  1  0  0  0  0
 14 13  2  0  0  0  0
 15 14  1  0  0  0  0
 16 20  1  0  0  0  0
 17 16  2  0  0  0  0
 17 18  1  0  0  0  0
 18 19  2  0  0  0  0
 20 21  1  0  0  0  0
 20 19  1  0  0  0  0
 22  1  1  0  0  0  0
 22 26  1  0  0  0  0
 23 30  1  0  0  0  0
 24 23  2  0  0  0  0
 25 24  1  0  0  0  0
 26 25  2  0  0  0  0
 26 27  1  0  0  0  0
 27 28  2  0  0  0  0
 28 23  1  0  0  0  0
 29 30  1  0  0  0  0
M  END
>  <minimizedAffinity>
-8.21294498

$$$$
