
 OpenBabel11232420523D

 37 41  0  0  1  0  0  0  0  0999 V2000
  -20.3720   22.7430   11.3700 C   0  0  0  0  0  0  0  0  0  0  0  0
  -21.1270   23.7230   11.3030 O   0  0  0  0  0  0  0  0  0  0  0  0
  -20.7990   21.5280   11.8900 N   0  0  0  0  0  0  0  0  0  0  0  0
  -22.1880   21.4830   12.3990 C   0  0  0  0  0  2  0  0  0  0  0  0
  -22.7300   20.1290   12.8820 C   0  0  0  0  0  2  0  0  0  0  0  0
  -21.7210   19.4730   13.7140 N   0  0  0  0  0  0  0  0  0  0  0  0
  -20.4170   19.2780   13.0660 C   0  0  1  0  0  3  0  0  0  0  0  0
  -20.2370   19.0280   11.5930 C   0  0  0  0  0  2  0  0  0  0  0  0
  -19.9370   20.3880   12.1540 C   0  0  1  0  0  3  0  0  0  0  0  0
  -22.2220   18.5600   14.6560 C   0  0  0  0  0  0  0  0  0  0  0  0
  -23.0580   19.0320   15.6020 N   0  0  0  0  0  0  0  0  0  0  0  0
  -23.4570   18.1800   16.5550 C   0  0  0  0  0  3  0  0  0  0  0  0
  -23.0480   16.9190   16.7010 N   0  0  0  0  0  0  0  0  0  0  0  0
  -22.1730   16.4980   15.7840 C   0  0  0  0  0  0  0  0  0  0  0  0
  -21.7660   17.2460   14.6900 C   0  0  0  0  0  0  0  0  0  0  0  0
  -20.8560   16.6020   13.6740 C   0  0  2  0  0  3  0  0  0  0  0  0
  -21.6530   15.7710   12.6570 C   0  0  0  0  0  1  0  0  0  0  0  0
  -19.8400   15.7120   14.3930 C   0  0  0  0  0  2  0  0  0  0  0  0
  -20.5200   14.7560   15.3490 C   0  0  0  0  0  0  0  0  0  0  0  0
  -20.0640   13.6420   15.5880 O   0  0  0  0  0  0  0  0  0  0  0  0
  -21.6150   15.2420   16.0050 N   0  0  0  0  0  0  0  0  0  0  0  0
  -22.0100   14.6850   16.7500 H   0  0  0  0  0  0  0  0  0  0  0  0
  -18.8990   22.9290   10.9990 C   0  0  1  0  0  3  0  0  0  0  0  0
  -18.4820   22.1870    9.7400 C   0  0  0  0  0  0  0  0  0  0  0  0
  -17.2670   21.4850    9.6630 C   0  0  0  0  0  3  0  0  0  0  0  0
  -16.9330   20.7660    8.5120 C   0  0  0  0  0  3  0  0  0  0  0  0
  -17.8130   20.7320    7.4340 C   0  0  0  0  0  0  0  0  0  0  0  0
  -17.4070   19.8340    6.0250 Cl  0  0  0  0  0  0  0  0  0  0  0  0
  -19.0230   21.4160    7.4940 C   0  0  0  0  0  3  0  0  0  0  0  0
  -19.3590   22.1400    8.6420 C   0  0  0  0  0  3  0  0  0  0  0  0
  -18.5870   24.4360   10.8210 C   0  0  0  0  0  2  0  0  0  0  0  0
  -17.1140   24.7660   10.8650 N   0  0  0  0  0  4  0  0  0  0  0  0
  -16.6330   23.8570   10.6950 H   0  0  0  0  0  0  0  0  0  0  0  0
  -16.8520   25.0110   11.8300 H   0  0  0  0  0  0  0  0  0  0  0  0
  -15.5920   25.1310    8.9530 C   0  0  0  0  0  1  0  0  0  0  0  0
  -16.5720   25.7890    9.9120 C   0  0  0  0  0  3  0  0  0  0  0  0
  -17.7490   26.4110    9.1700 C   0  0  0  0  0  1  0  0  0  0  0  0
  1  3  1  0  0  0  0
  2  1  2  0  0  0  0
  3  9  1  0  0  0  0
  3  4  1  0  0  0  0
  4  5  1  0  0  0  0
  5  6  1  0  0  0  0
  6 10  1  0  0  0  0
  7  8  1  6  0  0  0
  7  6  1  0  0  0  0
  9  8  1  6  0  0  0
  9  7  1  0  0  0  0
 10 15  2  0  0  0  0
 10 11  1  0  0  0  0
 11 12  2  0  0  0  0
 12 13  1  0  0  0  0
 14 21  1  0  0  0  0
 14 13  2  0  0  0  0
 15 14  1  0  0  0  0
 16 17  1  6  0  0  0
 16 18  1  0  0  0  0
 16 15  1  0  0  0  0
 18 19  1  0  0  0  0
 19 20  2  0  0  0  0
 19 21  1  0  0  0  0
 21 22  1  0  0  0  0
 23 31  1  6  0  0  0
 23  1  1  0  0  0  0
 24 23  1  0  0  0  0
 25 24  1  0  0  0  0
 26 25  2  0  0  0  0
 27 29  2  0  0  0  0
 27 26  1  0  0  0  0
 28 27  1  0  0  0  0
 29 30  1  0  0  0  0
 30 24  2  0  0  0  0
 31 32  1  0  0  0  0
 32 34  1  0  0  0  0
 33 32  1  0  0  0  0
 35 36  1  0  0  0  0
 36 32  1  0  0  0  0
 37 36  1  0  0  0  0
M  END
>  <minimizedAffinity>
-10.7298498

$$$$
