
 OpenBabel11232420523D

 37 41  0  0  1  0  0  0  0  0999 V2000
  -20.3290   30.3910   13.9190 C   0  0  0  0  0  0  0  0  0  0  0  0
  -21.5520   30.3080   13.7400 O   0  0  0  0  0  0  0  0  0  0  0  0
  -19.4240   29.7710   13.0670 N   0  0  0  0  0  0  0  0  0  0  0  0
  -20.0030   28.9710   11.9640 C   0  0  0  0  0  2  0  0  0  0  0  0
  -19.0340   28.3600   10.9400 C   0  0  0  0  0  2  0  0  0  0  0  0
  -17.9020   27.7560   11.6440 N   0  0  0  0  0  0  0  0  0  0  0  0
  -17.1680   28.6690   12.5310 C   0  0  1  0  0  3  0  0  0  0  0  0
  -16.9990   30.1430   12.2700 C   0  0  0  0  0  2  0  0  0  0  0  0
  -17.9920   29.6830   13.2990 C   0  0  1  0  0  3  0  0  0  0  0  0
  -17.2580   26.7130   10.9600 C   0  0  0  0  0  0  0  0  0  0  0  0
  -16.0680   26.9810   10.3880 N   0  0  0  0  0  0  0  0  0  0  0  0
  -15.5020   26.0130    9.6540 C   0  0  0  0  0  3  0  0  0  0  0  0
  -16.0420   24.8260    9.3740 N   0  0  0  0  0  0  0  0  0  0  0  0
  -17.2480   24.6120    9.9050 C   0  0  0  0  0  0  0  0  0  0  0  0
  -17.8900   25.4890   10.7660 C   0  0  0  0  0  0  0  0  0  0  0  0
  -19.2030   25.0680   11.3760 C   0  0  2  0  0  3  0  0  0  0  0  0
  -18.9870   24.1940   12.6210 C   0  0  0  0  0  1  0  0  0  0  0  0
  -20.0260   24.3030   10.3370 C   0  0  0  0  0  2  0  0  0  0  0  0
  -19.2200   23.1880    9.7060 C   0  0  0  0  0  0  0  0  0  0  0  0
  -19.7440   22.1460    9.3210 O   0  0  0  0  0  0  0  0  0  0  0  0
  -17.8960   23.4490    9.4990 N   0  0  0  0  0  0  0  0  0  0  0  0
  -17.3590   22.7860    8.9560 H   0  0  0  0  0  0  0  0  0  0  0  0
  -19.8210   31.0770   15.1890 C   0  0  1  0  0  3  0  0  0  0  0  0
  -19.0750   32.3760   14.9320 C   0  0  0  0  0  0  0  0  0  0  0  0
  -17.8540   32.6650   15.5640 C   0  0  0  0  0  3  0  0  0  0  0  0
  -17.1610   33.8430   15.2680 C   0  0  0  0  0  3  0  0  0  0  0  0
  -17.6770   34.7350   14.3320 C   0  0  0  0  0  0  0  0  0  0  0  0
  -16.8160   36.1750   13.9590 Cl  0  0  0  0  0  0  0  0  0  0  0  0
  -18.8820   34.4630   13.6920 C   0  0  0  0  0  3  0  0  0  0  0  0
  -19.5790   33.2890   13.9880 C   0  0  0  0  0  3  0  0  0  0  0  0
  -21.0070   31.3590   16.1450 C   0  0  0  0  0  2  0  0  0  0  0  0
  -21.6080   30.1170   16.7590 N   0  0  0  0  0  4  0  0  0  0  0  0
  -21.1330   30.0210   17.6830 H   0  0  0  0  0  0  0  0  0  0  0  0
  -21.2930   29.2930   16.2290 H   0  0  0  0  0  0  0  0  0  0  0  0
  -23.7240   31.3790   16.5640 C   0  0  0  0  0  1  0  0  0  0  0  0
  -23.0920   30.0560   16.9680 C   0  0  0  0  0  3  0  0  0  0  0  0
  -23.6360   28.8990   16.1400 C   0  0  0  0  0  1  0  0  0  0  0  0
  1 23  1  0  0  0  0
  2  1  2  0  0  0  0
  3  9  1  0  0  0  0
  3  1  1  0  0  0  0
  4  3  1  0  0  0  0
  5  6  1  0  0  0  0
  5  4  1  0  0  0  0
  6  7  1  0  0  0  0
  7  8  1  6  0  0  0
  7  9  1  0  0  0  0
  9  8  1  6  0  0  0
 10  6  1  0  0  0  0
 11 10  2  0  0  0  0
 12 11  1  0  0  0  0
 13 12  2  0  0  0  0
 13 14  1  0  0  0  0
 14 15  2  0  0  0  0
 15 10  1  0  0  0  0
 15 16  1  0  0  0  0
 16 17  1  1  0  0  0
 18 16  1  0  0  0  0
 19 18  1  0  0  0  0
 20 19  2  0  0  0  0
 21 19  1  0  0  0  0
 21 14  1  0  0  0  0
 22 21  1  0  0  0  0
 23 31  1  1  0  0  0
 24 23  1  0  0  0  0
 24 25  1  0  0  0  0
 26 25  2  0  0  0  0
 27 26  1  0  0  0  0
 28 27  1  0  0  0  0
 29 30  1  0  0  0  0
 29 27  2  0  0  0  0
 30 24  2  0  0  0  0
 31 32  1  0  0  0  0
 32 36  1  0  0  0  0
 32 33  1  0  0  0  0
 34 32  1  0  0  0  0
 35 36  1  0  0  0  0
 37 36  1  0  0  0  0
M  END
>  <minimizedAffinity>
-9.79552841

$$$$
