
 OpenBabel11232420523D

 37 41  0  0  1  0  0  0  0  0999 V2000
  -18.1490   25.7610   10.9000 C   0  0  0  0  0  0  0  0  0  0  0  0
  -17.0870   25.2480   11.2800 O   0  0  0  0  0  0  0  0  0  0  0  0
  -18.3560   27.1330   10.9540 N   0  0  0  0  0  0  0  0  0  0  0  0
  -17.2580   27.9410   11.5300 C   0  0  0  0  0  2  0  0  0  0  0  0
  -17.4060   29.4690   11.5070 C   0  0  0  0  0  2  0  0  0  0  0  0
  -18.7590   29.8310   11.9330 N   0  0  0  0  0  0  0  0  0  0  0  0
  -19.8390   29.2200   11.1460 C   0  0  1  0  0  3  0  0  0  0  0  0
  -19.7340   28.9010    9.6780 C   0  0  0  0  0  2  0  0  0  0  0  0
  -19.6230   27.7930   10.6860 C   0  0  1  0  0  3  0  0  0  0  0  0
  -18.8880   31.1100   12.4970 C   0  0  0  0  0  0  0  0  0  0  0  0
  -18.5490   32.1680   11.7340 N   0  0  0  0  0  0  0  0  0  0  0  0
  -18.5810   33.3790   12.3060 C   0  0  0  0  0  3  0  0  0  0  0  0
  -18.8470   33.6330   13.5880 N   0  0  0  0  0  0  0  0  0  0  0  0
  -19.1200   32.5590   14.3340 C   0  0  0  0  0  0  0  0  0  0  0  0
  -19.2240   31.2680   13.8380 C   0  0  0  0  0  0  0  0  0  0  0  0
  -19.6460   30.1670   14.7780 C   0  0  2  0  0  3  0  0  0  0  0  0
  -21.1750   30.1080   14.9180 C   0  0  0  0  0  1  0  0  0  0  0  0
  -19.0040   30.3930   16.1480 C   0  0  0  0  0  2  0  0  0  0  0  0
  -19.2510   31.8000   16.6500 C   0  0  0  0  0  0  0  0  0  0  0  0
  -19.3590   32.0530   17.8460 O   0  0  0  0  0  0  0  0  0  0  0  0
  -19.2460   32.7830   15.7020 N   0  0  0  0  0  0  0  0  0  0  0  0
  -19.2690   33.7450   16.0130 H   0  0  0  0  0  0  0  0  0  0  0  0
  -19.3020   24.8390   10.4970 C   0  0  1  0  0  3  0  0  0  0  0  0
  -18.9010   23.7360    9.5300 C   0  0  0  0  0  0  0  0  0  0  0  0
  -17.5580   23.3740    9.3380 C   0  0  0  0  0  3  0  0  0  0  0  0
  -17.2210   22.3200    8.4840 C   0  0  0  0  0  3  0  0  0  0  0  0
  -18.2220   21.6140    7.8220 C   0  0  0  0  0  0  0  0  0  0  0  0
  -17.8070   20.3090    6.7840 Cl  0  0  0  0  0  0  0  0  0  0  0  0
  -19.5590   21.9560    8.0040 C   0  0  0  0  0  3  0  0  0  0  0  0
  -19.8990   23.0110    8.8550 C   0  0  0  0  0  3  0  0  0  0  0  0
  -19.9290   24.1960   11.7600 C   0  0  0  0  0  2  0  0  0  0  0  0
  -19.2120   22.9550   12.2360 N   0  0  0  0  0  4  0  0  0  0  0  0
  -18.8190   23.2150   13.1660 H   0  0  0  0  0  0  0  0  0  0  0  0
  -18.3810   22.7990   11.6480 H   0  0  0  0  0  0  0  0  0  0  0  0
  -21.4470   21.9210   12.0220 C   0  0  0  0  0  1  0  0  0  0  0  0
  -19.9870   21.6790   12.3760 C   0  0  0  0  0  3  0  0  0  0  0  0
  -19.3530   20.6400   11.4590 C   0  0  0  0  0  1  0  0  0  0  0  0
  1  3  1  0  0  0  0
  1  2  2  0  0  0  0
  3  4  1  0  0  0  0
  5  4  1  0  0  0  0
  5  6  1  0  0  0  0
  6 10  1  0  0  0  0
  7  8  1  6  0  0  0
  7  6  1  0  0  0  0
  9  8  1  6  0  0  0
  9  3  1  0  0  0  0
  9  7  1  0  0  0  0
 10 15  1  0  0  0  0
 11 12  1  0  0  0  0
 11 10  2  0  0  0  0
 12 13  2  0  0  0  0
 13 14  1  0  0  0  0
 14 21  1  0  0  0  0
 15 14  2  0  0  0  0
 15 16  1  0  0  0  0
 16 17  1  1  0  0  0
 16 18  1  0  0  0  0
 18 19  1  0  0  0  0
 19 20  2  0  0  0  0
 21 22  1  0  0  0  0
 21 19  1  0  0  0  0
 23  1  1  0  0  0  0
 23 31  1  1  0  0  0
 24 23  1  0  0  0  0
 25 24  1  0  0  0  0
 26 25  2  0  0  0  0
 27 29  2  0  0  0  0
 27 26  1  0  0  0  0
 28 27  1  0  0  0  0
 29 30  1  0  0  0  0
 30 24  2  0  0  0  0
 31 32  1  0  0  0  0
 32 36  1  0  0  0  0
 32 33  1  0  0  0  0
 34 32  1  0  0  0  0
 35 36  1  0  0  0  0
 37 36  1  0  0  0  0
M  END
>  <minimizedAffinity>
-10.4856176

$$$$
