
 OpenBabel11232420523D

 37 41  0  0  1  0  0  0  0  0999 V2000
  -20.3360   23.0430   10.9110 C   0  0  0  0  0  0  0  0  0  0  0  0
  -21.5210   22.7620   11.1410 O   0  0  0  0  0  0  0  0  0  0  0  0
  -19.8450   24.3300   11.0830 N   0  0  0  0  0  0  0  0  0  0  0  0
  -20.8230   25.3540   11.5130 C   0  0  0  0  0  2  0  0  0  0  0  0
  -20.2960   26.7640   11.8170 C   0  0  0  0  0  2  0  0  0  0  0  0
  -19.3630   27.1700   10.7640 N   0  0  0  0  0  0  0  0  0  0  0  0
  -18.2320   26.2570   10.5550 C   0  0  1  0  0  3  0  0  0  0  0  0
  -17.5890   25.4470   11.6490 C   0  0  0  0  0  2  0  0  0  0  0  0
  -18.5210   24.7740   10.6810 C   0  0  1  0  0  3  0  0  0  0  0  0
  -19.2390   28.5560   10.5750 C   0  0  0  0  0  0  0  0  0  0  0  0
  -20.1100   29.1540    9.7390 N   0  0  0  0  0  0  0  0  0  0  0  0
  -19.9290   30.4570    9.4850 C   0  0  0  0  0  3  0  0  0  0  0  0
  -18.9200   31.2080    9.9280 N   0  0  0  0  0  0  0  0  0  0  0  0
  -18.0400   30.5730   10.7060 C   0  0  0  0  0  0  0  0  0  0  0  0
  -18.1730   29.2590   11.1270 C   0  0  0  0  0  0  0  0  0  0  0  0
  -17.1570   28.7050   12.0940 C   0  0  2  0  0  3  0  0  0  0  0  0
  -17.5040   29.0780   13.5440 C   0  0  0  0  0  1  0  0  0  0  0  0
  -15.7690   29.2390   11.7360 C   0  0  0  0  0  2  0  0  0  0  0  0
  -15.7740   30.7470   11.5980 C   0  0  0  0  0  0  0  0  0  0  0  0
  -14.7920   31.4280   11.8770 O   0  0  0  0  0  0  0  0  0  0  0  0
  -16.8990   31.2940   11.0500 N   0  0  0  0  0  0  0  0  0  0  0  0
  -16.8850   32.2770   10.8150 H   0  0  0  0  0  0  0  0  0  0  0  0
  -19.4390   21.9690   10.2890 C   0  0  1  0  0  3  0  0  0  0  0  0
  -19.6640   20.5750   10.8520 C   0  0  0  0  0  0  0  0  0  0  0  0
  -20.1070   20.3730   12.1700 C   0  0  0  0  0  3  0  0  0  0  0  0
  -20.3580   19.0820   12.6450 C   0  0  0  0  0  3  0  0  0  0  0  0
  -20.1810   17.9860   11.8050 C   0  0  0  0  0  0  0  0  0  0  0  0
  -20.5050   16.4010   12.3870 Cl  0  0  0  0  0  0  0  0  0  0  0  0
  -19.7480   18.1680   10.4950 C   0  0  0  0  0  3  0  0  0  0  0  0
  -19.4920   19.4560   10.0180 C   0  0  0  0  0  3  0  0  0  0  0  0
  -19.6480   21.9320    8.7550 C   0  0  0  0  0  2  0  0  0  0  0  0
  -18.3770   22.1030    7.9590 N   0  0  0  0  0  4  0  0  0  0  0  0
  -17.7240   22.5990    8.6030 H   0  0  0  0  0  0  0  0  0  0  0  0
  -18.5420   22.7810    7.2010 H   0  0  0  0  0  0  0  0  0  0  0  0
  -17.3400   21.1010    5.9520 C   0  0  0  0  0  1  0  0  0  0  0  0
  -17.6910   20.8850    7.4160 C   0  0  0  0  0  3  0  0  0  0  0  0
  -16.4480   20.6300    8.2590 C   0  0  0  0  0  1  0  0  0  0  0  0
  1  3  1  0  0  0  0
  1  2  2  0  0  0  0
  3  4  1  0  0  0  0
  4  5  1  0  0  0  0
  6  5  1  0  0  0  0
  7  9  1  0  0  0  0
  7  6  1  0  0  0  0
  7  8  1  1  0  0  0
  9  3  1  0  0  0  0
  9  8  1  1  0  0  0
 10  6  1  0  0  0  0
 10 15  1  0  0  0  0
 11 10  2  0  0  0  0
 12 11  1  0  0  0  0
 12 13  2  0  0  0  0
 13 14  1  0  0  0  0
 14 21  1  0  0  0  0
 14 15  2  0  0  0  0
 15 16  1  0  0  0  0
 16 17  1  1  0  0  0
 18 16  1  0  0  0  0
 19 18  1  0  0  0  0
 19 20  2  0  0  0  0
 21 19  1  0  0  0  0
 22 21  1  0  0  0  0
 23 31  1  6  0  0  0
 23 24  1  0  0  0  0
 23  1  1  0  0  0  0
 24 25  1  0  0  0  0
 25 26  2  0  0  0  0
 27 28  1  0  0  0  0
 27 26  1  0  0  0  0
 29 27  2  0  0  0  0
 30 29  1  0  0  0  0
 30 24  2  0  0  0  0
 32 33  1  0  0  0  0
 32 31  1  0  0  0  0
 34 32  1  0  0  0  0
 35 36  1  0  0  0  0
 36 32  1  0  0  0  0
 36 37  1  0  0  0  0
M  END
>  <minimizedAffinity>
-9.98535538

$$$$
