
 OpenBabel11232420523D

 37 41  0  0  1  0  0  0  0  0999 V2000
  -20.3720   22.7430   11.3700 C   0  0  0  0  0  0  0  0  0  0  0  0
  -21.1270   23.7230   11.3030 O   0  0  0  0  0  0  0  0  0  0  0  0
  -20.7990   21.5280   11.8900 N   0  0  0  0  0  0  0  0  0  0  0  0
  -22.1880   21.4830   12.3990 C   0  0  0  0  0  2  0  0  0  0  0  0
  -22.7300   20.1290   12.8820 C   0  0  0  0  0  2  0  0  0  0  0  0
  -21.7210   19.4730   13.7140 N   0  0  0  0  0  0  0  0  0  0  0  0
  -20.4170   19.2780   13.0660 C   0  0  1  0  0  3  0  0  0  0  0  0
  -20.2370   19.0280   11.5930 C   0  0  0  0  0  2  0  0  0  0  0  0
  -19.9370   20.3880   12.1540 C   0  0  1  0  0  3  0  0  0  0  0  0
  -22.2220   18.5600   14.6560 C   0  0  0  0  0  0  0  0  0  0  0  0
  -23.0580   19.0320   15.6020 N   0  0  0  0  0  0  0  0  0  0  0  0
  -23.4570   18.1800   16.5550 C   0  0  0  0  0  3  0  0  0  0  0  0
  -23.0480   16.9190   16.7010 N   0  0  0  0  0  0  0  0  0  0  0  0
  -22.1730   16.4980   15.7840 C   0  0  0  0  0  0  0  0  0  0  0  0
  -21.7660   17.2460   14.6900 C   0  0  0  0  0  0  0  0  0  0  0  0
  -20.8560   16.6020   13.6740 C   0  0  2  0  0  3  0  0  0  0  0  0
  -21.6530   15.7710   12.6570 C   0  0  0  0  0  1  0  0  0  0  0  0
  -19.8400   15.7120   14.3930 C   0  0  0  0  0  2  0  0  0  0  0  0
  -20.5200   14.7560   15.3490 C   0  0  0  0  0  0  0  0  0  0  0  0
  -20.0640   13.6420   15.5880 O   0  0  0  0  0  0  0  0  0  0  0  0
  -21.6150   15.2420   16.0050 N   0  0  0  0  0  0  0  0  0  0  0  0
  -22.0100   14.6850   16.7500 H   0  0  0  0  0  0  0  0  0  0  0  0
  -18.8990   22.9290   10.9990 C   0  0  1  0  0  3  0  0  0  0  0  0
  -18.4820   22.1870    9.7400 C   0  0  0  0  0  0  0  0  0  0  0  0
  -17.2670   21.4850    9.6630 C   0  0  0  0  0  3  0  0  0  0  0  0
  -16.9330   20.7660    8.5120 C   0  0  0  0  0  3  0  0  0  0  0  0
  -17.8130   20.7320    7.4340 C   0  0  0  0  0  0  0  0  0  0  0  0
  -17.4070   19.8340    6.0250 Cl  0  0  0  0  0  0  0  0  0  0  0  0
  -19.0230   21.4160    7.4940 C   0  0  0  0  0  3  0  0  0  0  0  0
  -19.3590   22.1400    8.6420 C   0  0  0  0  0  3  0  0  0  0  0  0
  -18.5870   24.4360   10.8210 C   0  0  0  0  0  2  0  0  0  0  0  0
  -17.1140   24.7660   10.8650 N   0  0  0  0  0  4  0  0  0  0  0  0
  -16.6330   23.8570   10.6950 H   0  0  0  0  0  0  0  0  0  0  0  0
  -16.8520   25.0110   11.8300 H   0  0  0  0  0  0  0  0  0  0  0  0
  -15.5920   25.1310    8.9530 C   0  0  0  0  0  1  0  0  0  0  0  0
  -16.5720   25.7890    9.9120 C   0  0  0  0  0  3  0  0  0  0  0  0
  -17.7490   26.4110    9.1700 C   0  0  0  0  0  1  0  0  0  0  0  0
  1  3  1  0  0  0  0
  2  1  2  0  0  0  0
  3  9  1  0  0  0  0
  3  4  1  0  0  0  0
  4  5  1  0  0  0  0
  5  6  1  0  0  0  0
  6 10  1  0  0  0  0
  7  8  1  6  0  0  0
  7  6  1  0  0  0  0
  9  8  1  6  0  0  0
  9  7  1  0  0  0  0
 10 15  2  0  0  0  0
 10 11  1  0  0  0  0
 11 12  2  0  0  0  0
 12 13  1  0  0  0  0
 14 21  1  0  0  0  0
 14 13  2  0  0  0  0
 15 14  1  0  0  0  0
 16 17  1  6  0  0  0
 16 18  1  0  0  0  0
 16 15  1  0  0  0  0
 18 19  1  0  0  0  0
 19 20  2  0  0  0  0
 19 21  1  0  0  0  0
 21 22  1  0  0  0  0
 23 31  1  6  0  0  0
 23  1  1  0  0  0  0
 24 23  1  0  0  0  0
 25 24  1  0  0  0  0
 26 25  2  0  0  0  0
 27 29  2  0  0  0  0
 27 26  1  0  0  0  0
 28 27  1  0  0  0  0
 29 30  1  0  0  0  0
 30 24  2  0  0  0  0
 31 32  1  0  0  0  0
 32 34  1  0  0  0  0
 33 32  1  0  0  0  0
 35 36  1  0  0  0  0
 36 32  1  0  0  0  0
 37 36  1  0  0  0  0
M  END
>  <minimizedAffinity>
-10.7298498

$$$$

 OpenBabel11232420523D

 37 41  0  0  1  0  0  0  0  0999 V2000
  -18.1490   25.7610   10.9000 C   0  0  0  0  0  0  0  0  0  0  0  0
  -17.0870   25.2480   11.2800 O   0  0  0  0  0  0  0  0  0  0  0  0
  -18.3560   27.1330   10.9540 N   0  0  0  0  0  0  0  0  0  0  0  0
  -17.2580   27.9410   11.5300 C   0  0  0  0  0  2  0  0  0  0  0  0
  -17.4060   29.4690   11.5070 C   0  0  0  0  0  2  0  0  0  0  0  0
  -18.7590   29.8310   11.9330 N   0  0  0  0  0  0  0  0  0  0  0  0
  -19.8390   29.2200   11.1460 C   0  0  1  0  0  3  0  0  0  0  0  0
  -19.7340   28.9010    9.6780 C   0  0  0  0  0  2  0  0  0  0  0  0
  -19.6230   27.7930   10.6860 C   0  0  1  0  0  3  0  0  0  0  0  0
  -18.8880   31.1100   12.4970 C   0  0  0  0  0  0  0  0  0  0  0  0
  -18.5490   32.1680   11.7340 N   0  0  0  0  0  0  0  0  0  0  0  0
  -18.5810   33.3790   12.3060 C   0  0  0  0  0  3  0  0  0  0  0  0
  -18.8470   33.6330   13.5880 N   0  0  0  0  0  0  0  0  0  0  0  0
  -19.1200   32.5590   14.3340 C   0  0  0  0  0  0  0  0  0  0  0  0
  -19.2240   31.2680   13.8380 C   0  0  0  0  0  0  0  0  0  0  0  0
  -19.6460   30.1670   14.7780 C   0  0  2  0  0  3  0  0  0  0  0  0
  -21.1750   30.1080   14.9180 C   0  0  0  0  0  1  0  0  0  0  0  0
  -19.0040   30.3930   16.1480 C   0  0  0  0  0  2  0  0  0  0  0  0
  -19.2510   31.8000   16.6500 C   0  0  0  0  0  0  0  0  0  0  0  0
  -19.3590   32.0530   17.8460 O   0  0  0  0  0  0  0  0  0  0  0  0
  -19.2460   32.7830   15.7020 N   0  0  0  0  0  0  0  0  0  0  0  0
  -19.2690   33.7450   16.0130 H   0  0  0  0  0  0  0  0  0  0  0  0
  -19.3020   24.8390   10.4970 C   0  0  1  0  0  3  0  0  0  0  0  0
  -18.9010   23.7360    9.5300 C   0  0  0  0  0  0  0  0  0  0  0  0
  -17.5580   23.3740    9.3380 C   0  0  0  0  0  3  0  0  0  0  0  0
  -17.2210   22.3200    8.4840 C   0  0  0  0  0  3  0  0  0  0  0  0
  -18.2220   21.6140    7.8220 C   0  0  0  0  0  0  0  0  0  0  0  0
  -17.8070   20.3090    6.7840 Cl  0  0  0  0  0  0  0  0  0  0  0  0
  -19.5590   21.9560    8.0040 C   0  0  0  0  0  3  0  0  0  0  0  0
  -19.8990   23.0110    8.8550 C   0  0  0  0  0  3  0  0  0  0  0  0
  -19.9290   24.1960   11.7600 C   0  0  0  0  0  2  0  0  0  0  0  0
  -19.2120   22.9550   12.2360 N   0  0  0  0  0  4  0  0  0  0  0  0
  -18.8190   23.2150   13.1660 H   0  0  0  0  0  0  0  0  0  0  0  0
  -18.3810   22.7990   11.6480 H   0  0  0  0  0  0  0  0  0  0  0  0
  -21.4470   21.9210   12.0220 C   0  0  0  0  0  1  0  0  0  0  0  0
  -19.9870   21.6790   12.3760 C   0  0  0  0  0  3  0  0  0  0  0  0
  -19.3530   20.6400   11.4590 C   0  0  0  0  0  1  0  0  0  0  0  0
  1  3  1  0  0  0  0
  1  2  2  0  0  0  0
  3  4  1  0  0  0  0
  5  4  1  0  0  0  0
  5  6  1  0  0  0  0
  6 10  1  0  0  0  0
  7  8  1  6  0  0  0
  7  6  1  0  0  0  0
  9  8  1  6  0  0  0
  9  3  1  0  0  0  0
  9  7  1  0  0  0  0
 10 15  1  0  0  0  0
 11 12  1  0  0  0  0
 11 10  2  0  0  0  0
 12 13  2  0  0  0  0
 13 14  1  0  0  0  0
 14 21  1  0  0  0  0
 15 14  2  0  0  0  0
 15 16  1  0  0  0  0
 16 17  1  1  0  0  0
 16 18  1  0  0  0  0
 18 19  1  0  0  0  0
 19 20  2  0  0  0  0
 21 22  1  0  0  0  0
 21 19  1  0  0  0  0
 23  1  1  0  0  0  0
 23 31  1  1  0  0  0
 24 23  1  0  0  0  0
 25 24  1  0  0  0  0
 26 25  2  0  0  0  0
 27 29  2  0  0  0  0
 27 26  1  0  0  0  0
 28 27  1  0  0  0  0
 29 30  1  0  0  0  0
 30 24  2  0  0  0  0
 31 32  1  0  0  0  0
 32 36  1  0  0  0  0
 32 33  1  0  0  0  0
 34 32  1  0  0  0  0
 35 36  1  0  0  0  0
 37 36  1  0  0  0  0
M  END
>  <minimizedAffinity>
-10.4856176

$$$$

 OpenBabel11232420523D

 37 41  0  0  1  0  0  0  0  0999 V2000
  -17.9950   24.7340    9.9290 C   0  0  0  0  0  0  0  0  0  0  0  0
  -16.8980   24.8380    9.3630 O   0  0  0  0  0  0  0  0  0  0  0  0
  -18.6510   25.8380   10.4570 N   0  0  0  0  0  0  0  0  0  0  0  0
  -17.9460   27.1350   10.3460 C   0  0  0  0  0  2  0  0  0  0  0  0
  -18.6870   28.3940   10.8210 C   0  0  0  0  0  2  0  0  0  0  0  0
  -19.3280   28.1220   12.1080 N   0  0  0  0  0  0  0  0  0  0  0  0
  -20.2520   26.9790   12.1090 C   0  0  1  0  0  3  0  0  0  0  0  0
  -21.0820   26.5660   10.9220 C   0  0  0  0  0  2  0  0  0  0  0  0
  -19.8510   25.7790   11.2740 C   0  0  1  0  0  3  0  0  0  0  0  0
  -19.5440   29.2470   12.9200 C   0  0  0  0  0  0  0  0  0  0  0  0
  -20.8150   29.5430   13.2540 N   0  0  0  0  0  0  0  0  0  0  0  0
  -21.0250   30.6700   13.9470 C   0  0  0  0  0  3  0  0  0  0  0  0
  -20.0990   31.5710   14.2780 N   0  0  0  0  0  0  0  0  0  0  0  0
  -18.8580   31.2800   13.8810 C   0  0  0  0  0  0  0  0  0  0  0  0
  -18.4950   30.0980   13.2530 C   0  0  0  0  0  0  0  0  0  0  0  0
  -17.0360   29.8570   12.9590 C   0  0  2  0  0  3  0  0  0  0  0  0
  -16.3050   29.2890   14.1860 C   0  0  0  0  0  1  0  0  0  0  0  0
  -16.3810   31.1690   12.5220 C   0  0  0  0  0  2  0  0  0  0  0  0
  -16.6660   32.2840   13.5050 C   0  0  0  0  0  0  0  0  0  0  0  0
  -15.8650   33.1920   13.7070 O   0  0  0  0  0  0  0  0  0  0  0  0
  -17.9050   32.2750   14.0780 N   0  0  0  0  0  0  0  0  0  0  0  0
  -18.1810   33.0770   14.6300 H   0  0  0  0  0  0  0  0  0  0  0  0
  -18.5630   23.3330   10.1690 C   0  0  1  0  0  3  0  0  0  0  0  0
  -18.1070   22.3000    9.1520 C   0  0  0  0  0  0  0  0  0  0  0  0
  -16.9110   21.5800    9.3150 C   0  0  0  0  0  3  0  0  0  0  0  0
  -16.5430   20.5970    8.3910 C   0  0  0  0  0  3  0  0  0  0  0  0
  -17.3680   20.3170    7.3060 C   0  0  0  0  0  0  0  0  0  0  0  0
  -16.9200   19.0980    6.1810 Cl  0  0  0  0  0  0  0  0  0  0  0  0
  -18.5590   21.0160    7.1320 C   0  0  0  0  0  3  0  0  0  0  0  0
  -18.9290   22.0030    8.0510 C   0  0  0  0  0  3  0  0  0  0  0  0
  -18.1790   22.8450   11.5880 C   0  0  0  0  0  2  0  0  0  0  0  0
  -19.3290   22.2450   12.3620 N   0  0  0  0  0  4  0  0  0  0  0  0
  -19.7880   23.0570   12.8290 H   0  0  0  0  0  0  0  0  0  0  0  0
  -18.9550   21.6870   13.1420 H   0  0  0  0  0  0  0  0  0  0  0  0
  -19.9460   20.0010   11.5310 C   0  0  0  0  0  1  0  0  0  0  0  0
  -20.3690   21.4590   11.6220 C   0  0  0  0  0  3  0  0  0  0  0  0
  -21.6920   21.6130   12.3630 C   0  0  0  0  0  1  0  0  0  0  0  0
  1 23  1  0  0  0  0
  1  3  1  0  0  0  0
  2  1  2  0  0  0  0
  3  9  1  0  0  0  0
  4  3  1  0  0  0  0
  4  5  1  0  0  0  0
  5  6  1  0  0  0  0
  6  7  1  0  0  0  0
  6 10  1  0  0  0  0
  7  8  1  6  0  0  0
  9  8  1  6  0  0  0
  9  7  1  0  0  0  0
 10 15  2  0  0  0  0
 10 11  1  0  0  0  0
 11 12  2  0  0  0  0
 12 13  1  0  0  0  0
 14 21  1  0  0  0  0
 14 13  2  0  0  0  0
 15 14  1  0  0  0  0
 16 15  1  0  0  0  0
 16 17  1  1  0  0  0
 18 16  1  0  0  0  0
 18 19  1  0  0  0  0
 19 20  2  0  0  0  0
 19 21  1  0  0  0  0
 21 22  1  0  0  0  0
 23 31  1  1  0  0  0
 24 25  1  0  0  0  0
 24 23  1  0  0  0  0
 26 25  2  0  0  0  0
 27 26  1  0  0  0  0
 28 27  1  0  0  0  0
 29 27  2  0  0  0  0
 29 30  1  0  0  0  0
 30 24  2  0  0  0  0
 31 32  1  0  0  0  0
 32 33  1  0  0  0  0
 32 34  1  0  0  0  0
 35 36  1  0  0  0  0
 36 32  1  0  0  0  0
 36 37  1  0  0  0  0
M  END
>  <minimizedAffinity>
-10.2809086

$$$$

 OpenBabel11232420523D

 37 41  0  0  1  0  0  0  0  0999 V2000
  -18.4630   27.0070   10.7900 C   0  0  0  0  0  0  0  0  0  0  0  0
  -17.5200   27.3600   10.0680 O   0  0  0  0  0  0  0  0  0  0  0  0
  -18.6440   25.6800   11.1570 N   0  0  0  0  0  0  0  0  0  0  0  0
  -17.6760   24.7080   10.6030 C   0  0  0  0  0  2  0  0  0  0  0  0
  -17.7790   23.2490   11.0720 C   0  0  0  0  0  2  0  0  0  0  0  0
  -19.1830   22.8340   11.0590 N   0  0  0  0  0  0  0  0  0  0  0  0
  -20.0830   23.6740   11.8630 C   0  0  1  0  0  3  0  0  0  0  0  0
  -19.6730   24.3740   13.1310 C   0  0  0  0  0  2  0  0  0  0  0  0
  -19.8070   25.1640   11.8590 C   0  0  1  0  0  3  0  0  0  0  0  0
  -19.3990   21.4560   10.9060 C   0  0  0  0  0  0  0  0  0  0  0  0
  -19.9070   20.7810   11.9560 N   0  0  0  0  0  0  0  0  0  0  0  0
  -20.0210   19.4510   11.8400 C   0  0  0  0  0  3  0  0  0  0  0  0
  -19.6110   18.7170   10.8050 N   0  0  0  0  0  0  0  0  0  0  0  0
  -19.0570   19.4070    9.8050 C   0  0  0  0  0  0  0  0  0  0  0  0
  -18.9780   20.7900    9.7590 C   0  0  0  0  0  0  0  0  0  0  0  0
  -18.4230   21.4390    8.5160 C   0  0  2  0  0  3  0  0  0  0  0  0
  -19.5020   21.5840    7.4320 C   0  0  0  0  0  1  0  0  0  0  0  0
  -17.2570   20.6050    7.9830 C   0  0  0  0  0  2  0  0  0  0  0  0
  -17.6400   19.1480    7.8340 C   0  0  0  0  0  0  0  0  0  0  0  0
  -17.1540   18.4350    6.9620 O   0  0  0  0  0  0  0  0  0  0  0  0
  -18.4810   18.6500    8.7880 N   0  0  0  0  0  0  0  0  0  0  0  0
  -18.6480   17.6530    8.8020 H   0  0  0  0  0  0  0  0  0  0  0  0
  -19.5240   28.0450   11.1640 C   0  0  1  0  0  3  0  0  0  0  0  0
  -19.2190   28.8070   12.4430 C   0  0  0  0  0  0  0  0  0  0  0  0
  -17.9040   28.9760   12.9070 C   0  0  0  0  0  3  0  0  0  0  0  0
  -17.6470   29.7280   14.0570 C   0  0  0  0  0  3  0  0  0  0  0  0
  -18.6990   30.3240   14.7470 C   0  0  0  0  0  0  0  0  0  0  0  0
  -18.3790   31.2600   16.1530 Cl  0  0  0  0  0  0  0  0  0  0  0  0
  -20.0070   30.1720   14.2990 C   0  0  0  0  0  3  0  0  0  0  0  0
  -20.2690   29.4180   13.1520 C   0  0  0  0  0  3  0  0  0  0  0  0
  -19.7010   29.0580   10.0050 C   0  0  0  0  0  2  0  0  0  0  0  0
  -18.7430   30.2240   10.0600 N   0  0  0  0  0  4  0  0  0  0  0  0
  -18.2370   30.1950    9.1480 H   0  0  0  0  0  0  0  0  0  0  0  0
  -18.0120   30.0280   10.7580 H   0  0  0  0  0  0  0  0  0  0  0  0
  -18.4380   32.3520   11.2800 C   0  0  0  0  0  1  0  0  0  0  0  0
  -19.2920   31.6050   10.2670 C   0  0  0  0  0  3  0  0  0  0  0  0
  -19.3070   32.3120    8.9170 C   0  0  0  0  0  1  0  0  0  0  0  0
  1  3  1  0  0  0  0
  1 23  1  0  0  0  0
  2  1  2  0  0  0  0
  3  9  1  0  0  0  0
  4  5  1  0  0  0  0
  4  3  1  0  0  0  0
  6  5  1  0  0  0  0
  6  7  1  0  0  0  0
  7  8  1  1  0  0  0
  9  7  1  0  0  0  0
  9  8  1  1  0  0  0
 10  6  1  0  0  0  0
 10 11  1  0  0  0  0
 12 11  2  0  0  0  0
 13 12  1  0  0  0  0
 14 13  2  0  0  0  0
 15 14  1  0  0  0  0
 15 10  2  0  0  0  0
 16 17  1  6  0  0  0
 16 15  1  0  0  0  0
 18 16  1  0  0  0  0
 19 18  1  0  0  0  0
 19 21  1  0  0  0  0
 20 19  2  0  0  0  0
 21 22  1  0  0  0  0
 21 14  1  0  0  0  0
 23 31  1  6  0  0  0
 23 24  1  0  0  0  0
 24 25  2  0  0  0  0
 24 30  1  0  0  0  0
 25 26  1  0  0  0  0
 26 27  2  0  0  0  0
 27 28  1  0  0  0  0
 29 27  1  0  0  0  0
 30 29  2  0  0  0  0
 31 32  1  0  0  0  0
 32 36  1  0  0  0  0
 32 34  1  0  0  0  0
 33 32  1  0  0  0  0
 36 35  1  0  0  0  0
 37 36  1  0  0  0  0
M  END
>  <minimizedAffinity>
-10.2709064

$$$$

 OpenBabel11232420523D

 37 41  0  0  1  0  0  0  0  0999 V2000
  -19.6730   27.8910   11.4420 C   0  0  0  0  0  0  0  0  0  0  0  0
  -20.7660   28.3840   11.7530 O   0  0  0  0  0  0  0  0  0  0  0  0
  -19.5610   26.5730   11.0210 N   0  0  0  0  0  0  0  0  0  0  0  0
  -20.8110   25.7800   11.0070 C   0  0  0  0  0  2  0  0  0  0  0  0
  -20.7450   24.3520   10.4460 C   0  0  0  0  0  2  0  0  0  0  0  0
  -19.5630   23.6750   10.9800 N   0  0  0  0  0  0  0  0  0  0  0  0
  -18.2890   24.3620   10.7240 C   0  0  1  0  0  3  0  0  0  0  0  0
  -18.0080   25.1870    9.4960 C   0  0  0  0  0  2  0  0  0  0  0  0
  -18.3060   25.8760   10.7980 C   0  0  1  0  0  3  0  0  0  0  0  0
  -19.6480   22.2750   11.0370 C   0  0  0  0  0  0  0  0  0  0  0  0
  -20.1370   21.7230   12.1650 N   0  0  0  0  0  0  0  0  0  0  0  0
  -20.1270   20.3870   12.2550 C   0  0  0  0  0  3  0  0  0  0  0  0
  -19.6100   19.5450   11.3590 N   0  0  0  0  0  0  0  0  0  0  0  0
  -19.0780   20.1230   10.2800 C   0  0  0  0  0  0  0  0  0  0  0  0
  -19.1220   21.4850   10.0200 C   0  0  0  0  0  0  0  0  0  0  0  0
  -18.5760   21.9860    8.7070 C   0  0  2  0  0  3  0  0  0  0  0  0
  -19.6170   21.8610    7.5840 C   0  0  0  0  0  1  0  0  0  0  0  0
  -17.3180   21.1950    8.3420 C   0  0  0  0  0  2  0  0  0  0  0  0
  -17.5630   19.7020    8.4120 C   0  0  0  0  0  0  0  0  0  0  0  0
  -16.9800   18.9130    7.6760 O   0  0  0  0  0  0  0  0  0  0  0  0
  -18.3950   19.2790    9.4090 N   0  0  0  0  0  0  0  0  0  0  0  0
  -18.4730   18.2840    9.5740 H   0  0  0  0  0  0  0  0  0  0  0  0
  -18.4070   28.7220   11.6660 C   0  0  1  0  0  3  0  0  0  0  0  0
  -18.3850   30.0330   10.8970 C   0  0  0  0  0  0  0  0  0  0  0  0
  -19.4630   30.4350   10.0910 C   0  0  0  0  0  3  0  0  0  0  0  0
  -19.4390   31.6710    9.4380 C   0  0  0  0  0  3  0  0  0  0  0  0
  -18.3460   32.5180    9.5920 C   0  0  0  0  0  0  0  0  0  0  0  0
  -18.3260   34.0430    8.8000 Cl  0  0  0  0  0  0  0  0  0  0  0  0
  -17.2720   32.1390   10.3910 C   0  0  0  0  0  3  0  0  0  0  0  0
  -17.2900   30.9030   11.0430 C   0  0  0  0  0  3  0  0  0  0  0  0
  -18.2350   29.0220   13.1760 C   0  0  0  0  0  2  0  0  0  0  0  0
  -19.3910   29.7780   13.7870 N   0  0  0  0  0  4  0  0  0  0  0  0
  -19.8010   29.1190   14.4830 H   0  0  0  0  0  0  0  0  0  0  0  0
  -20.1320   29.8880   13.0800 H   0  0  0  0  0  0  0  0  0  0  0  0
  -17.6300   31.2590   14.6880 C   0  0  0  0  0  1  0  0  0  0  0  0
  -19.1240   31.0910   14.4590 C   0  0  0  0  0  3  0  0  0  0  0  0
  -19.6830   32.1960   13.5710 C   0  0  0  0  0  1  0  0  0  0  0  0
  1 23  1  0  0  0  0
  1  2  2  0  0  0  0
  3  1  1  0  0  0  0
  4  3  1  0  0  0  0
  5  6  1  0  0  0  0
  5  4  1  0  0  0  0
  6 10  1  0  0  0  0
  7  8  1  6  0  0  0
  7  9  1  0  0  0  0
  7  6  1  0  0  0  0
  9  8  1  6  0  0  0
  9  3  1  0  0  0  0
 10 11  1  0  0  0  0
 11 12  2  0  0  0  0
 13 12  1  0  0  0  0
 14 13  2  0  0  0  0
 15 14  1  0  0  0  0
 15 10  2  0  0  0  0
 16 17  1  6  0  0  0
 16 15  1  0  0  0  0
 18 19  1  0  0  0  0
 18 16  1  0  0  0  0
 19 21  1  0  0  0  0
 20 19  2  0  0  0  0
 21 22  1  0  0  0  0
 21 14  1  0  0  0  0
 23 31  1  1  0  0  0
 24 30  1  0  0  0  0
 24 23  1  0  0  0  0
 25 24  2  0  0  0  0
 26 27  2  0  0  0  0
 26 25  1  0  0  0  0
 27 29  1  0  0  0  0
 28 27  1  0  0  0  0
 29 30  2  0  0  0  0
 31 32  1  0  0  0  0
 32 36  1  0  0  0  0
 32 33  1  0  0  0  0
 34 32  1  0  0  0  0
 36 35  1  0  0  0  0
 37 36  1  0  0  0  0
M  END
>  <minimizedAffinity>
-10.1968431

$$$$

 OpenBabel11232420523D

 37 41  0  0  1  0  0  0  0  0999 V2000
  -18.5290   25.4750   11.4180 C   0  0  0  0  0  0  0  0  0  0  0  0
  -17.9270   25.6440   12.4870 O   0  0  0  0  0  0  0  0  0  0  0  0
  -18.9040   24.2110   10.9830 N   0  0  0  0  0  0  0  0  0  0  0  0
  -18.5050   23.0750   11.8450 C   0  0  0  0  0  2  0  0  0  0  0  0
  -18.9950   21.6730   11.4530 C   0  0  0  0  0  2  0  0  0  0  0  0
  -18.8110   21.4810   10.0130 N   0  0  0  0  0  0  0  0  0  0  0  0
  -19.4690   22.4860    9.1670 C   0  0  1  0  0  3  0  0  0  0  0  0
  -20.7610   23.1730    9.5230 C   0  0  0  0  0  2  0  0  0  0  0  0
  -19.4630   23.9140    9.6750 C   0  0  1  0  0  3  0  0  0  0  0  0
  -18.6670   20.1470    9.6000 C   0  0  0  0  0  0  0  0  0  0  0  0
  -19.2930   19.1970   10.3220 N   0  0  0  0  0  0  0  0  0  0  0  0
  -19.0750   17.9190    9.9840 C   0  0  0  0  0  3  0  0  0  0  0  0
  -18.2350   17.4910    9.0420 N   0  0  0  0  0  0  0  0  0  0  0  0
  -17.5830   18.4530    8.3840 C   0  0  0  0  0  0  0  0  0  0  0  0
  -17.7990   19.8100    8.5660 C   0  0  0  0  0  0  0  0  0  0  0  0
  -17.0690   20.7830    7.6750 C   0  0  2  0  0  3  0  0  0  0  0  0
  -17.7960   20.9690    6.3350 C   0  0  0  0  0  1  0  0  0  0  0  0
  -15.6450   20.2780    7.4300 C   0  0  0  0  0  2  0  0  0  0  0  0
  -15.6410   18.8400    6.9570 C   0  0  0  0  0  0  0  0  0  0  0  0
  -14.7810   18.4110    6.1930 O   0  0  0  0  0  0  0  0  0  0  0  0
  -16.5890   18.0260    7.5070 N   0  0  0  0  0  0  0  0  0  0  0  0
  -16.5300   17.0340    7.3220 H   0  0  0  0  0  0  0  0  0  0  0  0
  -18.7350   26.6810   10.4980 C   0  0  1  0  0  3  0  0  0  0  0  0
  -18.9720   27.9880   11.2380 C   0  0  0  0  0  0  0  0  0  0  0  0
  -20.1300   28.2040   12.0030 C   0  0  0  0  0  3  0  0  0  0  0  0
  -20.2980   29.3940   12.7170 C   0  0  0  0  0  3  0  0  0  0  0  0
  -19.3070   30.3720   12.6820 C   0  0  0  0  0  0  0  0  0  0  0  0
  -19.5090   31.8280   13.5730 Cl  0  0  0  0  0  0  0  0  0  0  0  0
  -18.1510   30.1720   11.9330 C   0  0  0  0  0  3  0  0  0  0  0  0
  -17.9810   28.9850   11.2150 C   0  0  0  0  0  3  0  0  0  0  0  0
  -17.5090   26.8470    9.5650 C   0  0  0  0  0  2  0  0  0  0  0  0
  -16.2270   26.2860   10.1330 N   0  0  0  0  0  4  0  0  0  0  0  0
  -16.5280   25.6980   10.9400 H   0  0  0  0  0  0  0  0  0  0  0  0
  -15.6880   27.0480   10.5670 H   0  0  0  0  0  0  0  0  0  0  0  0
  -16.0820   24.2360    8.7600 C   0  0  0  0  0  1  0  0  0  0  0  0
  -15.3360   25.4700    9.2450 C   0  0  0  0  0  3  0  0  0  0  0  0
  -14.8970   26.3510    8.0820 C   0  0  0  0  0  1  0  0  0  0  0  0
  1  2  2  0  0  0  0
  3  1  1  0  0  0  0
  3  4  1  0  0  0  0
  5  4  1  0  0  0  0
  6  5  1  0  0  0  0
  7  8  1  1  0  0  0
  7  9  1  0  0  0  0
  7  6  1  0  0  0  0
  9  8  1  1  0  0  0
  9  3  1  0  0  0  0
 10  6  1  0  0  0  0
 10 11  1  0  0  0  0
 12 11  2  0  0  0  0
 13 12  1  0  0  0  0
 14 15  1  0  0  0  0
 14 13  2  0  0  0  0
 15 10  2  0  0  0  0
 16 17  1  6  0  0  0
 16 15  1  0  0  0  0
 18 16  1  0  0  0  0
 19 18  1  0  0  0  0
 19 21  1  0  0  0  0
 20 19  2  0  0  0  0
 21 14  1  0  0  0  0
 22 21  1  0  0  0  0
 23 31  1  1  0  0  0
 23 24  1  0  0  0  0
 23  1  1  0  0  0  0
 24 25  1  0  0  0  0
 25 26  2  0  0  0  0
 27 26  1  0  0  0  0
 27 28  1  0  0  0  0
 29 27  2  0  0  0  0
 30 24  2  0  0  0  0
 30 29  1  0  0  0  0
 31 32  1  0  0  0  0
 32 34  1  0  0  0  0
 32 33  1  0  0  0  0
 35 36  1  0  0  0  0
 36 32  1  0  0  0  0
 37 36  1  0  0  0  0
M  END
>  <minimizedAffinity>
-9.99456978

$$$$

 OpenBabel11232420523D

 37 41  0  0  1  0  0  0  0  0999 V2000
  -20.3360   23.0430   10.9110 C   0  0  0  0  0  0  0  0  0  0  0  0
  -21.5210   22.7620   11.1410 O   0  0  0  0  0  0  0  0  0  0  0  0
  -19.8450   24.3300   11.0830 N   0  0  0  0  0  0  0  0  0  0  0  0
  -20.8230   25.3540   11.5130 C   0  0  0  0  0  2  0  0  0  0  0  0
  -20.2960   26.7640   11.8170 C   0  0  0  0  0  2  0  0  0  0  0  0
  -19.3630   27.1700   10.7640 N   0  0  0  0  0  0  0  0  0  0  0  0
  -18.2320   26.2570   10.5550 C   0  0  1  0  0  3  0  0  0  0  0  0
  -17.5890   25.4470   11.6490 C   0  0  0  0  0  2  0  0  0  0  0  0
  -18.5210   24.7740   10.6810 C   0  0  1  0  0  3  0  0  0  0  0  0
  -19.2390   28.5560   10.5750 C   0  0  0  0  0  0  0  0  0  0  0  0
  -20.1100   29.1540    9.7390 N   0  0  0  0  0  0  0  0  0  0  0  0
  -19.9290   30.4570    9.4850 C   0  0  0  0  0  3  0  0  0  0  0  0
  -18.9200   31.2080    9.9280 N   0  0  0  0  0  0  0  0  0  0  0  0
  -18.0400   30.5730   10.7060 C   0  0  0  0  0  0  0  0  0  0  0  0
  -18.1730   29.2590   11.1270 C   0  0  0  0  0  0  0  0  0  0  0  0
  -17.1570   28.7050   12.0940 C   0  0  2  0  0  3  0  0  0  0  0  0
  -17.5040   29.0780   13.5440 C   0  0  0  0  0  1  0  0  0  0  0  0
  -15.7690   29.2390   11.7360 C   0  0  0  0  0  2  0  0  0  0  0  0
  -15.7740   30.7470   11.5980 C   0  0  0  0  0  0  0  0  0  0  0  0
  -14.7920   31.4280   11.8770 O   0  0  0  0  0  0  0  0  0  0  0  0
  -16.8990   31.2940   11.0500 N   0  0  0  0  0  0  0  0  0  0  0  0
  -16.8850   32.2770   10.8150 H   0  0  0  0  0  0  0  0  0  0  0  0
  -19.4390   21.9690   10.2890 C   0  0  1  0  0  3  0  0  0  0  0  0
  -19.6640   20.5750   10.8520 C   0  0  0  0  0  0  0  0  0  0  0  0
  -20.1070   20.3730   12.1700 C   0  0  0  0  0  3  0  0  0  0  0  0
  -20.3580   19.0820   12.6450 C   0  0  0  0  0  3  0  0  0  0  0  0
  -20.1810   17.9860   11.8050 C   0  0  0  0  0  0  0  0  0  0  0  0
  -20.5050   16.4010   12.3870 Cl  0  0  0  0  0  0  0  0  0  0  0  0
  -19.7480   18.1680   10.4950 C   0  0  0  0  0  3  0  0  0  0  0  0
  -19.4920   19.4560   10.0180 C   0  0  0  0  0  3  0  0  0  0  0  0
  -19.6480   21.9320    8.7550 C   0  0  0  0  0  2  0  0  0  0  0  0
  -18.3770   22.1030    7.9590 N   0  0  0  0  0  4  0  0  0  0  0  0
  -17.7240   22.5990    8.6030 H   0  0  0  0  0  0  0  0  0  0  0  0
  -18.5420   22.7810    7.2010 H   0  0  0  0  0  0  0  0  0  0  0  0
  -17.3400   21.1010    5.9520 C   0  0  0  0  0  1  0  0  0  0  0  0
  -17.6910   20.8850    7.4160 C   0  0  0  0  0  3  0  0  0  0  0  0
  -16.4480   20.6300    8.2590 C   0  0  0  0  0  1  0  0  0  0  0  0
  1  3  1  0  0  0  0
  1  2  2  0  0  0  0
  3  4  1  0  0  0  0
  4  5  1  0  0  0  0
  6  5  1  0  0  0  0
  7  9  1  0  0  0  0
  7  6  1  0  0  0  0
  7  8  1  1  0  0  0
  9  3  1  0  0  0  0
  9  8  1  1  0  0  0
 10  6  1  0  0  0  0
 10 15  1  0  0  0  0
 11 10  2  0  0  0  0
 12 11  1  0  0  0  0
 12 13  2  0  0  0  0
 13 14  1  0  0  0  0
 14 21  1  0  0  0  0
 14 15  2  0  0  0  0
 15 16  1  0  0  0  0
 16 17  1  1  0  0  0
 18 16  1  0  0  0  0
 19 18  1  0  0  0  0
 19 20  2  0  0  0  0
 21 19  1  0  0  0  0
 22 21  1  0  0  0  0
 23 31  1  6  0  0  0
 23 24  1  0  0  0  0
 23  1  1  0  0  0  0
 24 25  1  0  0  0  0
 25 26  2  0  0  0  0
 27 28  1  0  0  0  0
 27 26  1  0  0  0  0
 29 27  2  0  0  0  0
 30 29  1  0  0  0  0
 30 24  2  0  0  0  0
 32 33  1  0  0  0  0
 32 31  1  0  0  0  0
 34 32  1  0  0  0  0
 35 36  1  0  0  0  0
 36 32  1  0  0  0  0
 36 37  1  0  0  0  0
M  END
>  <minimizedAffinity>
-9.98535538

$$$$

 OpenBabel11232420523D

 37 41  0  0  1  0  0  0  0  0999 V2000
  -19.0270   21.3860    9.2870 C   0  0  0  0  0  0  0  0  0  0  0  0
  -19.5070   21.3200    8.1470 O   0  0  0  0  0  0  0  0  0  0  0  0
  -18.8660   22.6000    9.9420 N   0  0  0  0  0  0  0  0  0  0  0  0
  -19.2590   23.8100    9.1850 C   0  0  0  0  0  2  0  0  0  0  0  0
  -19.1960   25.1610    9.9150 C   0  0  0  0  0  2  0  0  0  0  0  0
  -17.9410   25.2500   10.6620 N   0  0  0  0  0  0  0  0  0  0  0  0
  -17.7140   24.1620   11.6220 C   0  0  1  0  0  3  0  0  0  0  0  0
  -18.8130   23.4590   12.3740 C   0  0  0  0  0  2  0  0  0  0  0  0
  -18.1650   22.7780   11.2020 C   0  0  1  0  0  3  0  0  0  0  0  0
  -17.4770   26.5540   10.8980 C   0  0  0  0  0  0  0  0  0  0  0  0
  -16.1550   26.7810   10.7680 N   0  0  0  0  0  0  0  0  0  0  0  0
  -15.7020   28.0000   11.0890 C   0  0  0  0  0  3  0  0  0  0  0  0
  -16.4280   28.9970   11.5960 N   0  0  0  0  0  0  0  0  0  0  0  0
  -17.7230   28.7230   11.7710 C   0  0  0  0  0  0  0  0  0  0  0  0
  -18.3320   27.5400   11.3800 C   0  0  0  0  0  0  0  0  0  0  0  0
  -19.8250   27.4110   11.5400 C   0  0  2  0  0  3  0  0  0  0  0  0
  -20.5710   28.0460   10.3560 C   0  0  0  0  0  1  0  0  0  0  0  0
  -20.2580   28.0790   12.8470 C   0  0  0  0  0  2  0  0  0  0  0  0
  -19.7160   29.4890   12.9530 C   0  0  0  0  0  0  0  0  0  0  0  0
  -20.3260   30.3760   13.5430 O   0  0  0  0  0  0  0  0  0  0  0  0
  -18.4660   29.6900   12.4420 N   0  0  0  0  0  0  0  0  0  0  0  0
  -18.0170   30.5790   12.6180 H   0  0  0  0  0  0  0  0  0  0  0  0
  -18.4720   20.1080    9.9210 C   0  0  1  0  0  3  0  0  0  0  0  0
  -19.4810   19.3540   10.7720 C   0  0  0  0  0  0  0  0  0  0  0  0
  -19.6840   17.9710   10.6280 C   0  0  0  0  0  3  0  0  0  0  0  0
  -20.5790   17.2930   11.4610 C   0  0  0  0  0  3  0  0  0  0  0  0
  -21.2680   17.9870   12.4510 C   0  0  0  0  0  0  0  0  0  0  0  0
  -22.3570   17.1480   13.4840 Cl  0  0  0  0  0  0  0  0  0  0  0  0
  -21.0760   19.3560   12.6130 C   0  0  0  0  0  3  0  0  0  0  0  0
  -20.1850   20.0380   11.7790 C   0  0  0  0  0  3  0  0  0  0  0  0
  -17.9380   19.1610    8.8170 C   0  0  0  0  0  2  0  0  0  0  0  0
  -16.8410   19.7630    7.9720 N   0  0  0  0  0  4  0  0  0  0  0  0
  -15.9550   19.4460    8.4210 H   0  0  0  0  0  0  0  0  0  0  0  0
  -16.8360   20.7850    8.1040 H   0  0  0  0  0  0  0  0  0  0  0  0
  -17.0790   20.6830    5.6900 C   0  0  0  0  0  1  0  0  0  0  0  0
  -16.7890   19.4350    6.5100 C   0  0  0  0  0  3  0  0  0  0  0  0
  -15.4060   18.8730    6.2030 C   0  0  0  0  0  1  0  0  0  0  0  0
  1 23  1  0  0  0  0
  1  3  1  0  0  0  0
  2  1  2  0  0  0  0
  3  9  1  0  0  0  0
  4  5  1  0  0  0  0
  4  3  1  0  0  0  0
  5  6  1  0  0  0  0
  6 10  1  0  0  0  0
  6  7  1  0  0  0  0
  7  8  1  1  0  0  0
  9  7  1  0  0  0  0
  9  8  1  1  0  0  0
 10 15  1  0  0  0  0
 11 10  2  0  0  0  0
 11 12  1  0  0  0  0
 12 13  2  0  0  0  0
 13 14  1  0  0  0  0
 14 21  1  0  0  0  0
 15 16  1  0  0  0  0
 15 14  2  0  0  0  0
 16 17  1  6  0  0  0
 16 18  1  0  0  0  0
 18 19  1  0  0  0  0
 19 20  2  0  0  0  0
 21 22  1  0  0  0  0
 21 19  1  0  0  0  0
 23 31  1  6  0  0  0
 23 24  1  0  0  0  0
 24 30  1  0  0  0  0
 25 24  2  0  0  0  0
 25 26  1  0  0  0  0
 26 27  2  0  0  0  0
 27 29  1  0  0  0  0
 27 28  1  0  0  0  0
 30 29  2  0  0  0  0
 32 34  1  0  0  0  0
 32 33  1  0  0  0  0
 32 31  1  0  0  0  0
 35 36  1  0  0  0  0
 36 32  1  0  0  0  0
 37 36  1  0  0  0  0
M  END
>  <minimizedAffinity>
-9.91131115

$$$$

 OpenBabel11232420523D

 37 41  0  0  1  0  0  0  0  0999 V2000
  -20.3290   30.3910   13.9190 C   0  0  0  0  0  0  0  0  0  0  0  0
  -21.5520   30.3080   13.7400 O   0  0  0  0  0  0  0  0  0  0  0  0
  -19.4240   29.7710   13.0670 N   0  0  0  0  0  0  0  0  0  0  0  0
  -20.0030   28.9710   11.9640 C   0  0  0  0  0  2  0  0  0  0  0  0
  -19.0340   28.3600   10.9400 C   0  0  0  0  0  2  0  0  0  0  0  0
  -17.9020   27.7560   11.6440 N   0  0  0  0  0  0  0  0  0  0  0  0
  -17.1680   28.6690   12.5310 C   0  0  1  0  0  3  0  0  0  0  0  0
  -16.9990   30.1430   12.2700 C   0  0  0  0  0  2  0  0  0  0  0  0
  -17.9920   29.6830   13.2990 C   0  0  1  0  0  3  0  0  0  0  0  0
  -17.2580   26.7130   10.9600 C   0  0  0  0  0  0  0  0  0  0  0  0
  -16.0680   26.9810   10.3880 N   0  0  0  0  0  0  0  0  0  0  0  0
  -15.5020   26.0130    9.6540 C   0  0  0  0  0  3  0  0  0  0  0  0
  -16.0420   24.8260    9.3740 N   0  0  0  0  0  0  0  0  0  0  0  0
  -17.2480   24.6120    9.9050 C   0  0  0  0  0  0  0  0  0  0  0  0
  -17.8900   25.4890   10.7660 C   0  0  0  0  0  0  0  0  0  0  0  0
  -19.2030   25.0680   11.3760 C   0  0  2  0  0  3  0  0  0  0  0  0
  -18.9870   24.1940   12.6210 C   0  0  0  0  0  1  0  0  0  0  0  0
  -20.0260   24.3030   10.3370 C   0  0  0  0  0  2  0  0  0  0  0  0
  -19.2200   23.1880    9.7060 C   0  0  0  0  0  0  0  0  0  0  0  0
  -19.7440   22.1460    9.3210 O   0  0  0  0  0  0  0  0  0  0  0  0
  -17.8960   23.4490    9.4990 N   0  0  0  0  0  0  0  0  0  0  0  0
  -17.3590   22.7860    8.9560 H   0  0  0  0  0  0  0  0  0  0  0  0
  -19.8210   31.0770   15.1890 C   0  0  1  0  0  3  0  0  0  0  0  0
  -19.0750   32.3760   14.9320 C   0  0  0  0  0  0  0  0  0  0  0  0
  -17.8540   32.6650   15.5640 C   0  0  0  0  0  3  0  0  0  0  0  0
  -17.1610   33.8430   15.2680 C   0  0  0  0  0  3  0  0  0  0  0  0
  -17.6770   34.7350   14.3320 C   0  0  0  0  0  0  0  0  0  0  0  0
  -16.8160   36.1750   13.9590 Cl  0  0  0  0  0  0  0  0  0  0  0  0
  -18.8820   34.4630   13.6920 C   0  0  0  0  0  3  0  0  0  0  0  0
  -19.5790   33.2890   13.9880 C   0  0  0  0  0  3  0  0  0  0  0  0
  -21.0070   31.3590   16.1450 C   0  0  0  0  0  2  0  0  0  0  0  0
  -21.6080   30.1170   16.7590 N   0  0  0  0  0  4  0  0  0  0  0  0
  -21.1330   30.0210   17.6830 H   0  0  0  0  0  0  0  0  0  0  0  0
  -21.2930   29.2930   16.2290 H   0  0  0  0  0  0  0  0  0  0  0  0
  -23.7240   31.3790   16.5640 C   0  0  0  0  0  1  0  0  0  0  0  0
  -23.0920   30.0560   16.9680 C   0  0  0  0  0  3  0  0  0  0  0  0
  -23.6360   28.8990   16.1400 C   0  0  0  0  0  1  0  0  0  0  0  0
  1 23  1  0  0  0  0
  2  1  2  0  0  0  0
  3  9  1  0  0  0  0
  3  1  1  0  0  0  0
  4  3  1  0  0  0  0
  5  6  1  0  0  0  0
  5  4  1  0  0  0  0
  6  7  1  0  0  0  0
  7  8  1  6  0  0  0
  7  9  1  0  0  0  0
  9  8  1  6  0  0  0
 10  6  1  0  0  0  0
 11 10  2  0  0  0  0
 12 11  1  0  0  0  0
 13 12  2  0  0  0  0
 13 14  1  0  0  0  0
 14 15  2  0  0  0  0
 15 10  1  0  0  0  0
 15 16  1  0  0  0  0
 16 17  1  1  0  0  0
 18 16  1  0  0  0  0
 19 18  1  0  0  0  0
 20 19  2  0  0  0  0
 21 19  1  0  0  0  0
 21 14  1  0  0  0  0
 22 21  1  0  0  0  0
 23 31  1  1  0  0  0
 24 23  1  0  0  0  0
 24 25  1  0  0  0  0
 26 25  2  0  0  0  0
 27 26  1  0  0  0  0
 28 27  1  0  0  0  0
 29 30  1  0  0  0  0
 29 27  2  0  0  0  0
 30 24  2  0  0  0  0
 31 32  1  0  0  0  0
 32 36  1  0  0  0  0
 32 33  1  0  0  0  0
 34 32  1  0  0  0  0
 35 36  1  0  0  0  0
 37 36  1  0  0  0  0
M  END
>  <minimizedAffinity>
-9.79552841

$$$$
