
 OpenBabel11232419403D

 42 48  0  0  1  0  0  0  0  0999 V2000
   59.5530  -41.7890   17.2600 C   0  0  0  0  0  0  0  0  0  0  0  0
   58.4900  -42.3290   16.5680 N   0  0  0  0  0  0  0  0  0  0  0  0
   57.4190  -41.7940   17.1120 C   0  0  0  0  0  0  0  0  0  0  0  0
   57.7580  -40.9170   18.1040 N   0  0  0  0  0  0  0  0  0  0  0  0
   59.1270  -40.8770   18.2170 C   0  0  0  0  0  0  0  0  0  0  0  0
   56.7590  -40.0800   18.7430 C   0  0  0  0  0  2  0  0  0  0  0  0
   55.4480  -40.6820   18.7710 O   0  0  0  0  0  0  0  0  0  0  0  0
   55.0850  -41.4070   17.6640 C   0  0  0  0  0  0  0  0  0  0  0  0
   53.7250  -41.6070   17.4530 C   0  0  0  0  0  3  0  0  0  0  0  0
   53.2950  -42.3670   16.3590 C   0  0  0  0  0  3  0  0  0  0  0  0
   54.2220  -42.9460   15.4770 C   0  0  0  0  0  0  0  0  0  0  0  0
   55.5910  -42.7600   15.7190 C   0  0  0  0  0  3  0  0  0  0  0  0
   56.0200  -41.9940   16.8070 C   0  0  0  0  0  0  0  0  0  0  0  0
   53.7810  -43.7420   14.3330 C   0  0  0  0  0  0  0  0  0  0  0  0
   54.0460  -43.6280   12.9810 C   0  0  0  0  0  3  0  0  0  0  0  0
   53.3310  -44.6720   12.3690 C   0  0  0  0  0  3  0  0  0  0  0  0
   52.6460  -45.3980   13.2530 N   0  0  0  0  0  0  0  0  0  0  0  0
   52.9310  -44.8160   14.4290 N   0  0  0  0  0  0  0  0  0  0  0  0
   52.4970  -45.1930   15.2640 H   0  0  0  0  0  0  0  0  0  0  0  0
   63.5950  -42.8830   16.2210 C   0  0  0  0  0  0  0  0  0  0  0  0
   62.9360  -41.7710   15.6460 C   0  0  0  0  0  3  0  0  0  0  0  0
   61.6250  -41.4190   15.9890 C   0  0  0  0  0  3  0  0  0  0  0  0
   60.9230  -42.1490   16.9470 C   0  0  0  0  0  0  0  0  0  0  0  0
   61.5520  -43.2360   17.5500 C   0  0  0  0  0  3  0  0  0  0  0  0
   62.8580  -43.5940   17.1900 C   0  0  0  0  0  3  0  0  0  0  0  0
   66.1510  -45.2500   13.0620 C   0  0  0  0  0  1  0  0  0  0  0  0
   65.1720  -44.5340   13.9770 C   0  0  1  0  0  0  0  0  0  0  0  0
   65.3330  -44.8240   15.4950 C   0  0  0  0  0  2  0  0  0  0  0  0
   65.0590  -43.3100   15.7530 C   0  0  1  0  0  0  0  0  0  0  0  0
   65.5550  -43.0650   14.2960 C   0  0  0  0  0  2  0  0  0  0  0  0
   66.0080  -42.7240   16.7320 N   0  0  0  0  0  4  0  0  0  0  0  0
   65.8900  -41.7020   16.7750 H   0  0  0  0  0  0  0  0  0  0  0  0
   65.8290  -43.0710   17.6830 H   0  0  0  0  0  0  0  0  0  0  0  0
   66.9920  -42.9130   16.5110 H   0  0  0  0  0  0  0  0  0  0  0  0
   63.8330  -44.6810   13.4720 O   0  0  0  0  0  0  0  0  0  0  0  0
   63.6970  -45.6320   13.2950 H   0  0  0  0  0  0  0  0  0  0  0  0
   59.8540  -39.9740   19.1000 C   0  0  0  0  0  0  0  0  0  0  0  0
   60.4650  -38.8210   18.5960 C   0  0  0  0  0  3  0  0  0  0  0  0
   61.1680  -37.9690   19.4500 C   0  0  0  0  0  3  0  0  0  0  0  0
   61.2610  -38.2630   20.8100 C   0  0  0  0  0  3  0  0  0  0  0  0
   60.6480  -39.4070   21.3190 C   0  0  0  0  0  3  0  0  0  0  0  0
   59.9440  -40.2590   20.4680 C   0  0  0  0  0  3  0  0  0  0  0  0
  1  5  2  0  0  0  0
  2  3  2  0  0  0  0
  2  1  1  0  0  0  0
  3  4  1  0  0  0  0
  4  5  1  0  0  0  0
  4  6  1  0  0  0  0
  5 37  1  0  0  0  0
  6  7  1  0  0  0  0
  8  7  1  0  0  0  0
  9  8  1  0  0  0  0
 10  9  2  0  0  0  0
 11 12  2  0  0  0  0
 11 10  1  0  0  0  0
 12 13  1  0  0  0  0
 13  3  1  0  0  0  0
 13  8  2  0  0  0  0
 14 18  1  0  0  0  0
 14 11  1  0  0  0  0
 15 14  2  0  0  0  0
 16 15  1  0  0  0  0
 16 17  2  0  0  0  0
 17 18  1  0  0  0  0
 18 19  1  0  0  0  0
 20 25  1  0  0  0  0
 21 22  1  0  0  0  0
 21 20  2  0  0  0  0
 22 23  2  0  0  0  0
 23  1  1  0  0  0  0
 23 24  1  0  0  0  0
 25 24  2  0  0  0  0
 27 26  1  6  0  0  0
 27 30  1  0  0  0  0
 27 28  1  0  0  0  0
 28 29  1  0  0  0  0
 29 20  1  0  0  0  0
 29 31  1  1  0  0  0
 30 29  1  0  0  0  0
 31 32  1  0  0  0  0
 31 33  1  0  0  0  0
 34 31  1  0  0  0  0
 35 27  1  0  0  0  0
 36 35  1  0  0  0  0
 37 42  1  0  0  0  0
 38 37  2  0  0  0  0
 38 39  1  0  0  0  0
 39 40  2  0  0  0  0
 40 41  1  0  0  0  0
 42 41  2  0  0  0  0
M  END
>  <minimizedAffinity>
-3.42174387

$$$$
