
 OpenBabel11232419403D

 42 48  0  0  1  0  0  0  0  0999 V2000
   59.4730  -41.8630   17.2360 C   0  0  0  0  0  0  0  0  0  0  0  0
   58.4530  -42.4670   16.5320 N   0  0  0  0  0  0  0  0  0  0  0  0
   57.3440  -42.0210   17.0820 C   0  0  0  0  0  0  0  0  0  0  0  0
   57.6160  -41.1380   18.0900 N   0  0  0  0  0  0  0  0  0  0  0  0
   58.9790  -41.0000   18.2070 C   0  0  0  0  0  0  0  0  0  0  0  0
   56.5580  -40.3880   18.7400 C   0  0  0  0  0  2  0  0  0  0  0  0
   55.2950  -41.0850   18.7540 O   0  0  0  0  0  0  0  0  0  0  0  0
   54.9880  -41.8160   17.6340 C   0  0  0  0  0  0  0  0  0  0  0  0
   53.6460  -42.1110   17.4150 C   0  0  0  0  0  3  0  0  0  0  0  0
   53.2760  -42.8830   16.3080 C   0  0  0  0  0  3  0  0  0  0  0  0
   54.2440  -43.3770   15.4190 C   0  0  0  0  0  0  0  0  0  0  0  0
   55.5950  -43.0950   15.6680 C   0  0  0  0  0  3  0  0  0  0  0  0
   55.9650  -42.3180   16.7700 C   0  0  0  0  0  0  0  0  0  0  0  0
   53.8640  -44.1840   14.2610 C   0  0  0  0  0  0  0  0  0  0  0  0
   52.6360  -44.6500   13.8330 C   0  0  0  0  0  3  0  0  0  0  0  0
   52.9000  -45.3840   12.6620 C   0  0  0  0  0  3  0  0  0  0  0  0
   54.1980  -45.4030   12.3630 N   0  0  0  0  0  0  0  0  0  0  0  0
   54.7590  -44.6760   13.3430 N   0  0  0  0  0  0  0  0  0  0  0  0
   55.7670  -44.5650   13.3360 H   0  0  0  0  0  0  0  0  0  0  0  0
   63.5890  -42.6140   16.1870 C   0  0  0  0  0  0  0  0  0  0  0  0
   62.9260  -41.4110   15.8500 C   0  0  0  0  0  3  0  0  0  0  0  0
   61.5900  -41.1710   16.1950 C   0  0  0  0  0  3  0  0  0  0  0  0
   60.8660  -42.1160   16.9210 C   0  0  0  0  0  0  0  0  0  0  0  0
   61.4970  -43.3020   17.2900 C   0  0  0  0  0  3  0  0  0  0  0  0
   62.8290  -43.5430   16.9260 C   0  0  0  0  0  3  0  0  0  0  0  0
   66.4410  -43.4120   12.5340 C   0  0  0  0  0  1  0  0  0  0  0  0
   65.3790  -43.1330   13.5840 C   0  0  1  0  0  0  0  0  0  0  0  0
   65.3400  -44.1220   14.7820 C   0  0  0  0  0  2  0  0  0  0  0  0
   65.0850  -42.8950   15.7100 C   0  0  1  0  0  0  0  0  0  0  0  0
   65.7670  -42.0320   14.6070 C   0  0  0  0  0  2  0  0  0  0  0  0
   65.9240  -42.9310   16.9350 N   0  0  0  0  0  4  0  0  0  0  0  0
   65.8340  -42.0470   17.4550 H   0  0  0  0  0  0  0  0  0  0  0  0
   65.6160  -43.6710   17.5790 H   0  0  0  0  0  0  0  0  0  0  0  0
   66.9210  -43.0790   16.7430 H   0  0  0  0  0  0  0  0  0  0  0  0
   64.1100  -42.9030   12.9480 O   0  0  0  0  0  0  0  0  0  0  0  0
   63.9660  -43.6390   12.3220 H   0  0  0  0  0  0  0  0  0  0  0  0
   59.6360  -40.0610   19.1060 C   0  0  0  0  0  0  0  0  0  0  0  0
   59.7120  -40.3200   20.4790 C   0  0  0  0  0  3  0  0  0  0  0  0
   60.3340  -39.4080   21.3330 C   0  0  0  0  0  3  0  0  0  0  0  0
   60.8860  -38.2340   20.8190 C   0  0  0  0  0  3  0  0  0  0  0  0
   60.8190  -37.9730   19.4520 C   0  0  0  0  0  3  0  0  0  0  0  0
   60.1990  -38.8850   18.5970 C   0  0  0  0  0  3  0  0  0  0  0  0
  1  5  2  0  0  0  0
  2  3  2  0  0  0  0
  2  1  1  0  0  0  0
  3  4  1  0  0  0  0
  4  5  1  0  0  0  0
  4  6  1  0  0  0  0
  5 37  1  0  0  0  0
  6  7  1  0  0  0  0
  8  7  1  0  0  0  0
  9  8  1  0  0  0  0
 10  9  2  0  0  0  0
 11 12  2  0  0  0  0
 11 10  1  0  0  0  0
 12 13  1  0  0  0  0
 13  3  1  0  0  0  0
 13  8  2  0  0  0  0
 14 11  1  0  0  0  0
 15 14  2  0  0  0  0
 16 15  1  0  0  0  0
 17 16  2  0  0  0  0
 17 18  1  0  0  0  0
 18 14  1  0  0  0  0
 19 18  1  0  0  0  0
 20 25  1  0  0  0  0
 21 20  2  0  0  0  0
 21 22  1  0  0  0  0
 22 23  2  0  0  0  0
 23  1  1  0  0  0  0
 23 24  1  0  0  0  0
 25 24  2  0  0  0  0
 27 26  1  6  0  0  0
 27 30  1  0  0  0  0
 27 28  1  0  0  0  0
 28 29  1  0  0  0  0
 29 20  1  0  0  0  0
 29 31  1  1  0  0  0
 30 29  1  0  0  0  0
 31 32  1  0  0  0  0
 31 33  1  0  0  0  0
 34 31  1  0  0  0  0
 35 27  1  0  0  0  0
 36 35  1  0  0  0  0
 37 38  1  0  0  0  0
 38 39  2  0  0  0  0
 40 39  1  0  0  0  0
 41 40  2  0  0  0  0
 42 37  2  0  0  0  0
 42 41  1  0  0  0  0
M  END
>  <minimizedAffinity>
-4.00919914

$$$$
