
 OpenBabel11232419403D

 42 48  0  0  1  0  0  0  0  0999 V2000
   58.5630  -42.0740   17.1080 C   0  0  0  0  0  0  0  0  0  0  0  0
   57.6020  -41.5910   17.9700 N   0  0  0  0  0  0  0  0  0  0  0  0
   56.5050  -41.5050   17.2500 C   0  0  0  0  0  0  0  0  0  0  0  0
   56.7210  -41.9380   15.9710 N   0  0  0  0  0  0  0  0  0  0  0  0
   58.0340  -42.3270   15.8470 C   0  0  0  0  0  0  0  0  0  0  0  0
   55.6260  -42.0930   15.0330 C   0  0  0  0  0  2  0  0  0  0  0  0
   54.5360  -41.1790   15.2780 O   0  0  0  0  0  0  0  0  0  0  0  0
   54.2420  -40.9180   16.5920 C   0  0  0  0  0  0  0  0  0  0  0  0
   52.9680  -40.4360   16.8750 C   0  0  0  0  0  3  0  0  0  0  0  0
   52.6210  -40.1190   18.1930 C   0  0  0  0  0  3  0  0  0  0  0  0
   53.5490  -40.2680   19.2370 C   0  0  0  0  0  0  0  0  0  0  0  0
   54.8380  -40.7280   18.9330 C   0  0  0  0  0  3  0  0  0  0  0  0
   55.1830  -41.0510   17.6170 C   0  0  0  0  0  0  0  0  0  0  0  0
   53.1940  -39.9380   20.6160 C   0  0  0  0  0  0  0  0  0  0  0  0
   53.0080  -40.7360   21.7290 C   0  0  0  0  0  3  0  0  0  0  0  0
   52.6660  -39.8550   22.7700 C   0  0  0  0  0  3  0  0  0  0  0  0
   52.6190  -38.5870   22.3610 N   0  0  0  0  0  0  0  0  0  0  0  0
   52.9390  -38.6630   21.0590 N   0  0  0  0  0  0  0  0  0  0  0  0
   52.9490  -37.8050   20.5200 H   0  0  0  0  0  0  0  0  0  0  0  0
   62.6410  -42.6340   18.3980 C   0  0  0  0  0  0  0  0  0  0  0  0
   61.6750  -41.9730   19.1920 C   0  0  0  0  0  3  0  0  0  0  0  0
   60.3520  -41.7960   18.7700 C   0  0  0  0  0  3  0  0  0  0  0  0
   59.9280  -42.3010   17.5420 C   0  0  0  0  0  0  0  0  0  0  0  0
   60.8480  -42.9780   16.7450 C   0  0  0  0  0  3  0  0  0  0  0  0
   62.1750  -43.1360   17.1650 C   0  0  0  0  0  3  0  0  0  0  0  0
   66.4910  -45.3300   18.5480 C   0  0  0  0  0  1  0  0  0  0  0  0
   65.1660  -44.6010   18.3980 C   0  0  1  0  0  0  0  0  0  0  0  0
   64.5770  -43.9980   19.7030 C   0  0  0  0  0  2  0  0  0  0  0  0
   64.1610  -42.7490   18.8680 C   0  0  1  0  0  0  0  0  0  0  0  0
   65.2950  -43.1450   17.8760 C   0  0  0  0  0  2  0  0  0  0  0  0
   64.4920  -41.4760   19.5560 N   0  0  0  0  0  4  0  0  0  0  0  0
   64.3330  -40.6770   18.9250 H   0  0  0  0  0  0  0  0  0  0  0  0
   63.8840  -41.3190   20.3700 H   0  0  0  0  0  0  0  0  0  0  0  0
   65.4640  -41.4270   19.8790 H   0  0  0  0  0  0  0  0  0  0  0  0
   64.2500  -45.4040   17.6340 O   0  0  0  0  0  0  0  0  0  0  0  0
   64.2490  -46.2960   18.0340 H   0  0  0  0  0  0  0  0  0  0  0  0
   58.6010  -42.9420   14.6550 C   0  0  0  0  0  0  0  0  0  0  0  0
   58.5620  -44.3300   14.4790 C   0  0  0  0  0  3  0  0  0  0  0  0
   59.1180  -44.9090   13.3370 C   0  0  0  0  0  3  0  0  0  0  0  0
   59.7120  -44.1060   12.3640 C   0  0  0  0  0  3  0  0  0  0  0  0
   59.7480  -42.7220   12.5300 C   0  0  0  0  0  3  0  0  0  0  0  0
   59.1920  -42.1410   13.6700 C   0  0  0  0  0  3  0  0  0  0  0  0
  1 23  1  0  0  0  0
  1  2  1  0  0  0  0
  3 13  1  0  0  0  0
  3  2  2  0  0  0  0
  4  3  1  0  0  0  0
  5  4  1  0  0  0  0
  5  1  2  0  0  0  0
  6  7  1  0  0  0  0
  6  4  1  0  0  0  0
  7  8  1  0  0  0  0
  8  9  2  0  0  0  0
  8 13  1  0  0  0  0
  9 10  1  0  0  0  0
 10 11  2  0  0  0  0
 11 14  1  0  0  0  0
 12 11  1  0  0  0  0
 13 12  2  0  0  0  0
 14 18  1  0  0  0  0
 14 15  2  0  0  0  0
 15 16  1  0  0  0  0
 17 16  2  0  0  0  0
 18 17  1  0  0  0  0
 19 18  1  0  0  0  0
 20 29  1  0  0  0  0
 20 21  1  0  0  0  0
 22 21  2  0  0  0  0
 23 22  1  0  0  0  0
 24 25  1  0  0  0  0
 24 23  2  0  0  0  0
 25 20  2  0  0  0  0
 27 26  1  1  0  0  0
 27 28  1  0  0  0  0
 29 31  1  1  0  0  0
 29 28  1  0  0  0  0
 30 27  1  0  0  0  0
 30 29  1  0  0  0  0
 31 34  1  0  0  0  0
 31 33  1  0  0  0  0
 32 31  1  0  0  0  0
 35 36  1  0  0  0  0
 35 27  1  0  0  0  0
 37  5  1  0  0  0  0
 38 37  1  0  0  0  0
 39 38  2  0  0  0  0
 40 41  2  0  0  0  0
 40 39  1  0  0  0  0
 41 42  1  0  0  0  0
 42 37  2  0  0  0  0
M  END
>  <minimizedAffinity>
-3.78014779

$$$$
