
 OpenBabel11232419403D

 42 48  0  0  1  0  0  0  0  0999 V2000
   57.3280  -42.4620   15.9550 C   0  0  0  0  0  0  0  0  0  0  0  0
   58.6920  -42.5140   16.1490 N   0  0  0  0  0  0  0  0  0  0  0  0
   59.1960  -42.8040   14.9700 C   0  0  0  0  0  0  0  0  0  0  0  0
   58.2120  -42.9150   14.0280 N   0  0  0  0  0  0  0  0  0  0  0  0
   56.9950  -42.6850   14.6250 C   0  0  0  0  0  0  0  0  0  0  0  0
   58.5300  -43.0690   12.6210 C   0  0  0  0  0  2  0  0  0  0  0  0
   59.7830  -43.7480   12.3940 O   0  0  0  0  0  0  0  0  0  0  0  0
   60.8010  -43.4600   13.2680 C   0  0  0  0  0  0  0  0  0  0  0  0
   62.0990  -43.7160   12.8390 C   0  0  0  0  0  3  0  0  0  0  0  0
   63.1760  -43.4760   13.7000 C   0  0  0  0  0  3  0  0  0  0  0  0
   62.9630  -42.9920   15.0010 C   0  0  0  0  0  0  0  0  0  0  0  0
   61.6460  -42.7660   15.4290 C   0  0  0  0  0  3  0  0  0  0  0  0
   60.5710  -42.9980   14.5670 C   0  0  0  0  0  0  0  0  0  0  0  0
   64.0820  -42.7390   15.9060 C   0  0  0  0  0  0  0  0  0  0  0  0
   64.2150  -42.9170   17.2700 C   0  0  0  0  0  3  0  0  0  0  0  0
   65.5160  -42.4840   17.5800 C   0  0  0  0  0  3  0  0  0  0  0  0
   66.1710  -42.0460   16.5050 N   0  0  0  0  0  0  0  0  0  0  0  0
   65.2850  -42.2070   15.5080 N   0  0  0  0  0  0  0  0  0  0  0  0
   65.5580  -41.9180   14.5760 H   0  0  0  0  0  0  0  0  0  0  0  0
   54.6350  -41.6980   19.2370 C   0  0  0  0  0  0  0  0  0  0  0  0
   56.0150  -41.9420   19.4270 C   0  0  0  0  0  3  0  0  0  0  0  0
   56.8860  -42.1870   18.3580 C   0  0  0  0  0  3  0  0  0  0  0  0
   56.4170  -42.1700   17.0450 C   0  0  0  0  0  0  0  0  0  0  0  0
   55.0660  -41.9090   16.8220 C   0  0  0  0  0  3  0  0  0  0  0  0
   54.1970  -41.6830   17.8970 C   0  0  0  0  0  3  0  0  0  0  0  0
   52.9620  -43.5470   23.2240 C   0  0  0  0  0  1  0  0  0  0  0  0
   53.6160  -43.1040   21.9260 C   0  0  1  0  0  0  0  0  0  0  0  0
   52.6450  -42.6510   20.8020 C   0  0  0  0  0  2  0  0  0  0  0  0
   53.6510  -41.5040   20.4780 C   0  0  1  0  0  0  0  0  0  0  0  0
   54.1500  -41.6470   21.9470 C   0  0  0  0  0  2  0  0  0  0  0  0
   52.9730  -40.1970   20.2840 N   0  0  0  0  0  4  0  0  0  0  0  0
   53.6690  -39.4420   20.2090 H   0  0  0  0  0  0  0  0  0  0  0  0
   52.4380  -40.1790   19.4060 H   0  0  0  0  0  0  0  0  0  0  0  0
   52.3300  -39.9530   21.0450 H   0  0  0  0  0  0  0  0  0  0  0  0
   54.6020  -44.0700   21.5220 O   0  0  0  0  0  0  0  0  0  0  0  0
   54.1730  -44.9470   21.5520 H   0  0  0  0  0  0  0  0  0  0  0  0
   55.7280  -42.6160   13.9090 C   0  0  0  0  0  0  0  0  0  0  0  0
   54.9830  -43.7740   13.6600 C   0  0  0  0  0  3  0  0  0  0  0  0
   53.7760  -43.6970   12.9630 C   0  0  0  0  0  3  0  0  0  0  0  0
   53.3060  -42.4620   12.5140 C   0  0  0  0  0  3  0  0  0  0  0  0
   54.0400  -41.3040   12.7650 C   0  0  0  0  0  3  0  0  0  0  0  0
   55.2470  -41.3790   13.4620 C   0  0  0  0  0  3  0  0  0  0  0  0
  1  2  1  0  0  0  0
  1 23  1  0  0  0  0
  3  2  2  0  0  0  0
  4  5  1  0  0  0  0
  4  3  1  0  0  0  0
  5  1  2  0  0  0  0
  6  4  1  0  0  0  0
  7  6  1  0  0  0  0
  7  8  1  0  0  0  0
  8 13  1  0  0  0  0
  9  8  2  0  0  0  0
  9 10  1  0  0  0  0
 10 11  2  0  0  0  0
 11 12  1  0  0  0  0
 11 14  1  0  0  0  0
 13  3  1  0  0  0  0
 13 12  2  0  0  0  0
 14 15  2  0  0  0  0
 15 16  1  0  0  0  0
 17 16  2  0  0  0  0
 18 14  1  0  0  0  0
 18 17  1  0  0  0  0
 19 18  1  0  0  0  0
 20 21  1  0  0  0  0
 20 29  1  0  0  0  0
 22 21  2  0  0  0  0
 23 22  1  0  0  0  0
 24 23  2  0  0  0  0
 24 25  1  0  0  0  0
 25 20  2  0  0  0  0
 27 30  1  0  0  0  0
 27 26  1  1  0  0  0
 28 27  1  0  0  0  0
 29 31  1  6  0  0  0
 29 28  1  0  0  0  0
 29 30  1  0  0  0  0
 31 34  1  0  0  0  0
 32 31  1  0  0  0  0
 33 31  1  0  0  0  0
 35 36  1  0  0  0  0
 35 27  1  0  0  0  0
 37  5  1  0  0  0  0
 38 37  1  0  0  0  0
 39 38  2  0  0  0  0
 40 41  2  0  0  0  0
 40 39  1  0  0  0  0
 41 42  1  0  0  0  0
 42 37  2  0  0  0  0
M  END
>  <minimizedAffinity>
-3.26508546

$$$$
