
 OpenBabel11232419043D

 40 45  0  0  1  0  0  0  0  0999 V2000
   36.1510   43.4170   20.0760 C   0  0  0  0  0  0  0  0  0  0  0  0
   35.7200   42.1590   20.4740 C   0  0  0  0  0  3  0  0  0  0  0  0
   36.2180   41.5010   21.5430 N   0  0  0  0  0  0  0  0  0  0  0  0
   37.1550   42.1470   22.2780 C   0  0  0  0  0  3  0  0  0  0  0  0
   37.6180   43.4330   22.0070 C   0  0  0  0  0  0  0  0  0  0  0  0
   37.0780   44.0720   20.8810 C   0  0  0  0  0  3  0  0  0  0  0  0
   38.6380   44.0890   22.8290 C   0  0  0  0  0  0  0  0  0  0  0  0
   39.7250   43.3440   23.3530 C   0  0  0  0  0  3  0  0  0  0  0  0
   40.6900   43.9360   24.1740 C   0  0  0  0  0  3  0  0  0  0  0  0
   40.5400   45.2740   24.4620 C   0  0  0  0  0  0  0  0  0  0  0  0
   39.4840   46.0340   23.9670 C   0  0  0  0  0  0  0  0  0  0  0  0
   38.5340   45.4580   23.1370 C   0  0  0  0  0  3  0  0  0  0  0  0
   39.6140   47.4600   24.4540 C   0  0  2  0  0  3  0  0  0  0  0  0
   40.9080   47.3740   25.3020 C   0  0  0  0  0  0  0  0  0  0  0  0
   41.4620   48.2750   25.9140 O   0  0  0  0  0  0  0  0  0  0  0  0
   41.3670   46.0610   25.2420 N   0  0  0  0  0  0  0  0  0  0  0  0
   42.2060   45.7570   25.7160 H   0  0  0  0  0  0  0  0  0  0  0  0
   38.4900   47.9750   25.2930 C   0  0  0  0  0  0  0  0  0  0  0  0
   37.5480   48.9660   25.0890 C   0  0  0  0  0  3  0  0  0  0  0  0
   36.7020   48.9670   26.2230 C   0  0  0  0  0  3  0  0  0  0  0  0
   37.1670   47.9720   27.0460 C   0  0  0  0  0  3  0  0  0  0  0  0
   38.2460   47.3620   26.4930 O   0  0  0  0  0  0  0  0  0  0  0  0
   35.7290   44.0840   18.9600 O   0  0  0  0  0  0  0  0  0  0  0  0
   36.0030   43.4140   17.7220 C   0  0  0  0  0  2  0  0  0  0  0  0
   36.9050   44.3010   16.8460 C   0  0  1  0  0  3  0  0  0  0  0  0
   36.3830   44.2810   15.4340 N   0  0  0  0  0  4  0  0  0  0  0  0
   35.3910   44.5580   15.4170 H   0  0  0  0  0  0  0  0  0  0  0  0
   36.4520   43.3480   15.0090 H   0  0  0  0  0  0  0  0  0  0  0  0
   36.9110   44.9360   14.8420 H   0  0  0  0  0  0  0  0  0  0  0  0
   36.9440   45.7630   17.3320 C   0  0  0  0  0  2  0  0  0  0  0  0
   38.3210   46.3330   17.2360 C   0  0  0  0  0  0  0  0  0  0  0  0
   38.8290   47.1530   16.2480 C   0  0  0  0  0  3  0  0  0  0  0  0
   40.1330   47.4470   16.5660 N   0  0  0  0  0  0  0  0  0  0  0  0
   40.4870   46.8230   17.7400 C   0  0  0  0  0  0  0  0  0  0  0  0
   41.7000   46.8380   18.4390 C   0  0  0  0  0  3  0  0  0  0  0  0
   41.7640   46.1260   19.6400 C   0  0  0  0  0  3  0  0  0  0  0  0
   40.6600   45.4300   20.1230 C   0  0  0  0  0  3  0  0  0  0  0  0
   39.4560   45.4230   19.4110 C   0  0  0  0  0  3  0  0  0  0  0  0
   39.3670   46.1280   18.1930 C   0  0  0  0  0  0  0  0  0  0  0  0
   40.7480   48.0540   16.0380 H   0  0  0  0  0  0  0  0  0  0  0  0
  1  2  2  0  0  0  0
  1  6  1  0  0  0  0
  2  3  1  0  0  0  0
  3  4  2  0  0  0  0
  5  4  1  0  0  0  0
  5  7  1  0  0  0  0
  6  5  2  0  0  0  0
  7 12  2  0  0  0  0
  7  8  1  0  0  0  0
  8  9  2  0  0  0  0
  9 10  1  0  0  0  0
 10 16  1  0  0  0  0
 11 13  1  0  0  0  0
 11 10  2  0  0  0  0
 12 11  1  0  0  0  0
 13 18  1  1  0  0  0
 13 14  1  0  0  0  0
 14 15  2  0  0  0  0
 16 14  1  0  0  0  0
 16 17  1  0  0  0  0
 18 22  1  0  0  0  0
 19 18  2  0  0  0  0
 19 20  1  0  0  0  0
 20 21  2  0  0  0  0
 22 21  1  0  0  0  0
 23  1  1  0  0  0  0
 24 23  1  0  0  0  0
 25 30  1  1  0  0  0
 25 24  1  0  0  0  0
 26 25  1  0  0  0  0
 27 26  1  0  0  0  0
 28 26  1  0  0  0  0
 29 26  1  0  0  0  0
 31 30  1  0  0  0  0
 31 39  1  0  0  0  0
 32 33  1  0  0  0  0
 32 31  2  0  0  0  0
 33 34  1  0  0  0  0
 34 39  2  0  0  0  0
 34 35  1  0  0  0  0
 35 36  2  0  0  0  0
 36 37  1  0  0  0  0
 38 37  2  0  0  0  0
 39 38  1  0  0  0  0
 40 33  1  0  0  0  0
M  END
>  <minimizedAffinity>
-11.197238

$$$$
