
 OpenBabel11232419043D

 40 45  0  0  1  0  0  0  0  0999 V2000
   39.1910   46.8440   16.8250 C   0  0  0  0  0  0  0  0  0  0  0  0
   40.5160   47.1780   17.0620 C   0  0  0  0  0  3  0  0  0  0  0  0
   41.1940   46.8060   18.1700 N   0  0  0  0  0  0  0  0  0  0  0  0
   40.5350   46.0260   19.0590 C   0  0  0  0  0  3  0  0  0  0  0  0
   39.2240   45.5820   18.8950 C   0  0  0  0  0  0  0  0  0  0  0  0
   38.5580   46.0010   17.7350 C   0  0  0  0  0  3  0  0  0  0  0  0
   38.5500   44.7430   19.8900 C   0  0  0  0  0  0  0  0  0  0  0  0
   37.3660   44.0400   19.5520 C   0  0  0  0  0  3  0  0  0  0  0  0
   36.6810   43.2640   20.4920 C   0  0  0  0  0  3  0  0  0  0  0  0
   37.1980   43.2140   21.7670 C   0  0  0  0  0  0  0  0  0  0  0  0
   38.3570   43.8930   22.1330 C   0  0  0  0  0  0  0  0  0  0  0  0
   39.0520   44.6490   21.2010 C   0  0  0  0  0  3  0  0  0  0  0  0
   38.6630   43.6240   23.5900 C   0  0  2  0  0  3  0  0  0  0  0  0
   37.4900   42.6890   23.9790 C   0  0  0  0  0  0  0  0  0  0  0  0
   37.2750   42.1710   25.0640 O   0  0  0  0  0  0  0  0  0  0  0  0
   36.6950   42.5140   22.8490 N   0  0  0  0  0  0  0  0  0  0  0  0
   35.8670   41.9380   22.8520 H   0  0  0  0  0  0  0  0  0  0  0  0
   38.6840   44.8150   24.4910 C   0  0  0  0  0  0  0  0  0  0  0  0
   39.7080   45.4870   25.1330 C   0  0  0  0  0  3  0  0  0  0  0  0
   39.1210   46.5790   25.8130 C   0  0  0  0  0  3  0  0  0  0  0  0
   37.7770   46.5190   25.5380 C   0  0  0  0  0  3  0  0  0  0  0  0
   37.5010   45.4600   24.7360 O   0  0  0  0  0  0  0  0  0  0  0  0
   38.4460   47.2610   15.7580 O   0  0  0  0  0  0  0  0  0  0  0  0
   37.8840   46.2040   14.9690 C   0  0  0  0  0  2  0  0  0  0  0  0
   36.3520   46.2180   15.1070 C   0  0  1  0  0  3  0  0  0  0  0  0
   35.7440   46.5500   13.7700 N   0  0  0  0  0  4  0  0  0  0  0  0
   36.0870   45.8960   13.0520 H   0  0  0  0  0  0  0  0  0  0  0  0
   35.9820   47.5010   13.4620 H   0  0  0  0  0  0  0  0  0  0  0  0
   34.7190   46.4790   13.8090 H   0  0  0  0  0  0  0  0  0  0  0  0
   35.7900   44.8630   15.5760 C   0  0  0  0  0  2  0  0  0  0  0  0
   34.9680   45.0110   16.8150 C   0  0  0  0  0  0  0  0  0  0  0  0
   34.7430   46.1610   17.5470 C   0  0  0  0  0  3  0  0  0  0  0  0
   33.9210   45.8430   18.6000 N   0  0  0  0  0  0  0  0  0  0  0  0
   33.6150   44.5020   18.5740 C   0  0  0  0  0  0  0  0  0  0  0  0
   32.8170   43.7420   19.4380 C   0  0  0  0  0  3  0  0  0  0  0  0
   32.6540   42.3850   19.1440 C   0  0  0  0  0  3  0  0  0  0  0  0
   33.2630   41.8120   18.0310 C   0  0  0  0  0  3  0  0  0  0  0  0
   34.0600   42.5850   17.1800 C   0  0  0  0  0  3  0  0  0  0  0  0
   34.2440   43.9550   17.4570 C   0  0  0  0  0  0  0  0  0  0  0  0
   33.5620   46.4930   19.2880 H   0  0  0  0  0  0  0  0  0  0  0  0
  1  2  2  0  0  0  0
  1  6  1  0  0  0  0
  2  3  1  0  0  0  0
  3  4  2  0  0  0  0
  5  4  1  0  0  0  0
  5  7  1  0  0  0  0
  6  5  2  0  0  0  0
  7 12  1  0  0  0  0
  8  7  2  0  0  0  0
  8  9  1  0  0  0  0
  9 10  2  0  0  0  0
 10 11  1  0  0  0  0
 10 16  1  0  0  0  0
 11 13  1  0  0  0  0
 12 11  2  0  0  0  0
 13 14  1  0  0  0  0
 13 18  1  1  0  0  0
 14 15  2  0  0  0  0
 16 17  1  0  0  0  0
 16 14  1  0  0  0  0
 18 22  1  0  0  0  0
 18 19  2  0  0  0  0
 19 20  1  0  0  0  0
 21 20  2  0  0  0  0
 22 21  1  0  0  0  0
 23  1  1  0  0  0  0
 24 23  1  0  0  0  0
 25 24  1  6  0  0  0
 25 30  1  0  0  0  0
 26 29  1  0  0  0  0
 26 25  1  0  0  0  0
 27 26  1  0  0  0  0
 28 26  1  0  0  0  0
 30 31  1  0  0  0  0
 31 39  1  0  0  0  0
 31 32  2  0  0  0  0
 32 33  1  0  0  0  0
 33 40  1  0  0  0  0
 34 33  1  0  0  0  0
 34 35  1  0  0  0  0
 36 35  2  0  0  0  0
 37 36  1  0  0  0  0
 38 39  1  0  0  0  0
 38 37  2  0  0  0  0
 39 34  2  0  0  0  0
M  END
>  <minimizedAffinity>
-12.1302633

$$$$
