
 OpenBabel11232419043D

 40 45  0  0  1  0  0  0  0  0999 V2000
   36.7940   44.5510   17.4340 C   0  0  0  0  0  0  0  0  0  0  0  0
   37.3070   45.2740   16.3660 C   0  0  0  0  0  3  0  0  0  0  0  0
   38.4430   46.0010   16.4320 N   0  0  0  0  0  0  0  0  0  0  0  0
   39.1250   45.9670   17.6030 C   0  0  0  0  0  3  0  0  0  0  0  0
   38.7350   45.2300   18.7180 C   0  0  0  0  0  0  0  0  0  0  0  0
   37.5440   44.4990   18.6050 C   0  0  0  0  0  3  0  0  0  0  0  0
   39.5040   45.2290   19.9660 C   0  0  0  0  0  0  0  0  0  0  0  0
   40.9110   45.0570   19.9410 C   0  0  0  0  0  3  0  0  0  0  0  0
   41.6650   45.0130   21.1180 C   0  0  0  0  0  3  0  0  0  0  0  0
   40.9840   45.1350   22.3090 C   0  0  0  0  0  0  0  0  0  0  0  0
   39.6030   45.3020   22.3690 C   0  0  0  0  0  0  0  0  0  0  0  0
   38.8530   45.3670   21.2050 C   0  0  0  0  0  3  0  0  0  0  0  0
   39.1700   45.4160   23.8140 C   0  0  2  0  0  3  0  0  0  0  0  0
   40.5270   45.2830   24.5500 C   0  0  0  0  0  0  0  0  0  0  0  0
   40.7320   45.3210   25.7540 O   0  0  0  0  0  0  0  0  0  0  0  0
   41.5180   45.1230   23.5850 N   0  0  0  0  0  0  0  0  0  0  0  0
   42.4940   45.0190   23.8210 H   0  0  0  0  0  0  0  0  0  0  0  0
   38.2220   44.3700   24.3040 C   0  0  0  0  0  0  0  0  0  0  0  0
   38.0230   43.0480   23.9510 C   0  0  0  0  0  3  0  0  0  0  0  0
   37.0130   42.5430   24.8030 C   0  0  0  0  0  3  0  0  0  0  0  0
   36.6630   43.5800   25.6330 C   0  0  0  0  0  3  0  0  0  0  0  0
   37.3910   44.6880   25.3440 O   0  0  0  0  0  0  0  0  0  0  0  0
   35.6110   43.8670   17.4330 O   0  0  0  0  0  0  0  0  0  0  0  0
   34.7290   44.1920   18.5160 C   0  0  0  0  0  2  0  0  0  0  0  0
   33.5430   45.0140   17.9830 C   0  0  1  0  0  3  0  0  0  0  0  0
   33.7950   46.4720   18.2640 N   0  0  0  0  0  4  0  0  0  0  0  0
   34.7040   46.7580   17.8720 H   0  0  0  0  0  0  0  0  0  0  0  0
   33.8150   46.6750   19.2710 H   0  0  0  0  0  0  0  0  0  0  0  0
   33.0620   47.0560   17.8390 H   0  0  0  0  0  0  0  0  0  0  0  0
   33.3380   44.8380   16.4660 C   0  0  0  0  0  2  0  0  0  0  0  0
   31.8910   44.6910   16.1250 C   0  0  0  0  0  0  0  0  0  0  0  0
   31.1000   45.5650   15.4050 C   0  0  0  0  0  3  0  0  0  0  0  0
   29.8380   45.0280   15.3210 N   0  0  0  0  0  0  0  0  0  0  0  0
   29.7900   43.8230   15.9830 C   0  0  0  0  0  0  0  0  0  0  0  0
   28.7260   42.9310   16.1560 C   0  0  0  0  0  3  0  0  0  0  0  0
   28.9780   41.7480   16.8580 C   0  0  0  0  0  3  0  0  0  0  0  0
   30.2450   41.4700   17.3630 C   0  0  0  0  0  3  0  0  0  0  0  0
   31.2970   42.3740   17.1850 C   0  0  0  0  0  3  0  0  0  0  0  0
   31.0670   43.5760   16.4850 C   0  0  0  0  0  0  0  0  0  0  0  0
   29.0540   45.4340   14.8250 H   0  0  0  0  0  0  0  0  0  0  0  0
  1  6  1  0  0  0  0
  2  3  1  0  0  0  0
  2  1  2  0  0  0  0
  3  4  2  0  0  0  0
  4  5  1  0  0  0  0
  5  7  1  0  0  0  0
  6  5  2  0  0  0  0
  7 12  1  0  0  0  0
  8  7  2  0  0  0  0
  8  9  1  0  0  0  0
  9 10  2  0  0  0  0
 10 11  1  0  0  0  0
 10 16  1  0  0  0  0
 11 13  1  0  0  0  0
 12 11  2  0  0  0  0
 13 18  1  1  0  0  0
 13 14  1  0  0  0  0
 14 15  2  0  0  0  0
 16 17  1  0  0  0  0
 16 14  1  0  0  0  0
 18 22  1  0  0  0  0
 19 18  2  0  0  0  0
 19 20  1  0  0  0  0
 20 21  2  0  0  0  0
 22 21  1  0  0  0  0
 23  1  1  0  0  0  0
 23 24  1  0  0  0  0
 25 30  1  6  0  0  0
 25 26  1  0  0  0  0
 25 24  1  0  0  0  0
 26 28  1  0  0  0  0
 27 26  1  0  0  0  0
 29 26  1  0  0  0  0
 31 30  1  0  0  0  0
 31 39  1  0  0  0  0
 32 31  2  0  0  0  0
 33 32  1  0  0  0  0
 33 34  1  0  0  0  0
 34 35  2  0  0  0  0
 34 39  1  0  0  0  0
 35 36  1  0  0  0  0
 36 37  2  0  0  0  0
 38 37  1  0  0  0  0
 39 38  2  0  0  0  0
 40 33  1  0  0  0  0
M  END
>  <minimizedAffinity>
-11.3213482

$$$$
