
 OpenBabel11232419043D

 40 45  0  0  1  0  0  0  0  0999 V2000
   35.0330   43.8850   17.7770 C   0  0  0  0  0  0  0  0  0  0  0  0
   35.2400   43.1150   18.9120 C   0  0  0  0  0  3  0  0  0  0  0  0
   34.2730   42.3830   19.5060 N   0  0  0  0  0  0  0  0  0  0  0  0
   33.0550   42.3800   18.9120 C   0  0  0  0  0  3  0  0  0  0  0  0
   32.7510   43.0670   17.7390 C   0  0  0  0  0  0  0  0  0  0  0  0
   33.7840   43.8200   17.1650 C   0  0  0  0  0  3  0  0  0  0  0  0
   31.4150   43.0370   17.1370 C   0  0  0  0  0  0  0  0  0  0  0  0
   30.8620   44.2080   16.5610 C   0  0  0  0  0  3  0  0  0  0  0  0
   29.5740   44.2170   16.0150 C   0  0  0  0  0  3  0  0  0  0  0  0
   28.8570   43.0430   16.0670 C   0  0  0  0  0  0  0  0  0  0  0  0
   29.3690   41.8770   16.6290 C   0  0  0  0  0  0  0  0  0  0  0  0
   30.6520   41.8550   17.1530 C   0  0  0  0  0  3  0  0  0  0  0  0
   28.3440   40.7690   16.5180 C   0  0  2  0  0  3  0  0  0  0  0  0
   27.1790   41.5040   15.8080 C   0  0  0  0  0  0  0  0  0  0  0  0
   26.0980   41.0430   15.4730 O   0  0  0  0  0  0  0  0  0  0  0  0
   27.5770   42.8200   15.5920 N   0  0  0  0  0  0  0  0  0  0  0  0
   26.9850   43.4990   15.1370 H   0  0  0  0  0  0  0  0  0  0  0  0
   27.8660   40.1810   17.8050 C   0  0  0  0  0  0  0  0  0  0  0  0
   26.7520   40.4240   18.5890 C   0  0  0  0  0  3  0  0  0  0  0  0
   26.8080   39.5170   19.6730 C   0  0  0  0  0  3  0  0  0  0  0  0
   27.9430   38.7670   19.4830 C   0  0  0  0  0  3  0  0  0  0  0  0
   28.5880   39.1560   18.3550 O   0  0  0  0  0  0  0  0  0  0  0  0
   35.9610   44.6990   17.1890 O   0  0  0  0  0  0  0  0  0  0  0  0
   36.5280   44.1840   15.9770 C   0  0  0  0  0  2  0  0  0  0  0  0
   37.4220   45.2570   15.3310 C   0  0  1  0  0  3  0  0  0  0  0  0
   36.9100   45.5480   13.9450 N   0  0  0  0  0  4  0  0  0  0  0  0
   35.9130   45.8080   13.9810 H   0  0  0  0  0  0  0  0  0  0  0  0
   36.9960   44.7350   13.3230 H   0  0  0  0  0  0  0  0  0  0  0  0
   37.4320   46.3260   13.5210 H   0  0  0  0  0  0  0  0  0  0  0  0
   37.4350   46.5730   16.1330 C   0  0  0  0  0  2  0  0  0  0  0  0
   38.8010   46.8820   16.6520 C   0  0  0  0  0  0  0  0  0  0  0  0
   39.7070   47.7980   16.1530 C   0  0  0  0  0  3  0  0  0  0  0  0
   40.8300   47.7620   16.9440 N   0  0  0  0  0  0  0  0  0  0  0  0
   40.6750   46.8290   17.9440 C   0  0  0  0  0  0  0  0  0  0  0  0
   41.5490   46.4570   18.9720 C   0  0  0  0  0  3  0  0  0  0  0  0
   41.1080   45.4890   19.8790 C   0  0  0  0  0  3  0  0  0  0  0  0
   39.8430   44.9200   19.7630 C   0  0  0  0  0  3  0  0  0  0  0  0
   38.9830   45.3010   18.7280 C   0  0  0  0  0  3  0  0  0  0  0  0
   39.4070   46.2710   17.7970 C   0  0  0  0  0  0  0  0  0  0  0  0
   41.6480   48.3470   16.8360 H   0  0  0  0  0  0  0  0  0  0  0  0
  1  2  1  0  0  0  0
  2  3  2  0  0  0  0
  4  3  1  0  0  0  0
  5  4  2  0  0  0  0
  6  5  1  0  0  0  0
  6  1  2  0  0  0  0
  7 12  1  0  0  0  0
  7  5  1  0  0  0  0
  8  7  2  0  0  0  0
  9 10  2  0  0  0  0
  9  8  1  0  0  0  0
 10 11  1  0  0  0  0
 11 12  2  0  0  0  0
 13 11  1  0  0  0  0
 13 18  1  1  0  0  0
 14 13  1  0  0  0  0
 15 14  2  0  0  0  0
 16 14  1  0  0  0  0
 16 10  1  0  0  0  0
 17 16  1  0  0  0  0
 18 22  1  0  0  0  0
 18 19  2  0  0  0  0
 19 20  1  0  0  0  0
 21 20  2  0  0  0  0
 22 21  1  0  0  0  0
 23  1  1  0  0  0  0
 24 23  1  0  0  0  0
 25 24  1  1  0  0  0
 25 30  1  0  0  0  0
 26 27  1  0  0  0  0
 26 25  1  0  0  0  0
 28 26  1  0  0  0  0
 29 26  1  0  0  0  0
 30 31  1  0  0  0  0
 31 39  1  0  0  0  0
 32 31  2  0  0  0  0
 32 33  1  0  0  0  0
 33 34  1  0  0  0  0
 34 35  1  0  0  0  0
 35 36  2  0  0  0  0
 37 36  1  0  0  0  0
 38 37  2  0  0  0  0
 39 34  2  0  0  0  0
 39 38  1  0  0  0  0
 40 33  1  0  0  0  0
M  END
>  <minimizedAffinity>
-12.2669725

$$$$

 OpenBabel11232419043D

 40 45  0  0  1  0  0  0  0  0999 V2000
   39.1910   46.8440   16.8250 C   0  0  0  0  0  0  0  0  0  0  0  0
   40.5160   47.1780   17.0620 C   0  0  0  0  0  3  0  0  0  0  0  0
   41.1940   46.8060   18.1700 N   0  0  0  0  0  0  0  0  0  0  0  0
   40.5350   46.0260   19.0590 C   0  0  0  0  0  3  0  0  0  0  0  0
   39.2240   45.5820   18.8950 C   0  0  0  0  0  0  0  0  0  0  0  0
   38.5580   46.0010   17.7350 C   0  0  0  0  0  3  0  0  0  0  0  0
   38.5500   44.7430   19.8900 C   0  0  0  0  0  0  0  0  0  0  0  0
   37.3660   44.0400   19.5520 C   0  0  0  0  0  3  0  0  0  0  0  0
   36.6810   43.2640   20.4920 C   0  0  0  0  0  3  0  0  0  0  0  0
   37.1980   43.2140   21.7670 C   0  0  0  0  0  0  0  0  0  0  0  0
   38.3570   43.8930   22.1330 C   0  0  0  0  0  0  0  0  0  0  0  0
   39.0520   44.6490   21.2010 C   0  0  0  0  0  3  0  0  0  0  0  0
   38.6630   43.6240   23.5900 C   0  0  2  0  0  3  0  0  0  0  0  0
   37.4900   42.6890   23.9790 C   0  0  0  0  0  0  0  0  0  0  0  0
   37.2750   42.1710   25.0640 O   0  0  0  0  0  0  0  0  0  0  0  0
   36.6950   42.5140   22.8490 N   0  0  0  0  0  0  0  0  0  0  0  0
   35.8670   41.9380   22.8520 H   0  0  0  0  0  0  0  0  0  0  0  0
   38.6840   44.8150   24.4910 C   0  0  0  0  0  0  0  0  0  0  0  0
   39.7080   45.4870   25.1330 C   0  0  0  0  0  3  0  0  0  0  0  0
   39.1210   46.5790   25.8130 C   0  0  0  0  0  3  0  0  0  0  0  0
   37.7770   46.5190   25.5380 C   0  0  0  0  0  3  0  0  0  0  0  0
   37.5010   45.4600   24.7360 O   0  0  0  0  0  0  0  0  0  0  0  0
   38.4460   47.2610   15.7580 O   0  0  0  0  0  0  0  0  0  0  0  0
   37.8840   46.2040   14.9690 C   0  0  0  0  0  2  0  0  0  0  0  0
   36.3520   46.2180   15.1070 C   0  0  1  0  0  3  0  0  0  0  0  0
   35.7440   46.5500   13.7700 N   0  0  0  0  0  4  0  0  0  0  0  0
   36.0870   45.8960   13.0520 H   0  0  0  0  0  0  0  0  0  0  0  0
   35.9820   47.5010   13.4620 H   0  0  0  0  0  0  0  0  0  0  0  0
   34.7190   46.4790   13.8090 H   0  0  0  0  0  0  0  0  0  0  0  0
   35.7900   44.8630   15.5760 C   0  0  0  0  0  2  0  0  0  0  0  0
   34.9680   45.0110   16.8150 C   0  0  0  0  0  0  0  0  0  0  0  0
   34.7430   46.1610   17.5470 C   0  0  0  0  0  3  0  0  0  0  0  0
   33.9210   45.8430   18.6000 N   0  0  0  0  0  0  0  0  0  0  0  0
   33.6150   44.5020   18.5740 C   0  0  0  0  0  0  0  0  0  0  0  0
   32.8170   43.7420   19.4380 C   0  0  0  0  0  3  0  0  0  0  0  0
   32.6540   42.3850   19.1440 C   0  0  0  0  0  3  0  0  0  0  0  0
   33.2630   41.8120   18.0310 C   0  0  0  0  0  3  0  0  0  0  0  0
   34.0600   42.5850   17.1800 C   0  0  0  0  0  3  0  0  0  0  0  0
   34.2440   43.9550   17.4570 C   0  0  0  0  0  0  0  0  0  0  0  0
   33.5620   46.4930   19.2880 H   0  0  0  0  0  0  0  0  0  0  0  0
  1  2  2  0  0  0  0
  1  6  1  0  0  0  0
  2  3  1  0  0  0  0
  3  4  2  0  0  0  0
  5  4  1  0  0  0  0
  5  7  1  0  0  0  0
  6  5  2  0  0  0  0
  7 12  1  0  0  0  0
  8  7  2  0  0  0  0
  8  9  1  0  0  0  0
  9 10  2  0  0  0  0
 10 11  1  0  0  0  0
 10 16  1  0  0  0  0
 11 13  1  0  0  0  0
 12 11  2  0  0  0  0
 13 14  1  0  0  0  0
 13 18  1  1  0  0  0
 14 15  2  0  0  0  0
 16 17  1  0  0  0  0
 16 14  1  0  0  0  0
 18 22  1  0  0  0  0
 18 19  2  0  0  0  0
 19 20  1  0  0  0  0
 21 20  2  0  0  0  0
 22 21  1  0  0  0  0
 23  1  1  0  0  0  0
 24 23  1  0  0  0  0
 25 24  1  6  0  0  0
 25 30  1  0  0  0  0
 26 29  1  0  0  0  0
 26 25  1  0  0  0  0
 27 26  1  0  0  0  0
 28 26  1  0  0  0  0
 30 31  1  0  0  0  0
 31 39  1  0  0  0  0
 31 32  2  0  0  0  0
 32 33  1  0  0  0  0
 33 40  1  0  0  0  0
 34 33  1  0  0  0  0
 34 35  1  0  0  0  0
 36 35  2  0  0  0  0
 37 36  1  0  0  0  0
 38 39  1  0  0  0  0
 38 37  2  0  0  0  0
 39 34  2  0  0  0  0
M  END
>  <minimizedAffinity>
-12.1302633

$$$$

 OpenBabel11232419043D

 40 45  0  0  1  0  0  0  0  0999 V2000
   37.6830   43.9600   21.9710 C   0  0  0  0  0  0  0  0  0  0  0  0
   37.8400   42.6870   22.5010 C   0  0  0  0  0  3  0  0  0  0  0  0
   37.0840   41.6280   22.1380 N   0  0  0  0  0  0  0  0  0  0  0  0
   36.1620   41.8370   21.1670 C   0  0  0  0  0  3  0  0  0  0  0  0
   35.9600   43.0570   20.5250 C   0  0  0  0  0  0  0  0  0  0  0  0
   36.7610   44.1280   20.9420 C   0  0  0  0  0  3  0  0  0  0  0  0
   34.9450   43.2350   19.4820 C   0  0  0  0  0  0  0  0  0  0  0  0
   33.8330   42.3600   19.4080 C   0  0  0  0  0  3  0  0  0  0  0  0
   32.8710   42.4820   18.4000 C   0  0  0  0  0  3  0  0  0  0  0  0
   33.0510   43.4840   17.4730 C   0  0  0  0  0  0  0  0  0  0  0  0
   34.1330   44.3590   17.5150 C   0  0  0  0  0  0  0  0  0  0  0  0
   35.0800   44.2560   18.5230 C   0  0  0  0  0  3  0  0  0  0  0  0
   34.0330   45.3440   16.3720 C   0  0  2  0  0  3  0  0  0  0  0  0
   32.7250   44.8790   15.6840 C   0  0  0  0  0  0  0  0  0  0  0  0
   32.1860   45.3610   14.6990 O   0  0  0  0  0  0  0  0  0  0  0  0
   32.2330   43.7920   16.4010 N   0  0  0  0  0  0  0  0  0  0  0  0
   31.3810   43.3150   16.1460 H   0  0  0  0  0  0  0  0  0  0  0  0
   35.1570   45.3310   15.3880 C   0  0  0  0  0  0  0  0  0  0  0  0
   36.1850   44.4350   15.1520 C   0  0  0  0  0  3  0  0  0  0  0  0
   36.9170   44.9330   14.0490 C   0  0  0  0  0  3  0  0  0  0  0  0
   36.2900   46.0930   13.6680 C   0  0  0  0  0  3  0  0  0  0  0  0
   35.2210   46.3420   14.4670 O   0  0  0  0  0  0  0  0  0  0  0  0
   38.3720   45.0730   22.3640 O   0  0  0  0  0  0  0  0  0  0  0  0
   39.5890   44.8050   23.0750 C   0  0  0  0  0  2  0  0  0  0  0  0
   40.7770   45.4100   22.3070 C   0  0  1  0  0  3  0  0  0  0  0  0
   42.0190   45.2770   23.1480 N   0  0  0  0  0  4  0  0  0  0  0  0
   42.1610   44.2920   23.4180 H   0  0  0  0  0  0  0  0  0  0  0  0
   41.9640   45.8300   24.0120 H   0  0  0  0  0  0  0  0  0  0  0  0
   42.8470   45.5910   22.6250 H   0  0  0  0  0  0  0  0  0  0  0  0
   41.0230   44.7120   20.9570 C   0  0  0  0  0  2  0  0  0  0  0  0
   41.1610   45.7020   19.8470 C   0  0  0  0  0  0  0  0  0  0  0  0
   42.2220   46.5510   19.5990 C   0  0  0  0  0  3  0  0  0  0  0  0
   41.9320   47.2780   18.4700 N   0  0  0  0  0  0  0  0  0  0  0  0
   40.6940   46.9250   17.9840 C   0  0  0  0  0  0  0  0  0  0  0  0
   39.9970   47.3970   16.8660 C   0  0  0  0  0  3  0  0  0  0  0  0
   38.7520   46.8250   16.5890 C   0  0  0  0  0  3  0  0  0  0  0  0
   38.2280   45.8200   17.3980 C   0  0  0  0  0  3  0  0  0  0  0  0
   38.9360   45.3630   18.5140 C   0  0  0  0  0  3  0  0  0  0  0  0
   40.1920   45.9270   18.8170 C   0  0  0  0  0  0  0  0  0  0  0  0
   42.5400   47.9590   18.0330 H   0  0  0  0  0  0  0  0  0  0  0  0
  1 23  1  0  0  0  0
  1  2  1  0  0  0  0
  3  2  2  0  0  0  0
  4  3  1  0  0  0  0
  5  6  1  0  0  0  0
  5  4  2  0  0  0  0
  6  1  2  0  0  0  0
  7  5  1  0  0  0  0
  8  7  1  0  0  0  0
  9  8  2  0  0  0  0
 10 11  2  0  0  0  0
 10  9  1  0  0  0  0
 11 12  1  0  0  0  0
 12  7  2  0  0  0  0
 13 18  1  6  0  0  0
 13 11  1  0  0  0  0
 14 13  1  0  0  0  0
 14 16  1  0  0  0  0
 15 14  2  0  0  0  0
 16 10  1  0  0  0  0
 17 16  1  0  0  0  0
 19 18  2  0  0  0  0
 20 19  1  0  0  0  0
 21 20  2  0  0  0  0
 21 22  1  0  0  0  0
 22 18  1  0  0  0  0
 23 24  1  0  0  0  0
 25 30  1  6  0  0  0
 25 24  1  0  0  0  0
 25 26  1  0  0  0  0
 26 27  1  0  0  0  0
 26 28  1  0  0  0  0
 29 26  1  0  0  0  0
 31 30  1  0  0  0  0
 32 31  2  0  0  0  0
 33 32  1  0  0  0  0
 34 33  1  0  0  0  0
 34 39  1  0  0  0  0
 35 34  2  0  0  0  0
 36 35  1  0  0  0  0
 36 37  2  0  0  0  0
 37 38  1  0  0  0  0
 38 39  2  0  0  0  0
 39 31  1  0  0  0  0
 40 33  1  0  0  0  0
M  END
>  <minimizedAffinity>
-12.1136837

$$$$

 OpenBabel11232419043D

 40 45  0  0  1  0  0  0  0  0999 V2000
   32.6050   43.3640   17.3930 C   0  0  0  0  0  0  0  0  0  0  0  0
   32.7500   43.3020   18.7710 C   0  0  0  0  0  3  0  0  0  0  0  0
   33.8680   43.6870   19.4230 N   0  0  0  0  0  0  0  0  0  0  0  0
   34.8700   44.2020   18.6700 C   0  0  0  0  0  3  0  0  0  0  0  0
   34.8090   44.3670   17.2880 C   0  0  0  0  0  0  0  0  0  0  0  0
   33.6320   43.9440   16.6550 C   0  0  0  0  0  3  0  0  0  0  0  0
   35.9230   44.9260   16.5160 C   0  0  0  0  0  0  0  0  0  0  0  0
   36.0620   44.6250   15.1380 C   0  0  0  0  0  3  0  0  0  0  0  0
   37.1360   45.1120   14.3860 C   0  0  0  0  0  3  0  0  0  0  0  0
   38.0620   45.8920   15.0410 C   0  0  0  0  0  0  0  0  0  0  0  0
   37.9570   46.2050   16.3930 C   0  0  0  0  0  0  0  0  0  0  0  0
   36.8840   45.7420   17.1390 C   0  0  0  0  0  3  0  0  0  0  0  0
   39.1190   47.0830   16.8020 C   0  0  2  0  0  3  0  0  0  0  0  0
   39.8900   47.2090   15.4630 C   0  0  0  0  0  0  0  0  0  0  0  0
   40.9170   47.8350   15.2480 O   0  0  0  0  0  0  0  0  0  0  0  0
   39.1940   46.4790   14.5040 N   0  0  0  0  0  0  0  0  0  0  0  0
   39.5000   46.4130   13.5440 H   0  0  0  0  0  0  0  0  0  0  0  0
   40.0220   46.5350   17.8590 C   0  0  0  0  0  0  0  0  0  0  0  0
   39.9700   45.3910   18.6340 C   0  0  0  0  0  3  0  0  0  0  0  0
   41.1390   45.3810   19.4290 C   0  0  0  0  0  3  0  0  0  0  0  0
   41.8420   46.5100   19.0870 C   0  0  0  0  0  3  0  0  0  0  0  0
   41.1790   47.2140   18.1350 O   0  0  0  0  0  0  0  0  0  0  0  0
   31.5230   42.9150   16.6880 O   0  0  0  0  0  0  0  0  0  0  0  0
   30.4580   43.8670   16.5530 C   0  0  0  0  0  2  0  0  0  0  0  0
   29.1060   43.1330   16.5880 C   0  0  1  0  0  3  0  0  0  0  0  0
   28.1340   43.8610   15.6970 N   0  0  0  0  0  4  0  0  0  0  0  0
   28.5260   43.9580   14.7490 H   0  0  0  0  0  0  0  0  0  0  0  0
   27.9230   44.8040   16.0440 H   0  0  0  0  0  0  0  0  0  0  0  0
   27.2480   43.3440   15.6280 H   0  0  0  0  0  0  0  0  0  0  0  0
   29.2150   41.6740   16.1050 C   0  0  0  0  0  2  0  0  0  0  0  0
   28.6880   40.7210   17.1270 C   0  0  0  0  0  0  0  0  0  0  0  0
   27.3690   40.3940   17.3780 C   0  0  0  0  0  3  0  0  0  0  0  0
   27.3450   39.4690   18.3930 N   0  0  0  0  0  0  0  0  0  0  0  0
   28.6250   39.1940   18.8150 C   0  0  0  0  0  0  0  0  0  0  0  0
   29.0780   38.3220   19.8130 C   0  0  0  0  0  3  0  0  0  0  0  0
   30.4580   38.2190   20.0060 C   0  0  0  0  0  3  0  0  0  0  0  0
   31.3490   38.9570   19.2310 C   0  0  0  0  0  3  0  0  0  0  0  0
   30.8800   39.8260   18.2410 C   0  0  0  0  0  3  0  0  0  0  0  0
   29.4910   39.9520   18.0300 C   0  0  0  0  0  0  0  0  0  0  0  0
   26.5160   39.0250   18.7680 H   0  0  0  0  0  0  0  0  0  0  0  0
  1  2  1  0  0  0  0
  2  3  2  0  0  0  0
  4  3  1  0  0  0  0
  5  4  2  0  0  0  0
  6  5  1  0  0  0  0
  6  1  2  0  0  0  0
  7 12  1  0  0  0  0
  7  5  1  0  0  0  0
  8  7  2  0  0  0  0
  9 10  2  0  0  0  0
  9  8  1  0  0  0  0
 10 11  1  0  0  0  0
 11 13  1  0  0  0  0
 11 12  2  0  0  0  0
 13 18  1  1  0  0  0
 14 13  1  0  0  0  0
 15 14  2  0  0  0  0
 16 10  1  0  0  0  0
 16 14  1  0  0  0  0
 17 16  1  0  0  0  0
 18 22  1  0  0  0  0
 18 19  2  0  0  0  0
 19 20  1  0  0  0  0
 21 20  2  0  0  0  0
 22 21  1  0  0  0  0
 23  1  1  0  0  0  0
 24 25  1  0  0  0  0
 24 23  1  0  0  0  0
 25 30  1  6  0  0  0
 26 28  1  0  0  0  0
 26 25  1  0  0  0  0
 27 26  1  0  0  0  0
 29 26  1  0  0  0  0
 30 31  1  0  0  0  0
 31 32  2  0  0  0  0
 31 39  1  0  0  0  0
 32 33  1  0  0  0  0
 33 40  1  0  0  0  0
 33 34  1  0  0  0  0
 34 35  1  0  0  0  0
 35 36  2  0  0  0  0
 37 36  1  0  0  0  0
 38 37  2  0  0  0  0
 39 38  1  0  0  0  0
 39 34  2  0  0  0  0
M  END
>  <minimizedAffinity>
-11.9423676

$$$$

 OpenBabel11232419043D

 40 45  0  0  1  0  0  0  0  0999 V2000
   40.9450   45.5360   22.8500 C   0  0  0  0  0  0  0  0  0  0  0  0
   41.7270   44.3910   22.9050 C   0  0  0  0  0  3  0  0  0  0  0  0
   41.9630   43.5950   21.8400 N   0  0  0  0  0  0  0  0  0  0  0  0
   41.4340   43.9840   20.6550 C   0  0  0  0  0  3  0  0  0  0  0  0
   40.6850   45.1440   20.4720 C   0  0  0  0  0  0  0  0  0  0  0  0
   40.4590   45.9330   21.6080 C   0  0  0  0  0  3  0  0  0  0  0  0
   40.1290   45.5200   19.1680 C   0  0  0  0  0  0  0  0  0  0  0  0
   40.6840   46.6010   18.4380 C   0  0  0  0  0  3  0  0  0  0  0  0
   40.1480   47.0070   17.2110 C   0  0  0  0  0  3  0  0  0  0  0  0
   39.0520   46.3190   16.7420 C   0  0  0  0  0  0  0  0  0  0  0  0
   38.4810   45.2550   17.4350 C   0  0  0  0  0  0  0  0  0  0  0  0
   39.0190   44.8350   18.6420 C   0  0  0  0  0  3  0  0  0  0  0  0
   37.3080   44.7110   16.6510 C   0  0  2  0  0  3  0  0  0  0  0  0
   37.3130   45.6410   15.4120 C   0  0  0  0  0  0  0  0  0  0  0  0
   36.5570   45.6120   14.4530 O   0  0  0  0  0  0  0  0  0  0  0  0
   38.3640   46.5410   15.5620 N   0  0  0  0  0  0  0  0  0  0  0  0
   38.5750   47.2500   14.8750 H   0  0  0  0  0  0  0  0  0  0  0  0
   35.9770   44.7720   17.3270 C   0  0  0  0  0  0  0  0  0  0  0  0
   35.1390   43.7960   17.8370 C   0  0  0  0  0  3  0  0  0  0  0  0
   34.0310   44.4640   18.4070 C   0  0  0  0  0  3  0  0  0  0  0  0
   34.2600   45.8060   18.2250 C   0  0  0  0  0  3  0  0  0  0  0  0
   35.4360   46.0040   17.5770 O   0  0  0  0  0  0  0  0  0  0  0  0
   40.6190   46.3270   23.9160 O   0  0  0  0  0  0  0  0  0  0  0  0
   40.6620   45.6650   25.1880 C   0  0  0  0  0  2  0  0  0  0  0  0
   39.2630   45.6920   25.8290 C   0  0  1  0  0  3  0  0  0  0  0  0
   39.1170   46.9610   26.6260 N   0  0  0  0  0  4  0  0  0  0  0  0
   39.3130   47.7790   26.0310 H   0  0  0  0  0  0  0  0  0  0  0  0
   39.7640   46.9950   27.4230 H   0  0  0  0  0  0  0  0  0  0  0  0
   38.1600   47.0510   26.9930 H   0  0  0  0  0  0  0  0  0  0  0  0
   38.1350   45.6390   24.7810 C   0  0  0  0  0  2  0  0  0  0  0  0
   37.6770   44.2380   24.5420 C   0  0  0  0  0  0  0  0  0  0  0  0
   37.4700   43.2450   25.4800 C   0  0  0  0  0  3  0  0  0  0  0  0
   37.0400   42.1190   24.8210 N   0  0  0  0  0  0  0  0  0  0  0  0
   36.9730   42.3570   23.4680 C   0  0  0  0  0  0  0  0  0  0  0  0
   36.5890   41.5110   22.4210 C   0  0  0  0  0  3  0  0  0  0  0  0
   36.5860   42.0410   21.1270 C   0  0  0  0  0  3  0  0  0  0  0  0
   36.9510   43.3630   20.8920 C   0  0  0  0  0  3  0  0  0  0  0  0
   37.3360   44.1940   21.9490 C   0  0  0  0  0  3  0  0  0  0  0  0
   37.3520   43.6830   23.2620 C   0  0  0  0  0  0  0  0  0  0  0  0
   36.7800   41.2420   25.2560 H   0  0  0  0  0  0  0  0  0  0  0  0
  1  2  1  0  0  0  0
  1 23  1  0  0  0  0
  3  2  2  0  0  0  0
  4  3  1  0  0  0  0
  5  4  2  0  0  0  0
  5  6  1  0  0  0  0
  6  1  2  0  0  0  0
  7  5  1  0  0  0  0
  8  7  2  0  0  0  0
  9  8  1  0  0  0  0
 10  9  2  0  0  0  0
 10 11  1  0  0  0  0
 11 12  2  0  0  0  0
 12  7  1  0  0  0  0
 13 18  1  1  0  0  0
 13 11  1  0  0  0  0
 14 16  1  0  0  0  0
 14 13  1  0  0  0  0
 15 14  2  0  0  0  0
 16 10  1  0  0  0  0
 17 16  1  0  0  0  0
 18 22  1  0  0  0  0
 18 19  2  0  0  0  0
 19 20  1  0  0  0  0
 21 20  2  0  0  0  0
 22 21  1  0  0  0  0
 23 24  1  0  0  0  0
 24 25  1  0  0  0  0
 25 30  1  6  0  0  0
 25 26  1  0  0  0  0
 26 29  1  0  0  0  0
 26 28  1  0  0  0  0
 27 26  1  0  0  0  0
 31 30  1  0  0  0  0
 31 32  2  0  0  0  0
 33 40  1  0  0  0  0
 33 32  1  0  0  0  0
 34 33  1  0  0  0  0
 35 34  2  0  0  0  0
 36 35  1  0  0  0  0
 37 36  2  0  0  0  0
 37 38  1  0  0  0  0
 38 39  2  0  0  0  0
 39 34  1  0  0  0  0
 39 31  1  0  0  0  0
M  END
>  <minimizedAffinity>
-11.8764668

$$$$

 OpenBabel11232419043D

 40 45  0  0  1  0  0  0  0  0999 V2000
   37.3560   43.4970   21.8500 C   0  0  0  0  0  0  0  0  0  0  0  0
   37.1500   42.1470   22.0990 C   0  0  0  0  0  3  0  0  0  0  0  0
   36.2330   41.3990   21.4490 N   0  0  0  0  0  0  0  0  0  0  0  0
   35.5220   42.0130   20.4720 C   0  0  0  0  0  3  0  0  0  0  0  0
   35.6880   43.3440   20.0980 C   0  0  0  0  0  0  0  0  0  0  0  0
   36.6440   44.0830   20.8080 C   0  0  0  0  0  3  0  0  0  0  0  0
   34.8900   43.9660   19.0370 C   0  0  0  0  0  0  0  0  0  0  0  0
   34.9480   45.3660   18.8230 C   0  0  0  0  0  3  0  0  0  0  0  0
   34.1680   45.9900   17.8440 C   0  0  0  0  0  3  0  0  0  0  0  0
   33.3310   45.1900   17.0990 C   0  0  0  0  0  0  0  0  0  0  0  0
   33.2470   43.8130   17.2850 C   0  0  0  0  0  0  0  0  0  0  0  0
   34.0320   43.1860   18.2400 C   0  0  0  0  0  3  0  0  0  0  0  0
   32.2520   43.2290   16.3070 C   0  0  2  0  0  3  0  0  0  0  0  0
   31.7920   44.4990   15.5460 C   0  0  0  0  0  0  0  0  0  0  0  0
   30.9880   44.5710   14.6300 O   0  0  0  0  0  0  0  0  0  0  0  0
   32.4780   45.5850   16.0840 N   0  0  0  0  0  0  0  0  0  0  0  0
   32.3500   46.5280   15.7470 H   0  0  0  0  0  0  0  0  0  0  0  0
   31.0690   42.5370   16.9010 C   0  0  0  0  0  0  0  0  0  0  0  0
   29.7610   42.9320   17.1120 C   0  0  0  0  0  3  0  0  0  0  0  0
   29.0820   41.8230   17.6690 C   0  0  0  0  0  3  0  0  0  0  0  0
   30.0090   40.8140   17.7550 C   0  0  0  0  0  3  0  0  0  0  0  0
   31.2130   41.2320   17.2900 O   0  0  0  0  0  0  0  0  0  0  0  0
   38.2170   44.3070   22.5360 O   0  0  0  0  0  0  0  0  0  0  0  0
   39.6070   44.0350   22.3080 C   0  0  0  0  0  2  0  0  0  0  0  0
   40.2400   45.2060   21.5370 C   0  0  1  0  0  3  0  0  0  0  0  0
   41.2110   45.9160   22.4420 N   0  0  0  0  0  4  0  0  0  0  0  0
   41.9010   45.2490   22.8180 H   0  0  0  0  0  0  0  0  0  0  0  0
   40.7420   46.3600   23.2410 H   0  0  0  0  0  0  0  0  0  0  0  0
   41.7180   46.6490   21.9280 H   0  0  0  0  0  0  0  0  0  0  0  0
   40.9970   44.7410   20.2770 C   0  0  0  0  0  2  0  0  0  0  0  0
   40.9950   45.7970   19.2200 C   0  0  0  0  0  0  0  0  0  0  0  0
   41.9690   46.7450   18.9710 C   0  0  0  0  0  3  0  0  0  0  0  0
   41.5620   47.5030   17.9000 N   0  0  0  0  0  0  0  0  0  0  0  0
   40.3340   47.0720   17.4530 C   0  0  0  0  0  0  0  0  0  0  0  0
   39.5440   47.5410   16.3980 C   0  0  0  0  0  3  0  0  0  0  0  0
   38.3370   46.8800   16.1480 C   0  0  0  0  0  3  0  0  0  0  0  0
   37.9400   45.7930   16.9220 C   0  0  0  0  0  3  0  0  0  0  0  0
   38.7400   45.3400   17.9760 C   0  0  0  0  0  3  0  0  0  0  0  0
   39.9590   45.9930   18.2510 C   0  0  0  0  0  0  0  0  0  0  0  0
   42.0890   48.2540   17.4740 H   0  0  0  0  0  0  0  0  0  0  0  0
  1  2  1  0  0  0  0
  1 23  1  0  0  0  0
  3  2  2  0  0  0  0
  4  3  1  0  0  0  0
  5  4  2  0  0  0  0
  5  6  1  0  0  0  0
  6  1  2  0  0  0  0
  7  5  1  0  0  0  0
  8  7  1  0  0  0  0
  9  8  2  0  0  0  0
 10 11  2  0  0  0  0
 10  9  1  0  0  0  0
 11 12  1  0  0  0  0
 12  7  2  0  0  0  0
 13 18  1  1  0  0  0
 13 11  1  0  0  0  0
 14 16  1  0  0  0  0
 14 13  1  0  0  0  0
 15 14  2  0  0  0  0
 16 10  1  0  0  0  0
 17 16  1  0  0  0  0
 18 19  2  0  0  0  0
 18 22  1  0  0  0  0
 19 20  1  0  0  0  0
 20 21  2  0  0  0  0
 22 21  1  0  0  0  0
 24 23  1  0  0  0  0
 25 30  1  6  0  0  0
 25 24  1  0  0  0  0
 25 26  1  0  0  0  0
 26 27  1  0  0  0  0
 26 28  1  0  0  0  0
 29 26  1  0  0  0  0
 31 30  1  0  0  0  0
 32 31  2  0  0  0  0
 33 32  1  0  0  0  0
 34 33  1  0  0  0  0
 34 39  1  0  0  0  0
 35 34  2  0  0  0  0
 36 35  1  0  0  0  0
 36 37  2  0  0  0  0
 37 38  1  0  0  0  0
 38 39  2  0  0  0  0
 39 31  1  0  0  0  0
 40 33  1  0  0  0  0
M  END
>  <minimizedAffinity>
-11.515852

$$$$

 OpenBabel11232419043D

 40 45  0  0  1  0  0  0  0  0999 V2000
   36.7940   44.5510   17.4340 C   0  0  0  0  0  0  0  0  0  0  0  0
   37.3070   45.2740   16.3660 C   0  0  0  0  0  3  0  0  0  0  0  0
   38.4430   46.0010   16.4320 N   0  0  0  0  0  0  0  0  0  0  0  0
   39.1250   45.9670   17.6030 C   0  0  0  0  0  3  0  0  0  0  0  0
   38.7350   45.2300   18.7180 C   0  0  0  0  0  0  0  0  0  0  0  0
   37.5440   44.4990   18.6050 C   0  0  0  0  0  3  0  0  0  0  0  0
   39.5040   45.2290   19.9660 C   0  0  0  0  0  0  0  0  0  0  0  0
   40.9110   45.0570   19.9410 C   0  0  0  0  0  3  0  0  0  0  0  0
   41.6650   45.0130   21.1180 C   0  0  0  0  0  3  0  0  0  0  0  0
   40.9840   45.1350   22.3090 C   0  0  0  0  0  0  0  0  0  0  0  0
   39.6030   45.3020   22.3690 C   0  0  0  0  0  0  0  0  0  0  0  0
   38.8530   45.3670   21.2050 C   0  0  0  0  0  3  0  0  0  0  0  0
   39.1700   45.4160   23.8140 C   0  0  2  0  0  3  0  0  0  0  0  0
   40.5270   45.2830   24.5500 C   0  0  0  0  0  0  0  0  0  0  0  0
   40.7320   45.3210   25.7540 O   0  0  0  0  0  0  0  0  0  0  0  0
   41.5180   45.1230   23.5850 N   0  0  0  0  0  0  0  0  0  0  0  0
   42.4940   45.0190   23.8210 H   0  0  0  0  0  0  0  0  0  0  0  0
   38.2220   44.3700   24.3040 C   0  0  0  0  0  0  0  0  0  0  0  0
   38.0230   43.0480   23.9510 C   0  0  0  0  0  3  0  0  0  0  0  0
   37.0130   42.5430   24.8030 C   0  0  0  0  0  3  0  0  0  0  0  0
   36.6630   43.5800   25.6330 C   0  0  0  0  0  3  0  0  0  0  0  0
   37.3910   44.6880   25.3440 O   0  0  0  0  0  0  0  0  0  0  0  0
   35.6110   43.8670   17.4330 O   0  0  0  0  0  0  0  0  0  0  0  0
   34.7290   44.1920   18.5160 C   0  0  0  0  0  2  0  0  0  0  0  0
   33.5430   45.0140   17.9830 C   0  0  1  0  0  3  0  0  0  0  0  0
   33.7950   46.4720   18.2640 N   0  0  0  0  0  4  0  0  0  0  0  0
   34.7040   46.7580   17.8720 H   0  0  0  0  0  0  0  0  0  0  0  0
   33.8150   46.6750   19.2710 H   0  0  0  0  0  0  0  0  0  0  0  0
   33.0620   47.0560   17.8390 H   0  0  0  0  0  0  0  0  0  0  0  0
   33.3380   44.8380   16.4660 C   0  0  0  0  0  2  0  0  0  0  0  0
   31.8910   44.6910   16.1250 C   0  0  0  0  0  0  0  0  0  0  0  0
   31.1000   45.5650   15.4050 C   0  0  0  0  0  3  0  0  0  0  0  0
   29.8380   45.0280   15.3210 N   0  0  0  0  0  0  0  0  0  0  0  0
   29.7900   43.8230   15.9830 C   0  0  0  0  0  0  0  0  0  0  0  0
   28.7260   42.9310   16.1560 C   0  0  0  0  0  3  0  0  0  0  0  0
   28.9780   41.7480   16.8580 C   0  0  0  0  0  3  0  0  0  0  0  0
   30.2450   41.4700   17.3630 C   0  0  0  0  0  3  0  0  0  0  0  0
   31.2970   42.3740   17.1850 C   0  0  0  0  0  3  0  0  0  0  0  0
   31.0670   43.5760   16.4850 C   0  0  0  0  0  0  0  0  0  0  0  0
   29.0540   45.4340   14.8250 H   0  0  0  0  0  0  0  0  0  0  0  0
  1  6  1  0  0  0  0
  2  3  1  0  0  0  0
  2  1  2  0  0  0  0
  3  4  2  0  0  0  0
  4  5  1  0  0  0  0
  5  7  1  0  0  0  0
  6  5  2  0  0  0  0
  7 12  1  0  0  0  0
  8  7  2  0  0  0  0
  8  9  1  0  0  0  0
  9 10  2  0  0  0  0
 10 11  1  0  0  0  0
 10 16  1  0  0  0  0
 11 13  1  0  0  0  0
 12 11  2  0  0  0  0
 13 18  1  1  0  0  0
 13 14  1  0  0  0  0
 14 15  2  0  0  0  0
 16 17  1  0  0  0  0
 16 14  1  0  0  0  0
 18 22  1  0  0  0  0
 19 18  2  0  0  0  0
 19 20  1  0  0  0  0
 20 21  2  0  0  0  0
 22 21  1  0  0  0  0
 23  1  1  0  0  0  0
 23 24  1  0  0  0  0
 25 30  1  6  0  0  0
 25 26  1  0  0  0  0
 25 24  1  0  0  0  0
 26 28  1  0  0  0  0
 27 26  1  0  0  0  0
 29 26  1  0  0  0  0
 31 30  1  0  0  0  0
 31 39  1  0  0  0  0
 32 31  2  0  0  0  0
 33 32  1  0  0  0  0
 33 34  1  0  0  0  0
 34 35  2  0  0  0  0
 34 39  1  0  0  0  0
 35 36  1  0  0  0  0
 36 37  2  0  0  0  0
 38 37  1  0  0  0  0
 39 38  2  0  0  0  0
 40 33  1  0  0  0  0
M  END
>  <minimizedAffinity>
-11.3213482

$$$$

 OpenBabel11232419043D

 40 45  0  0  1  0  0  0  0  0999 V2000
   36.2600   45.6650   15.4760 C   0  0  0  0  0  0  0  0  0  0  0  0
   36.9800   46.1490   14.3930 C   0  0  0  0  0  3  0  0  0  0  0  0
   38.2870   46.4820   14.4530 N   0  0  0  0  0  0  0  0  0  0  0  0
   38.9180   46.2790   15.6340 C   0  0  0  0  0  3  0  0  0  0  0  0
   38.3100   45.7440   16.7680 C   0  0  0  0  0  0  0  0  0  0  0  0
   36.9500   45.4220   16.6600 C   0  0  0  0  0  3  0  0  0  0  0  0
   39.0350   45.5470   18.0270 C   0  0  0  0  0  0  0  0  0  0  0  0
   40.4510   45.5890   18.0530 C   0  0  0  0  0  3  0  0  0  0  0  0
   41.1690   45.3650   19.2330 C   0  0  0  0  0  3  0  0  0  0  0  0
   40.4440   45.0930   20.3710 C   0  0  0  0  0  0  0  0  0  0  0  0
   39.0530   45.0420   20.3800 C   0  0  0  0  0  0  0  0  0  0  0  0
   38.3350   45.2830   19.2180 C   0  0  0  0  0  3  0  0  0  0  0  0
   38.5660   44.7350   21.7790 C   0  0  2  0  0  3  0  0  0  0  0  0
   39.9060   44.6210   22.5480 C   0  0  0  0  0  0  0  0  0  0  0  0
   40.0680   44.3910   23.7370 O   0  0  0  0  0  0  0  0  0  0  0  0
   40.9370   44.8450   21.6390 N   0  0  0  0  0  0  0  0  0  0  0  0
   41.9100   44.8260   21.9070 H   0  0  0  0  0  0  0  0  0  0  0  0
   37.7770   43.4770   21.9420 C   0  0  0  0  0  0  0  0  0  0  0  0
   37.5430   42.6530   23.0280 C   0  0  0  0  0  3  0  0  0  0  0  0
   36.6710   41.6310   22.5870 C   0  0  0  0  0  3  0  0  0  0  0  0
   36.4140   41.8950   21.2640 C   0  0  0  0  0  3  0  0  0  0  0  0
   37.0740   43.0110   20.8640 O   0  0  0  0  0  0  0  0  0  0  0  0
   34.9220   45.3890   15.4800 O   0  0  0  0  0  0  0  0  0  0  0  0
   34.4140   44.8970   16.7280 C   0  0  0  0  0  2  0  0  0  0  0  0
   33.6280   43.5970   16.4870 C   0  0  1  0  0  3  0  0  0  0  0  0
   34.5710   42.4290   16.6030 N   0  0  0  0  0  4  0  0  0  0  0  0
   35.0580   42.4540   17.5110 H   0  0  0  0  0  0  0  0  0  0  0  0
   35.2870   42.4350   15.8670 H   0  0  0  0  0  0  0  0  0  0  0  0
   34.0570   41.5400   16.5360 H   0  0  0  0  0  0  0  0  0  0  0  0
   32.4830   43.4040   17.5010 C   0  0  0  0  0  2  0  0  0  0  0  0
   31.1470   43.4960   16.8390 C   0  0  0  0  0  0  0  0  0  0  0  0
   30.6370   44.5520   16.1090 C   0  0  0  0  0  3  0  0  0  0  0  0
   29.3800   44.2030   15.6760 N   0  0  0  0  0  0  0  0  0  0  0  0
   29.0590   42.9410   16.1210 C   0  0  0  0  0  0  0  0  0  0  0  0
   27.8980   42.1840   15.9230 C   0  0  0  0  0  3  0  0  0  0  0  0
   27.8610   40.9000   16.4730 C   0  0  0  0  0  3  0  0  0  0  0  0
   28.9420   40.3930   17.1890 C   0  0  0  0  0  3  0  0  0  0  0  0
   30.0930   41.1640   17.3800 C   0  0  0  0  0  3  0  0  0  0  0  0
   30.1530   42.4650   16.8400 C   0  0  0  0  0  0  0  0  0  0  0  0
   28.7780   44.7700   15.0930 H   0  0  0  0  0  0  0  0  0  0  0  0
  1 23  1  0  0  0  0
  1  6  1  0  0  0  0
  2  3  1  0  0  0  0
  2  1  2  0  0  0  0
  3  4  2  0  0  0  0
  4  5  1  0  0  0  0
  5  7  1  0  0  0  0
  6  5  2  0  0  0  0
  7  8  2  0  0  0  0
  7 12  1  0  0  0  0
  8  9  1  0  0  0  0
  9 10  2  0  0  0  0
 10 11  1  0  0  0  0
 10 16  1  0  0  0  0
 11 13  1  0  0  0  0
 12 11  2  0  0  0  0
 13 18  1  6  0  0  0
 13 14  1  0  0  0  0
 14 15  2  0  0  0  0
 16 17  1  0  0  0  0
 16 14  1  0  0  0  0
 18 19  2  0  0  0  0
 20 19  1  0  0  0  0
 21 20  2  0  0  0  0
 22 21  1  0  0  0  0
 22 18  1  0  0  0  0
 23 24  1  0  0  0  0
 25 26  1  0  0  0  0
 25 24  1  1  0  0  0
 25 30  1  0  0  0  0
 26 27  1  0  0  0  0
 28 26  1  0  0  0  0
 29 26  1  0  0  0  0
 31 39  1  0  0  0  0
 31 30  1  0  0  0  0
 32 31  2  0  0  0  0
 33 32  1  0  0  0  0
 33 34  1  0  0  0  0
 34 39  1  0  0  0  0
 35 34  2  0  0  0  0
 35 36  1  0  0  0  0
 36 37  2  0  0  0  0
 37 38  1  0  0  0  0
 39 38  2  0  0  0  0
 40 33  1  0  0  0  0
M  END
>  <minimizedAffinity>
-11.2327623

$$$$

 OpenBabel11232419043D

 40 45  0  0  1  0  0  0  0  0999 V2000
   36.1510   43.4170   20.0760 C   0  0  0  0  0  0  0  0  0  0  0  0
   35.7200   42.1590   20.4740 C   0  0  0  0  0  3  0  0  0  0  0  0
   36.2180   41.5010   21.5430 N   0  0  0  0  0  0  0  0  0  0  0  0
   37.1550   42.1470   22.2780 C   0  0  0  0  0  3  0  0  0  0  0  0
   37.6180   43.4330   22.0070 C   0  0  0  0  0  0  0  0  0  0  0  0
   37.0780   44.0720   20.8810 C   0  0  0  0  0  3  0  0  0  0  0  0
   38.6380   44.0890   22.8290 C   0  0  0  0  0  0  0  0  0  0  0  0
   39.7250   43.3440   23.3530 C   0  0  0  0  0  3  0  0  0  0  0  0
   40.6900   43.9360   24.1740 C   0  0  0  0  0  3  0  0  0  0  0  0
   40.5400   45.2740   24.4620 C   0  0  0  0  0  0  0  0  0  0  0  0
   39.4840   46.0340   23.9670 C   0  0  0  0  0  0  0  0  0  0  0  0
   38.5340   45.4580   23.1370 C   0  0  0  0  0  3  0  0  0  0  0  0
   39.6140   47.4600   24.4540 C   0  0  2  0  0  3  0  0  0  0  0  0
   40.9080   47.3740   25.3020 C   0  0  0  0  0  0  0  0  0  0  0  0
   41.4620   48.2750   25.9140 O   0  0  0  0  0  0  0  0  0  0  0  0
   41.3670   46.0610   25.2420 N   0  0  0  0  0  0  0  0  0  0  0  0
   42.2060   45.7570   25.7160 H   0  0  0  0  0  0  0  0  0  0  0  0
   38.4900   47.9750   25.2930 C   0  0  0  0  0  0  0  0  0  0  0  0
   37.5480   48.9660   25.0890 C   0  0  0  0  0  3  0  0  0  0  0  0
   36.7020   48.9670   26.2230 C   0  0  0  0  0  3  0  0  0  0  0  0
   37.1670   47.9720   27.0460 C   0  0  0  0  0  3  0  0  0  0  0  0
   38.2460   47.3620   26.4930 O   0  0  0  0  0  0  0  0  0  0  0  0
   35.7290   44.0840   18.9600 O   0  0  0  0  0  0  0  0  0  0  0  0
   36.0030   43.4140   17.7220 C   0  0  0  0  0  2  0  0  0  0  0  0
   36.9050   44.3010   16.8460 C   0  0  1  0  0  3  0  0  0  0  0  0
   36.3830   44.2810   15.4340 N   0  0  0  0  0  4  0  0  0  0  0  0
   35.3910   44.5580   15.4170 H   0  0  0  0  0  0  0  0  0  0  0  0
   36.4520   43.3480   15.0090 H   0  0  0  0  0  0  0  0  0  0  0  0
   36.9110   44.9360   14.8420 H   0  0  0  0  0  0  0  0  0  0  0  0
   36.9440   45.7630   17.3320 C   0  0  0  0  0  2  0  0  0  0  0  0
   38.3210   46.3330   17.2360 C   0  0  0  0  0  0  0  0  0  0  0  0
   38.8290   47.1530   16.2480 C   0  0  0  0  0  3  0  0  0  0  0  0
   40.1330   47.4470   16.5660 N   0  0  0  0  0  0  0  0  0  0  0  0
   40.4870   46.8230   17.7400 C   0  0  0  0  0  0  0  0  0  0  0  0
   41.7000   46.8380   18.4390 C   0  0  0  0  0  3  0  0  0  0  0  0
   41.7640   46.1260   19.6400 C   0  0  0  0  0  3  0  0  0  0  0  0
   40.6600   45.4300   20.1230 C   0  0  0  0  0  3  0  0  0  0  0  0
   39.4560   45.4230   19.4110 C   0  0  0  0  0  3  0  0  0  0  0  0
   39.3670   46.1280   18.1930 C   0  0  0  0  0  0  0  0  0  0  0  0
   40.7480   48.0540   16.0380 H   0  0  0  0  0  0  0  0  0  0  0  0
  1  2  2  0  0  0  0
  1  6  1  0  0  0  0
  2  3  1  0  0  0  0
  3  4  2  0  0  0  0
  5  4  1  0  0  0  0
  5  7  1  0  0  0  0
  6  5  2  0  0  0  0
  7 12  2  0  0  0  0
  7  8  1  0  0  0  0
  8  9  2  0  0  0  0
  9 10  1  0  0  0  0
 10 16  1  0  0  0  0
 11 13  1  0  0  0  0
 11 10  2  0  0  0  0
 12 11  1  0  0  0  0
 13 18  1  1  0  0  0
 13 14  1  0  0  0  0
 14 15  2  0  0  0  0
 16 14  1  0  0  0  0
 16 17  1  0  0  0  0
 18 22  1  0  0  0  0
 19 18  2  0  0  0  0
 19 20  1  0  0  0  0
 20 21  2  0  0  0  0
 22 21  1  0  0  0  0
 23  1  1  0  0  0  0
 24 23  1  0  0  0  0
 25 30  1  1  0  0  0
 25 24  1  0  0  0  0
 26 25  1  0  0  0  0
 27 26  1  0  0  0  0
 28 26  1  0  0  0  0
 29 26  1  0  0  0  0
 31 30  1  0  0  0  0
 31 39  1  0  0  0  0
 32 33  1  0  0  0  0
 32 31  2  0  0  0  0
 33 34  1  0  0  0  0
 34 39  2  0  0  0  0
 34 35  1  0  0  0  0
 35 36  2  0  0  0  0
 36 37  1  0  0  0  0
 38 37  2  0  0  0  0
 39 38  1  0  0  0  0
 40 33  1  0  0  0  0
M  END
>  <minimizedAffinity>
-11.197238

$$$$
