
 OpenBabel11232419043D

 40 45  0  0  1  0  0  0  0  0999 V2000
   37.3560   43.4970   21.8500 C   0  0  0  0  0  0  0  0  0  0  0  0
   37.1500   42.1470   22.0990 C   0  0  0  0  0  3  0  0  0  0  0  0
   36.2330   41.3990   21.4490 N   0  0  0  0  0  0  0  0  0  0  0  0
   35.5220   42.0130   20.4720 C   0  0  0  0  0  3  0  0  0  0  0  0
   35.6880   43.3440   20.0980 C   0  0  0  0  0  0  0  0  0  0  0  0
   36.6440   44.0830   20.8080 C   0  0  0  0  0  3  0  0  0  0  0  0
   34.8900   43.9660   19.0370 C   0  0  0  0  0  0  0  0  0  0  0  0
   34.9480   45.3660   18.8230 C   0  0  0  0  0  3  0  0  0  0  0  0
   34.1680   45.9900   17.8440 C   0  0  0  0  0  3  0  0  0  0  0  0
   33.3310   45.1900   17.0990 C   0  0  0  0  0  0  0  0  0  0  0  0
   33.2470   43.8130   17.2850 C   0  0  0  0  0  0  0  0  0  0  0  0
   34.0320   43.1860   18.2400 C   0  0  0  0  0  3  0  0  0  0  0  0
   32.2520   43.2290   16.3070 C   0  0  2  0  0  3  0  0  0  0  0  0
   31.7920   44.4990   15.5460 C   0  0  0  0  0  0  0  0  0  0  0  0
   30.9880   44.5710   14.6300 O   0  0  0  0  0  0  0  0  0  0  0  0
   32.4780   45.5850   16.0840 N   0  0  0  0  0  0  0  0  0  0  0  0
   32.3500   46.5280   15.7470 H   0  0  0  0  0  0  0  0  0  0  0  0
   31.0690   42.5370   16.9010 C   0  0  0  0  0  0  0  0  0  0  0  0
   29.7610   42.9320   17.1120 C   0  0  0  0  0  3  0  0  0  0  0  0
   29.0820   41.8230   17.6690 C   0  0  0  0  0  3  0  0  0  0  0  0
   30.0090   40.8140   17.7550 C   0  0  0  0  0  3  0  0  0  0  0  0
   31.2130   41.2320   17.2900 O   0  0  0  0  0  0  0  0  0  0  0  0
   38.2170   44.3070   22.5360 O   0  0  0  0  0  0  0  0  0  0  0  0
   39.6070   44.0350   22.3080 C   0  0  0  0  0  2  0  0  0  0  0  0
   40.2400   45.2060   21.5370 C   0  0  1  0  0  3  0  0  0  0  0  0
   41.2110   45.9160   22.4420 N   0  0  0  0  0  4  0  0  0  0  0  0
   41.9010   45.2490   22.8180 H   0  0  0  0  0  0  0  0  0  0  0  0
   40.7420   46.3600   23.2410 H   0  0  0  0  0  0  0  0  0  0  0  0
   41.7180   46.6490   21.9280 H   0  0  0  0  0  0  0  0  0  0  0  0
   40.9970   44.7410   20.2770 C   0  0  0  0  0  2  0  0  0  0  0  0
   40.9950   45.7970   19.2200 C   0  0  0  0  0  0  0  0  0  0  0  0
   41.9690   46.7450   18.9710 C   0  0  0  0  0  3  0  0  0  0  0  0
   41.5620   47.5030   17.9000 N   0  0  0  0  0  0  0  0  0  0  0  0
   40.3340   47.0720   17.4530 C   0  0  0  0  0  0  0  0  0  0  0  0
   39.5440   47.5410   16.3980 C   0  0  0  0  0  3  0  0  0  0  0  0
   38.3370   46.8800   16.1480 C   0  0  0  0  0  3  0  0  0  0  0  0
   37.9400   45.7930   16.9220 C   0  0  0  0  0  3  0  0  0  0  0  0
   38.7400   45.3400   17.9760 C   0  0  0  0  0  3  0  0  0  0  0  0
   39.9590   45.9930   18.2510 C   0  0  0  0  0  0  0  0  0  0  0  0
   42.0890   48.2540   17.4740 H   0  0  0  0  0  0  0  0  0  0  0  0
  1  2  1  0  0  0  0
  1 23  1  0  0  0  0
  3  2  2  0  0  0  0
  4  3  1  0  0  0  0
  5  4  2  0  0  0  0
  5  6  1  0  0  0  0
  6  1  2  0  0  0  0
  7  5  1  0  0  0  0
  8  7  1  0  0  0  0
  9  8  2  0  0  0  0
 10 11  2  0  0  0  0
 10  9  1  0  0  0  0
 11 12  1  0  0  0  0
 12  7  2  0  0  0  0
 13 18  1  1  0  0  0
 13 11  1  0  0  0  0
 14 16  1  0  0  0  0
 14 13  1  0  0  0  0
 15 14  2  0  0  0  0
 16 10  1  0  0  0  0
 17 16  1  0  0  0  0
 18 19  2  0  0  0  0
 18 22  1  0  0  0  0
 19 20  1  0  0  0  0
 20 21  2  0  0  0  0
 22 21  1  0  0  0  0
 24 23  1  0  0  0  0
 25 30  1  6  0  0  0
 25 24  1  0  0  0  0
 25 26  1  0  0  0  0
 26 27  1  0  0  0  0
 26 28  1  0  0  0  0
 29 26  1  0  0  0  0
 31 30  1  0  0  0  0
 32 31  2  0  0  0  0
 33 32  1  0  0  0  0
 34 33  1  0  0  0  0
 34 39  1  0  0  0  0
 35 34  2  0  0  0  0
 36 35  1  0  0  0  0
 36 37  2  0  0  0  0
 37 38  1  0  0  0  0
 38 39  2  0  0  0  0
 39 31  1  0  0  0  0
 40 33  1  0  0  0  0
M  END
>  <minimizedAffinity>
-11.515852

$$$$
