
 OpenBabel11232419043D

 40 45  0  0  1  0  0  0  0  0999 V2000
   35.0330   43.8850   17.7770 C   0  0  0  0  0  0  0  0  0  0  0  0
   35.2400   43.1150   18.9120 C   0  0  0  0  0  3  0  0  0  0  0  0
   34.2730   42.3830   19.5060 N   0  0  0  0  0  0  0  0  0  0  0  0
   33.0550   42.3800   18.9120 C   0  0  0  0  0  3  0  0  0  0  0  0
   32.7510   43.0670   17.7390 C   0  0  0  0  0  0  0  0  0  0  0  0
   33.7840   43.8200   17.1650 C   0  0  0  0  0  3  0  0  0  0  0  0
   31.4150   43.0370   17.1370 C   0  0  0  0  0  0  0  0  0  0  0  0
   30.8620   44.2080   16.5610 C   0  0  0  0  0  3  0  0  0  0  0  0
   29.5740   44.2170   16.0150 C   0  0  0  0  0  3  0  0  0  0  0  0
   28.8570   43.0430   16.0670 C   0  0  0  0  0  0  0  0  0  0  0  0
   29.3690   41.8770   16.6290 C   0  0  0  0  0  0  0  0  0  0  0  0
   30.6520   41.8550   17.1530 C   0  0  0  0  0  3  0  0  0  0  0  0
   28.3440   40.7690   16.5180 C   0  0  2  0  0  3  0  0  0  0  0  0
   27.1790   41.5040   15.8080 C   0  0  0  0  0  0  0  0  0  0  0  0
   26.0980   41.0430   15.4730 O   0  0  0  0  0  0  0  0  0  0  0  0
   27.5770   42.8200   15.5920 N   0  0  0  0  0  0  0  0  0  0  0  0
   26.9850   43.4990   15.1370 H   0  0  0  0  0  0  0  0  0  0  0  0
   27.8660   40.1810   17.8050 C   0  0  0  0  0  0  0  0  0  0  0  0
   26.7520   40.4240   18.5890 C   0  0  0  0  0  3  0  0  0  0  0  0
   26.8080   39.5170   19.6730 C   0  0  0  0  0  3  0  0  0  0  0  0
   27.9430   38.7670   19.4830 C   0  0  0  0  0  3  0  0  0  0  0  0
   28.5880   39.1560   18.3550 O   0  0  0  0  0  0  0  0  0  0  0  0
   35.9610   44.6990   17.1890 O   0  0  0  0  0  0  0  0  0  0  0  0
   36.5280   44.1840   15.9770 C   0  0  0  0  0  2  0  0  0  0  0  0
   37.4220   45.2570   15.3310 C   0  0  1  0  0  3  0  0  0  0  0  0
   36.9100   45.5480   13.9450 N   0  0  0  0  0  4  0  0  0  0  0  0
   35.9130   45.8080   13.9810 H   0  0  0  0  0  0  0  0  0  0  0  0
   36.9960   44.7350   13.3230 H   0  0  0  0  0  0  0  0  0  0  0  0
   37.4320   46.3260   13.5210 H   0  0  0  0  0  0  0  0  0  0  0  0
   37.4350   46.5730   16.1330 C   0  0  0  0  0  2  0  0  0  0  0  0
   38.8010   46.8820   16.6520 C   0  0  0  0  0  0  0  0  0  0  0  0
   39.7070   47.7980   16.1530 C   0  0  0  0  0  3  0  0  0  0  0  0
   40.8300   47.7620   16.9440 N   0  0  0  0  0  0  0  0  0  0  0  0
   40.6750   46.8290   17.9440 C   0  0  0  0  0  0  0  0  0  0  0  0
   41.5490   46.4570   18.9720 C   0  0  0  0  0  3  0  0  0  0  0  0
   41.1080   45.4890   19.8790 C   0  0  0  0  0  3  0  0  0  0  0  0
   39.8430   44.9200   19.7630 C   0  0  0  0  0  3  0  0  0  0  0  0
   38.9830   45.3010   18.7280 C   0  0  0  0  0  3  0  0  0  0  0  0
   39.4070   46.2710   17.7970 C   0  0  0  0  0  0  0  0  0  0  0  0
   41.6480   48.3470   16.8360 H   0  0  0  0  0  0  0  0  0  0  0  0
  1  2  1  0  0  0  0
  2  3  2  0  0  0  0
  4  3  1  0  0  0  0
  5  4  2  0  0  0  0
  6  5  1  0  0  0  0
  6  1  2  0  0  0  0
  7 12  1  0  0  0  0
  7  5  1  0  0  0  0
  8  7  2  0  0  0  0
  9 10  2  0  0  0  0
  9  8  1  0  0  0  0
 10 11  1  0  0  0  0
 11 12  2  0  0  0  0
 13 11  1  0  0  0  0
 13 18  1  1  0  0  0
 14 13  1  0  0  0  0
 15 14  2  0  0  0  0
 16 14  1  0  0  0  0
 16 10  1  0  0  0  0
 17 16  1  0  0  0  0
 18 22  1  0  0  0  0
 18 19  2  0  0  0  0
 19 20  1  0  0  0  0
 21 20  2  0  0  0  0
 22 21  1  0  0  0  0
 23  1  1  0  0  0  0
 24 23  1  0  0  0  0
 25 24  1  1  0  0  0
 25 30  1  0  0  0  0
 26 27  1  0  0  0  0
 26 25  1  0  0  0  0
 28 26  1  0  0  0  0
 29 26  1  0  0  0  0
 30 31  1  0  0  0  0
 31 39  1  0  0  0  0
 32 31  2  0  0  0  0
 32 33  1  0  0  0  0
 33 34  1  0  0  0  0
 34 35  1  0  0  0  0
 35 36  2  0  0  0  0
 37 36  1  0  0  0  0
 38 37  2  0  0  0  0
 39 34  2  0  0  0  0
 39 38  1  0  0  0  0
 40 33  1  0  0  0  0
M  END
>  <minimizedAffinity>
-12.2669725

$$$$
