
 OpenBabel11232419433D

 37 41  0  0  1  0  0  0  0  0999 V2000
   56.6830  -42.0770   17.5580 C   0  0  0  0  0  0  0  0  0  0  0  0
   56.3020  -42.6170   16.5090 O   0  0  0  0  0  0  0  0  0  0  0  0
   58.0060  -41.7050   17.7480 N   0  0  0  0  0  0  0  0  0  0  0  0
   58.9410  -42.0310   16.6470 C   0  0  0  0  0  2  0  0  0  0  0  0
   60.3910  -41.5380   16.7730 C   0  0  0  0  0  2  0  0  0  0  0  0
   60.8800  -41.8100   18.1250 N   0  0  0  0  0  0  0  0  0  0  0  0
   60.0670  -41.2280   19.2030 C   0  0  1  0  0  3  0  0  0  0  0  0
   59.3170  -39.9280   19.0830 C   0  0  0  0  0  2  0  0  0  0  0  0
   58.5640  -41.2270   19.0010 C   0  0  1  0  0  3  0  0  0  0  0  0
   62.2720  -41.9430   18.2410 C   0  0  0  0  0  0  0  0  0  0  0  0
   62.9370  -40.9940   18.9290 N   0  0  0  0  0  0  0  0  0  0  0  0
   64.2750  -41.0710   18.9530 C   0  0  0  0  0  3  0  0  0  0  0  0
   65.0200  -41.9610   18.2980 N   0  0  0  0  0  0  0  0  0  0  0  0
   64.3360  -42.8520   17.5770 C   0  0  0  0  0  0  0  0  0  0  0  0
   62.9530  -42.9450   17.5550 C   0  0  0  0  0  0  0  0  0  0  0  0
   62.3170  -44.0710   16.7820 C   0  0  2  0  0  3  0  0  0  0  0  0
   62.2680  -45.3630   17.6140 C   0  0  0  0  0  1  0  0  0  0  0  0
   63.1040  -44.3110   15.4920 C   0  0  0  0  0  2  0  0  0  0  0  0
   64.5830  -44.4710   15.7670 C   0  0  0  0  0  0  0  0  0  0  0  0
   65.2990  -45.1890   15.0740 O   0  0  0  0  0  0  0  0  0  0  0  0
   65.0940  -43.6920   16.7650 N   0  0  0  0  0  0  0  0  0  0  0  0
   66.0970  -43.6690   16.8840 H   0  0  0  0  0  0  0  0  0  0  0  0
   55.6880  -41.9500   18.7160 C   0  0  1  0  0  3  0  0  0  0  0  0
   54.8720  -40.6680   18.6940 C   0  0  0  0  0  0  0  0  0  0  0  0
   53.6730  -40.5370   19.4150 C   0  0  0  0  0  3  0  0  0  0  0  0
   52.9750  -39.3260   19.4190 C   0  0  0  0  0  3  0  0  0  0  0  0
   53.4710  -38.2330   18.7140 C   0  0  0  0  0  0  0  0  0  0  0  0
   52.6190  -36.7410   18.7360 Cl  0  0  0  0  0  0  0  0  0  0  0  0
   54.6600  -38.3420   17.9990 C   0  0  0  0  0  3  0  0  0  0  0  0
   55.3580  -39.5540   17.9870 C   0  0  0  0  0  3  0  0  0  0  0  0
   54.7220  -43.1610   18.7090 C   0  0  0  0  0  2  0  0  0  0  0  0
   55.3990  -44.4870   18.9590 N   0  0  0  0  0  4  0  0  0  0  0  0
   56.3940  -44.3310   18.6880 H   0  0  0  0  0  0  0  0  0  0  0  0
   55.0570  -45.1750   18.2730 H   0  0  0  0  0  0  0  0  0  0  0  0
   56.7310  -44.9600   20.9870 C   0  0  0  0  0  1  0  0  0  0  0  0
   55.3590  -45.0740   20.3380 C   0  0  0  0  0  3  0  0  0  0  0  0
   54.2970  -44.3250   21.1370 C   0  0  0  0  0  1  0  0  0  0  0  0
  1  3  1  0  0  0  0
  1 23  1  0  0  0  0
  2  1  2  0  0  0  0
  3  9  1  0  0  0  0
  4  5  1  0  0  0  0
  4  3  1  0  0  0  0
  5  6  1  0  0  0  0
  6 10  1  0  0  0  0
  6  7  1  0  0  0  0
  7  8  1  6  0  0  0
  9  8  1  6  0  0  0
  9  7  1  0  0  0  0
 10 11  1  0  0  0  0
 11 12  2  0  0  0  0
 13 12  1  0  0  0  0
 14 13  2  0  0  0  0
 15 14  1  0  0  0  0
 15 10  2  0  0  0  0
 16 15  1  0  0  0  0
 16 17  1  1  0  0  0
 18 19  1  0  0  0  0
 18 16  1  0  0  0  0
 19 21  1  0  0  0  0
 20 19  2  0  0  0  0
 21 22  1  0  0  0  0
 21 14  1  0  0  0  0
 23 31  1  6  0  0  0
 24 23  1  0  0  0  0
 24 25  1  0  0  0  0
 25 26  2  0  0  0  0
 27 28  1  0  0  0  0
 27 26  1  0  0  0  0
 29 27  2  0  0  0  0
 30 29  1  0  0  0  0
 30 24  2  0  0  0  0
 31 32  1  0  0  0  0
 32 36  1  0  0  0  0
 33 32  1  0  0  0  0
 34 32  1  0  0  0  0
 36 35  1  0  0  0  0
 36 37  1  0  0  0  0
M  END
>  <minimizedAffinity>
-4.97931814

$$$$
