
 OpenBabel11232419433D

 37 41  0  0  1  0  0  0  0  0999 V2000
   62.0140  -41.0470   18.4470 C   0  0  0  0  0  0  0  0  0  0  0  0
   62.4980  -40.0990   19.0830 O   0  0  0  0  0  0  0  0  0  0  0  0
   60.6470  -41.1650   18.2430 N   0  0  0  0  0  0  0  0  0  0  0  0
   59.8000  -40.1230   18.8670 C   0  0  0  0  0  2  0  0  0  0  0  0
   58.2920  -40.1580   18.5730 C   0  0  0  0  0  2  0  0  0  0  0  0
   57.8060  -41.5330   18.6970 N   0  0  0  0  0  0  0  0  0  0  0  0
   58.4960  -42.5110   17.8450 C   0  0  1  0  0  3  0  0  0  0  0  0
   59.0610  -42.1920   16.4860 C   0  0  0  0  0  2  0  0  0  0  0  0
   59.9890  -42.3230   17.6600 C   0  0  1  0  0  3  0  0  0  0  0  0
   56.4430  -41.6580   19.0090 C   0  0  0  0  0  0  0  0  0  0  0  0
   55.6380  -40.6150   18.7250 N   0  0  0  0  0  0  0  0  0  0  0  0
   54.3580  -40.6990   19.1140 C   0  0  0  0  0  3  0  0  0  0  0  0
   53.8180  -41.6910   19.8220 N   0  0  0  0  0  0  0  0  0  0  0  0
   54.6540  -42.6810   20.1400 C   0  0  0  0  0  0  0  0  0  0  0  0
   55.9690  -42.7650   19.7080 C   0  0  0  0  0  0  0  0  0  0  0  0
   56.7660  -43.9960   20.0530 C   0  0  2  0  0  3  0  0  0  0  0  0
   56.4960  -45.1340   19.0550 C   0  0  0  0  0  1  0  0  0  0  0  0
   56.4140  -44.4500   21.4710 C   0  0  0  0  0  2  0  0  0  0  0  0
   54.9170  -44.5750   21.6560 C   0  0  0  0  0  0  0  0  0  0  0  0
   54.4240  -45.4040   22.4180 O   0  0  0  0  0  0  0  0  0  0  0  0
   54.1540  -43.6490   21.0070 N   0  0  0  0  0  0  0  0  0  0  0  0
   53.1650  -43.6160   21.2170 H   0  0  0  0  0  0  0  0  0  0  0  0
   62.9460  -42.1770   17.9990 C   0  0  1  0  0  3  0  0  0  0  0  0
   63.4910  -42.0110   16.5900 C   0  0  0  0  0  0  0  0  0  0  0  0
   62.6660  -42.1090   15.4570 C   0  0  0  0  0  3  0  0  0  0  0  0
   63.1870  -41.8950   14.1780 C   0  0  0  0  0  3  0  0  0  0  0  0
   64.5320  -41.5710   14.0180 C   0  0  0  0  0  0  0  0  0  0  0  0
   65.1650  -41.2930   12.4450 Cl  0  0  0  0  0  0  0  0  0  0  0  0
   65.3620  -41.4640   15.1300 C   0  0  0  0  0  3  0  0  0  0  0  0
   64.8460  -41.6830   16.4100 C   0  0  0  0  0  3  0  0  0  0  0  0
   64.1350  -42.2950   18.9870 C   0  0  0  0  0  2  0  0  0  0  0  0
   64.0680  -43.5070   19.8840 N   0  0  0  0  0  4  0  0  0  0  0  0
   63.0770  -43.5470   20.2030 H   0  0  0  0  0  0  0  0  0  0  0  0
   64.6020  -43.3200   20.7440 H   0  0  0  0  0  0  0  0  0  0  0  0
   63.3010  -45.4030   18.4950 C   0  0  0  0  0  1  0  0  0  0  0  0
   64.4500  -44.8450   19.3240 C   0  0  0  0  0  3  0  0  0  0  0  0
   65.7090  -44.6620   18.4840 C   0  0  0  0  0  1  0  0  0  0  0  0
  1  2  2  0  0  0  0
  3  1  1  0  0  0  0
  3  4  1  0  0  0  0
  5  6  1  0  0  0  0
  5  4  1  0  0  0  0
  6 10  1  0  0  0  0
  7  8  1  6  0  0  0
  7  6  1  0  0  0  0
  9  8  1  6  0  0  0
  9  7  1  0  0  0  0
  9  3  1  0  0  0  0
 10 15  1  0  0  0  0
 11 10  2  0  0  0  0
 11 12  1  0  0  0  0
 12 13  2  0  0  0  0
 13 14  1  0  0  0  0
 14 21  1  0  0  0  0
 15 16  1  0  0  0  0
 15 14  2  0  0  0  0
 16 17  1  6  0  0  0
 16 18  1  0  0  0  0
 18 19  1  0  0  0  0
 19 20  2  0  0  0  0
 21 22  1  0  0  0  0
 21 19  1  0  0  0  0
 23  1  1  0  0  0  0
 23 31  1  1  0  0  0
 24 23  1  0  0  0  0
 25 24  2  0  0  0  0
 26 25  1  0  0  0  0
 27 26  2  0  0  0  0
 27 29  1  0  0  0  0
 28 27  1  0  0  0  0
 29 30  2  0  0  0  0
 30 24  1  0  0  0  0
 31 32  1  0  0  0  0
 32 33  1  0  0  0  0
 32 34  1  0  0  0  0
 35 36  1  0  0  0  0
 36 32  1  0  0  0  0
 37 36  1  0  0  0  0
M  END
>  <minimizedAffinity>
-5.09518337

$$$$

 OpenBabel11232419433D

 37 41  0  0  1  0  0  0  0  0999 V2000
   56.6830  -42.0770   17.5580 C   0  0  0  0  0  0  0  0  0  0  0  0
   56.3020  -42.6170   16.5090 O   0  0  0  0  0  0  0  0  0  0  0  0
   58.0060  -41.7050   17.7480 N   0  0  0  0  0  0  0  0  0  0  0  0
   58.9410  -42.0310   16.6470 C   0  0  0  0  0  2  0  0  0  0  0  0
   60.3910  -41.5380   16.7730 C   0  0  0  0  0  2  0  0  0  0  0  0
   60.8800  -41.8100   18.1250 N   0  0  0  0  0  0  0  0  0  0  0  0
   60.0670  -41.2280   19.2030 C   0  0  1  0  0  3  0  0  0  0  0  0
   59.3170  -39.9280   19.0830 C   0  0  0  0  0  2  0  0  0  0  0  0
   58.5640  -41.2270   19.0010 C   0  0  1  0  0  3  0  0  0  0  0  0
   62.2720  -41.9430   18.2410 C   0  0  0  0  0  0  0  0  0  0  0  0
   62.9370  -40.9940   18.9290 N   0  0  0  0  0  0  0  0  0  0  0  0
   64.2750  -41.0710   18.9530 C   0  0  0  0  0  3  0  0  0  0  0  0
   65.0200  -41.9610   18.2980 N   0  0  0  0  0  0  0  0  0  0  0  0
   64.3360  -42.8520   17.5770 C   0  0  0  0  0  0  0  0  0  0  0  0
   62.9530  -42.9450   17.5550 C   0  0  0  0  0  0  0  0  0  0  0  0
   62.3170  -44.0710   16.7820 C   0  0  2  0  0  3  0  0  0  0  0  0
   62.2680  -45.3630   17.6140 C   0  0  0  0  0  1  0  0  0  0  0  0
   63.1040  -44.3110   15.4920 C   0  0  0  0  0  2  0  0  0  0  0  0
   64.5830  -44.4710   15.7670 C   0  0  0  0  0  0  0  0  0  0  0  0
   65.2990  -45.1890   15.0740 O   0  0  0  0  0  0  0  0  0  0  0  0
   65.0940  -43.6920   16.7650 N   0  0  0  0  0  0  0  0  0  0  0  0
   66.0970  -43.6690   16.8840 H   0  0  0  0  0  0  0  0  0  0  0  0
   55.6880  -41.9500   18.7160 C   0  0  1  0  0  3  0  0  0  0  0  0
   54.8720  -40.6680   18.6940 C   0  0  0  0  0  0  0  0  0  0  0  0
   53.6730  -40.5370   19.4150 C   0  0  0  0  0  3  0  0  0  0  0  0
   52.9750  -39.3260   19.4190 C   0  0  0  0  0  3  0  0  0  0  0  0
   53.4710  -38.2330   18.7140 C   0  0  0  0  0  0  0  0  0  0  0  0
   52.6190  -36.7410   18.7360 Cl  0  0  0  0  0  0  0  0  0  0  0  0
   54.6600  -38.3420   17.9990 C   0  0  0  0  0  3  0  0  0  0  0  0
   55.3580  -39.5540   17.9870 C   0  0  0  0  0  3  0  0  0  0  0  0
   54.7220  -43.1610   18.7090 C   0  0  0  0  0  2  0  0  0  0  0  0
   55.3990  -44.4870   18.9590 N   0  0  0  0  0  4  0  0  0  0  0  0
   56.3940  -44.3310   18.6880 H   0  0  0  0  0  0  0  0  0  0  0  0
   55.0570  -45.1750   18.2730 H   0  0  0  0  0  0  0  0  0  0  0  0
   56.7310  -44.9600   20.9870 C   0  0  0  0  0  1  0  0  0  0  0  0
   55.3590  -45.0740   20.3380 C   0  0  0  0  0  3  0  0  0  0  0  0
   54.2970  -44.3250   21.1370 C   0  0  0  0  0  1  0  0  0  0  0  0
  1  3  1  0  0  0  0
  1 23  1  0  0  0  0
  2  1  2  0  0  0  0
  3  9  1  0  0  0  0
  4  5  1  0  0  0  0
  4  3  1  0  0  0  0
  5  6  1  0  0  0  0
  6 10  1  0  0  0  0
  6  7  1  0  0  0  0
  7  8  1  6  0  0  0
  9  8  1  6  0  0  0
  9  7  1  0  0  0  0
 10 11  1  0  0  0  0
 11 12  2  0  0  0  0
 13 12  1  0  0  0  0
 14 13  2  0  0  0  0
 15 14  1  0  0  0  0
 15 10  2  0  0  0  0
 16 15  1  0  0  0  0
 16 17  1  1  0  0  0
 18 19  1  0  0  0  0
 18 16  1  0  0  0  0
 19 21  1  0  0  0  0
 20 19  2  0  0  0  0
 21 22  1  0  0  0  0
 21 14  1  0  0  0  0
 23 31  1  6  0  0  0
 24 23  1  0  0  0  0
 24 25  1  0  0  0  0
 25 26  2  0  0  0  0
 27 28  1  0  0  0  0
 27 26  1  0  0  0  0
 29 27  2  0  0  0  0
 30 29  1  0  0  0  0
 30 24  2  0  0  0  0
 31 32  1  0  0  0  0
 32 36  1  0  0  0  0
 33 32  1  0  0  0  0
 34 32  1  0  0  0  0
 36 35  1  0  0  0  0
 36 37  1  0  0  0  0
M  END
>  <minimizedAffinity>
-4.97931814

$$$$

 OpenBabel11232419433D

 37 41  0  0  1  0  0  0  0  0999 V2000
   57.0080  -42.7710   18.3630 C   0  0  0  0  0  0  0  0  0  0  0  0
   56.3800  -43.8390   18.3010 O   0  0  0  0  0  0  0  0  0  0  0  0
   58.3450  -42.6910   18.0030 N   0  0  0  0  0  0  0  0  0  0  0  0
   58.9880  -43.9580   17.5870 C   0  0  0  0  0  2  0  0  0  0  0  0
   60.4360  -43.8910   17.0770 C   0  0  0  0  0  2  0  0  0  0  0  0
   61.2240  -43.0390   17.9690 N   0  0  0  0  0  0  0  0  0  0  0  0
   60.7000  -41.6770   18.1430 C   0  0  1  0  0  3  0  0  0  0  0  0
   59.9680  -40.9130   17.0720 C   0  0  0  0  0  2  0  0  0  0  0  0
   59.1930  -41.5280   18.2030 C   0  0  1  0  0  3  0  0  0  0  0  0
   62.6020  -43.3070   17.9860 C   0  0  0  0  0  0  0  0  0  0  0  0
   63.1560  -43.6640   19.1620 N   0  0  0  0  0  0  0  0  0  0  0  0
   64.4870  -43.8230   19.1960 C   0  0  0  0  0  3  0  0  0  0  0  0
   65.3290  -43.5900   18.1890 N   0  0  0  0  0  0  0  0  0  0  0  0
   64.7570  -43.1810   17.0540 C   0  0  0  0  0  0  0  0  0  0  0  0
   63.3880  -43.0810   16.8590 C   0  0  0  0  0  0  0  0  0  0  0  0
   62.8780  -42.7110   15.4900 C   0  0  2  0  0  3  0  0  0  0  0  0
   62.7950  -43.9410   14.5730 C   0  0  0  0  0  1  0  0  0  0  0  0
   63.8010  -41.6590   14.8710 C   0  0  0  0  0  2  0  0  0  0  0  0
   65.2500  -42.0930   14.9260 C   0  0  0  0  0  0  0  0  0  0  0  0
   66.0600  -41.7620   14.0640 O   0  0  0  0  0  0  0  0  0  0  0  0
   65.6260  -42.7860   16.0410 N   0  0  0  0  0  0  0  0  0  0  0  0
   66.6100  -42.9700   16.1770 H   0  0  0  0  0  0  0  0  0  0  0  0
   56.3170  -41.5530   18.9810 C   0  0  1  0  0  3  0  0  0  0  0  0
   55.5400  -40.7080   17.9850 C   0  0  0  0  0  0  0  0  0  0  0  0
   54.9270  -41.2680   16.8530 C   0  0  0  0  0  3  0  0  0  0  0  0
   54.1720  -40.4720   15.9860 C   0  0  0  0  0  3  0  0  0  0  0  0
   54.0140  -39.1140   16.2470 C   0  0  0  0  0  0  0  0  0  0  0  0
   53.0710  -38.1420   15.1890 Cl  0  0  0  0  0  0  0  0  0  0  0  0
   54.6100  -38.5420   17.3670 C   0  0  0  0  0  3  0  0  0  0  0  0
   55.3700  -39.3340   18.2330 C   0  0  0  0  0  3  0  0  0  0  0  0
   55.3560  -42.0130   20.1070 C   0  0  0  0  0  2  0  0  0  0  0  0
   56.0400  -42.7460   21.2360 N   0  0  0  0  0  4  0  0  0  0  0  0
   56.0820  -42.0540   22.0140 H   0  0  0  0  0  0  0  0  0  0  0  0
   57.0270  -42.9030   20.9860 H   0  0  0  0  0  0  0  0  0  0  0  0
   54.1490  -44.3180   20.9870 C   0  0  0  0  0  1  0  0  0  0  0  0
   55.4310  -44.0170   21.7490 C   0  0  0  0  0  3  0  0  0  0  0  0
   56.4580  -45.1320   21.5820 C   0  0  0  0  0  1  0  0  0  0  0  0
  1 23  1  0  0  0  0
  2  1  2  0  0  0  0
  3  9  1  0  0  0  0
  3  1  1  0  0  0  0
  4  3  1  0  0  0  0
  5  4  1  0  0  0  0
  5  6  1  0  0  0  0
  6 10  1  0  0  0  0
  6  7  1  0  0  0  0
  7  8  1  6  0  0  0
  7  9  1  0  0  0  0
  9  8  1  6  0  0  0
 10 11  1  0  0  0  0
 11 12  2  0  0  0  0
 13 12  1  0  0  0  0
 14 13  2  0  0  0  0
 15 14  1  0  0  0  0
 15 10  2  0  0  0  0
 16 17  1  6  0  0  0
 16 15  1  0  0  0  0
 18 19  1  0  0  0  0
 18 16  1  0  0  0  0
 19 21  1  0  0  0  0
 20 19  2  0  0  0  0
 21 22  1  0  0  0  0
 21 14  1  0  0  0  0
 23 31  1  1  0  0  0
 24 30  1  0  0  0  0
 24 23  1  0  0  0  0
 25 24  2  0  0  0  0
 26 27  2  0  0  0  0
 26 25  1  0  0  0  0
 27 29  1  0  0  0  0
 28 27  1  0  0  0  0
 29 30  2  0  0  0  0
 31 32  1  0  0  0  0
 32 36  1  0  0  0  0
 32 33  1  0  0  0  0
 34 32  1  0  0  0  0
 35 36  1  0  0  0  0
 37 36  1  0  0  0  0
M  END
>  <minimizedAffinity>
-4.54509258

$$$$

 OpenBabel11232419433D

 37 41  0  0  1  0  0  0  0  0999 V2000
   61.4220  -42.2590   14.4540 C   0  0  0  0  0  0  0  0  0  0  0  0
   61.1700  -41.6530   13.4020 O   0  0  0  0  0  0  0  0  0  0  0  0
   60.4350  -42.9280   15.1640 N   0  0  0  0  0  0  0  0  0  0  0  0
   59.0620  -42.8370   14.6190 C   0  0  0  0  0  2  0  0  0  0  0  0
   57.9620  -43.6540   15.3150 C   0  0  0  0  0  2  0  0  0  0  0  0
   58.0840  -43.4940   16.7650 N   0  0  0  0  0  0  0  0  0  0  0  0
   59.3950  -43.8630   17.3180 C   0  0  1  0  0  3  0  0  0  0  0  0
   60.2690  -44.9530   16.7550 C   0  0  0  0  0  2  0  0  0  0  0  0
   60.6110  -43.5160   16.4820 C   0  0  1  0  0  3  0  0  0  0  0  0
   56.8970  -43.6890   17.4890 C   0  0  0  0  0  0  0  0  0  0  0  0
   56.3390  -44.9150   17.4590 N   0  0  0  0  0  0  0  0  0  0  0  0
   55.1560  -45.0710   18.0690 C   0  0  0  0  0  3  0  0  0  0  0  0
   54.4380  -44.1060   18.6450 N   0  0  0  0  0  0  0  0  0  0  0  0
   54.9890  -42.8900   18.6060 C   0  0  0  0  0  0  0  0  0  0  0  0
   56.2520  -42.6180   18.1020 C   0  0  0  0  0  0  0  0  0  0  0  0
   56.7920  -41.2170   18.2240 C   0  0  2  0  0  3  0  0  0  0  0  0
   57.4260  -40.9800   19.6040 C   0  0  0  0  0  1  0  0  0  0  0  0
   55.6600  -40.2140   17.9900 C   0  0  0  0  0  2  0  0  0  0  0  0
   54.4590  -40.5220   18.8580 C   0  0  0  0  0  0  0  0  0  0  0  0
   53.7170  -39.6370   19.2760 O   0  0  0  0  0  0  0  0  0  0  0  0
   54.1920  -41.8440   19.0620 N   0  0  0  0  0  0  0  0  0  0  0  0
   53.3230  -42.0890   19.5180 H   0  0  0  0  0  0  0  0  0  0  0  0
   62.8310  -42.1440   15.0430 C   0  0  1  0  0  3  0  0  0  0  0  0
   62.8890  -41.4080   16.3720 C   0  0  0  0  0  0  0  0  0  0  0  0
   63.6520  -41.8820   17.4520 C   0  0  0  0  0  3  0  0  0  0  0  0
   63.7300  -41.1520   18.6420 C   0  0  0  0  0  3  0  0  0  0  0  0
   63.0580  -39.9390   18.7600 C   0  0  0  0  0  0  0  0  0  0  0  0
   63.1700  -39.0360   20.2180 Cl  0  0  0  0  0  0  0  0  0  0  0  0
   62.3020  -39.4510   17.6990 C   0  0  0  0  0  3  0  0  0  0  0  0
   62.2170  -40.1800   16.5090 C   0  0  0  0  0  3  0  0  0  0  0  0
   63.4380  -43.5580   15.2250 C   0  0  0  0  0  2  0  0  0  0  0  0
   64.6260  -43.8340   14.3360 N   0  0  0  0  0  4  0  0  0  0  0  0
   64.5780  -43.1030   13.5940 H   0  0  0  0  0  0  0  0  0  0  0  0
   64.4700  -44.7170   13.8280 H   0  0  0  0  0  0  0  0  0  0  0  0
   66.4910  -42.3900   15.0750 C   0  0  0  0  0  1  0  0  0  0  0  0
   66.0000  -43.8240   14.9370 C   0  0  0  0  0  3  0  0  0  0  0  0
   65.9260  -44.5230   16.2900 C   0  0  0  0  0  1  0  0  0  0  0  0
  1 23  1  0  0  0  0
  1  3  1  0  0  0  0
  2  1  2  0  0  0  0
  3  9  1  0  0  0  0
  4  3  1  0  0  0  0
  4  5  1  0  0  0  0
  5  6  1  0  0  0  0
  6  7  1  0  0  0  0
  6 10  1  0  0  0  0
  7  8  1  6  0  0  0
  9  8  1  6  0  0  0
  9  7  1  0  0  0  0
 10 15  1  0  0  0  0
 11 10  2  0  0  0  0
 11 12  1  0  0  0  0
 12 13  2  0  0  0  0
 14 13  1  0  0  0  0
 14 21  1  0  0  0  0
 15 16  1  0  0  0  0
 15 14  2  0  0  0  0
 16 17  1  1  0  0  0
 18 16  1  0  0  0  0
 18 19  1  0  0  0  0
 19 21  1  0  0  0  0
 19 20  2  0  0  0  0
 21 22  1  0  0  0  0
 23 31  1  1  0  0  0
 23 24  1  0  0  0  0
 24 30  2  0  0  0  0
 24 25  1  0  0  0  0
 25 26  2  0  0  0  0
 26 27  1  0  0  0  0
 27 28  1  0  0  0  0
 29 27  2  0  0  0  0
 30 29  1  0  0  0  0
 32 36  1  0  0  0  0
 32 31  1  0  0  0  0
 33 32  1  0  0  0  0
 34 32  1  0  0  0  0
 36 35  1  0  0  0  0
 36 37  1  0  0  0  0
M  END
>  <minimizedAffinity>
-4.42002153

$$$$

 OpenBabel11232419433D

 37 41  0  0  1  0  0  0  0  0999 V2000
   55.2460  -42.6120   19.4240 C   0  0  0  0  0  0  0  0  0  0  0  0
   55.0720  -43.0470   20.5720 O   0  0  0  0  0  0  0  0  0  0  0  0
   56.4990  -42.2210   18.9750 N   0  0  0  0  0  0  0  0  0  0  0  0
   57.6030  -42.3100   19.9580 C   0  0  0  0  0  2  0  0  0  0  0  0
   59.0240  -41.9910   19.4660 C   0  0  0  0  0  2  0  0  0  0  0  0
   58.9930  -40.7760   18.6510 N   0  0  0  0  0  0  0  0  0  0  0  0
   58.0760  -40.8260   17.5040 C   0  0  1  0  0  3  0  0  0  0  0  0
   57.7640  -42.0790   16.7300 C   0  0  0  0  0  2  0  0  0  0  0  0
   56.7590  -41.5480   17.7130 C   0  0  1  0  0  3  0  0  0  0  0  0
   60.2000  -40.0610   18.6000 C   0  0  0  0  0  0  0  0  0  0  0  0
   60.3210  -38.9780   19.3930 N   0  0  0  0  0  0  0  0  0  0  0  0
   61.4340  -38.2420   19.2700 C   0  0  0  0  0  3  0  0  0  0  0  0
   62.4080  -38.4390   18.3800 N   0  0  0  0  0  0  0  0  0  0  0  0
   62.2320  -39.4830   17.5690 C   0  0  0  0  0  0  0  0  0  0  0  0
   61.1810  -40.3820   17.6650 C   0  0  0  0  0  0  0  0  0  0  0  0
   61.1680  -41.5800   16.7510 C   0  0  2  0  0  3  0  0  0  0  0  0
   62.0330  -42.7200   17.3110 C   0  0  0  0  0  1  0  0  0  0  0  0
   61.6770  -41.1700   15.3680 C   0  0  0  0  0  2  0  0  0  0  0  0
   62.9990  -40.4400   15.4590 C   0  0  0  0  0  0  0  0  0  0  0  0
   63.8440  -40.5130   14.5690 O   0  0  0  0  0  0  0  0  0  0  0  0
   63.1560  -39.6160   16.5350 N   0  0  0  0  0  0  0  0  0  0  0  0
   63.9640  -39.0100   16.5570 H   0  0  0  0  0  0  0  0  0  0  0  0
   54.0190  -42.3770   18.5390 C   0  0  1  0  0  3  0  0  0  0  0  0
   53.9040  -40.9600   17.9990 C   0  0  0  0  0  0  0  0  0  0  0  0
   54.0060  -39.8360   18.8340 C   0  0  0  0  0  3  0  0  0  0  0  0
   53.9530  -38.5450   18.2990 C   0  0  0  0  0  3  0  0  0  0  0  0
   53.8090  -38.3660   16.9260 C   0  0  0  0  0  0  0  0  0  0  0  0
   53.7610  -36.7790   16.2700 Cl  0  0  0  0  0  0  0  0  0  0  0  0
   53.7120  -39.4690   16.0830 C   0  0  0  0  0  3  0  0  0  0  0  0
   53.7590  -40.7600   16.6150 C   0  0  0  0  0  3  0  0  0  0  0  0
   54.0370  -43.3680   17.3470 C   0  0  0  0  0  2  0  0  0  0  0  0
   54.5720  -44.7360   17.6970 N   0  0  0  0  0  4  0  0  0  0  0  0
   53.7240  -45.3340   17.7970 H   0  0  0  0  0  0  0  0  0  0  0  0
   54.9740  -44.7090   18.6450 H   0  0  0  0  0  0  0  0  0  0  0  0
   55.5340  -44.6670   15.4210 C   0  0  0  0  0  1  0  0  0  0  0  0
   55.5270  -45.4040   16.7520 C   0  0  0  0  0  3  0  0  0  0  0  0
   56.9070  -45.4040   17.4010 C   0  0  0  0  0  1  0  0  0  0  0  0
  1  2  2  0  0  0  0
  3  1  1  0  0  0  0
  3  4  1  0  0  0  0
  5  4  1  0  0  0  0
  6  5  1  0  0  0  0
  7  8  1  6  0  0  0
  7  9  1  0  0  0  0
  7  6  1  0  0  0  0
  9  8  1  6  0  0  0
  9  3  1  0  0  0  0
 10  6  1  0  0  0  0
 10 11  1  0  0  0  0
 12 11  2  0  0  0  0
 13 12  1  0  0  0  0
 14 15  1  0  0  0  0
 14 13  2  0  0  0  0
 15 10  2  0  0  0  0
 16 17  1  1  0  0  0
 16 15  1  0  0  0  0
 18 19  1  0  0  0  0
 18 16  1  0  0  0  0
 19 21  1  0  0  0  0
 20 19  2  0  0  0  0
 21 22  1  0  0  0  0
 21 14  1  0  0  0  0
 23 31  1  6  0  0  0
 23  1  1  0  0  0  0
 24 23  1  0  0  0  0
 24 25  1  0  0  0  0
 26 25  2  0  0  0  0
 27 26  1  0  0  0  0
 28 27  1  0  0  0  0
 29 30  1  0  0  0  0
 29 27  2  0  0  0  0
 30 24  2  0  0  0  0
 31 32  1  0  0  0  0
 32 33  1  0  0  0  0
 32 34  1  0  0  0  0
 35 36  1  0  0  0  0
 36 37  1  0  0  0  0
 36 32  1  0  0  0  0
M  END
>  <minimizedAffinity>
-4.40502739

$$$$

 OpenBabel11232419433D

 37 41  0  0  1  0  0  0  0  0999 V2000
   57.1610  -42.7980   16.4140 C   0  0  0  0  0  0  0  0  0  0  0  0
   57.1440  -43.1210   15.2170 O   0  0  0  0  0  0  0  0  0  0  0  0
   58.2830  -42.2280   16.9980 N   0  0  0  0  0  0  0  0  0  0  0  0
   59.4680  -42.0730   16.1250 C   0  0  0  0  0  2  0  0  0  0  0  0
   60.6930  -41.3470   16.7050 C   0  0  0  0  0  2  0  0  0  0  0  0
   60.9570  -41.8460   18.0550 N   0  0  0  0  0  0  0  0  0  0  0  0
   59.8280  -41.7290   18.9880 C   0  0  1  0  0  3  0  0  0  0  0  0
   58.8120  -40.6180   18.9450 C   0  0  0  0  0  2  0  0  0  0  0  0
   58.4440  -41.9780   18.4210 C   0  0  1  0  0  3  0  0  0  0  0  0
   62.2870  -41.7230   18.4860 C   0  0  0  0  0  0  0  0  0  0  0  0
   62.6230  -40.6110   19.1700 N   0  0  0  0  0  0  0  0  0  0  0  0
   63.9140  -40.4500   19.4940 C   0  0  0  0  0  3  0  0  0  0  0  0
   64.9160  -41.2560   19.1400 N   0  0  0  0  0  0  0  0  0  0  0  0
   64.5600  -42.3170   18.4130 C   0  0  0  0  0  0  0  0  0  0  0  0
   63.2510  -42.6520   18.1040 C   0  0  0  0  0  0  0  0  0  0  0  0
   62.9890  -43.9410   17.3690 C   0  0  2  0  0  3  0  0  0  0  0  0
   62.9370  -45.1350   18.3340 C   0  0  0  0  0  1  0  0  0  0  0  0
   64.0850  -44.1620   16.3240 C   0  0  0  0  0  2  0  0  0  0  0  0
   65.4640  -44.0330   16.9320 C   0  0  0  0  0  0  0  0  0  0  0  0
   66.4220  -44.6790   16.5130 O   0  0  0  0  0  0  0  0  0  0  0  0
   65.6040  -43.0850   17.9040 N   0  0  0  0  0  0  0  0  0  0  0  0
   66.5370  -42.8760   18.2340 H   0  0  0  0  0  0  0  0  0  0  0  0
   55.9590  -43.1670   17.2870 C   0  0  1  0  0  3  0  0  0  0  0  0
   55.1780  -41.9700   17.8060 C   0  0  0  0  0  0  0  0  0  0  0  0
   54.5250  -41.9910   19.0490 C   0  0  0  0  0  3  0  0  0  0  0  0
   53.8630  -40.8550   19.5240 C   0  0  0  0  0  3  0  0  0  0  0  0
   53.8560  -39.6860   18.7680 C   0  0  0  0  0  0  0  0  0  0  0  0
   53.0560  -38.2860   19.3620 Cl  0  0  0  0  0  0  0  0  0  0  0  0
   54.5030  -39.6450   17.5370 C   0  0  0  0  0  3  0  0  0  0  0  0
   55.1610  -40.7810   17.0560 C   0  0  0  0  0  3  0  0  0  0  0  0
   54.9980  -44.0860   16.4910 C   0  0  0  0  0  2  0  0  0  0  0  0
   53.8380  -43.3570   15.8570 N   0  0  0  0  0  4  0  0  0  0  0  0
   53.9760  -42.3580   16.1210 H   0  0  0  0  0  0  0  0  0  0  0  0
   52.9670  -43.6260   16.3370 H   0  0  0  0  0  0  0  0  0  0  0  0
   54.2020  -42.1870   13.7100 C   0  0  0  0  0  1  0  0  0  0  0  0
   53.6520  -43.4430   14.3710 C   0  0  0  0  0  3  0  0  0  0  0  0
   54.3700  -44.6950   13.8790 C   0  0  0  0  0  1  0  0  0  0  0  0
  1  3  1  0  0  0  0
  1 23  1  0  0  0  0
  2  1  2  0  0  0  0
  3  9  1  0  0  0  0
  4  5  1  0  0  0  0
  4  3  1  0  0  0  0
  5  6  1  0  0  0  0
  6 10  1  0  0  0  0
  6  7  1  0  0  0  0
  7  8  1  6  0  0  0
  9  8  1  6  0  0  0
  9  7  1  0  0  0  0
 10 11  1  0  0  0  0
 11 12  2  0  0  0  0
 13 12  1  0  0  0  0
 14 13  2  0  0  0  0
 15 14  1  0  0  0  0
 15 10  2  0  0  0  0
 16 15  1  0  0  0  0
 16 17  1  1  0  0  0
 18 19  1  0  0  0  0
 18 16  1  0  0  0  0
 19 21  1  0  0  0  0
 20 19  2  0  0  0  0
 21 22  1  0  0  0  0
 21 14  1  0  0  0  0
 23 31  1  6  0  0  0
 23 24  1  0  0  0  0
 24 25  1  0  0  0  0
 25 26  2  0  0  0  0
 27 28  1  0  0  0  0
 27 26  1  0  0  0  0
 29 27  2  0  0  0  0
 30 29  1  0  0  0  0
 30 24  2  0  0  0  0
 32 33  1  0  0  0  0
 32 34  1  0  0  0  0
 32 31  1  0  0  0  0
 35 36  1  0  0  0  0
 36 32  1  0  0  0  0
 37 36  1  0  0  0  0
M  END
>  <minimizedAffinity>
-4.38685989

$$$$

 OpenBabel11232419433D

 37 41  0  0  1  0  0  0  0  0999 V2000
   64.0280  -44.6460   16.1570 C   0  0  0  0  0  0  0  0  0  0  0  0
   64.6400  -45.4010   16.9270 O   0  0  0  0  0  0  0  0  0  0  0  0
   63.3800  -43.5080   16.6160 N   0  0  0  0  0  0  0  0  0  0  0  0
   63.4220  -43.2750   18.0770 C   0  0  0  0  0  2  0  0  0  0  0  0
   62.8100  -41.9700   18.6100 C   0  0  0  0  0  2  0  0  0  0  0  0
   61.5160  -41.7430   17.9660 N   0  0  0  0  0  0  0  0  0  0  0  0
   61.5570  -41.7030   16.4970 C   0  0  1  0  0  3  0  0  0  0  0  0
   62.7250  -41.1850   15.7020 C   0  0  0  0  0  2  0  0  0  0  0  0
   62.5060  -42.6670   15.8140 C   0  0  1  0  0  3  0  0  0  0  0  0
   60.6130  -40.9580   18.7000 C   0  0  0  0  0  0  0  0  0  0  0  0
   61.1000  -39.8770   19.3400 N   0  0  0  0  0  0  0  0  0  0  0  0
   60.2560  -39.1870   20.1200 C   0  0  0  0  0  3  0  0  0  0  0  0
   58.9890  -39.5120   20.3820 N   0  0  0  0  0  0  0  0  0  0  0  0
   58.5530  -40.6210   19.7810 C   0  0  0  0  0  0  0  0  0  0  0  0
   59.2910  -41.3610   18.8700 C   0  0  0  0  0  0  0  0  0  0  0  0
   58.6310  -42.5290   18.1850 C   0  0  2  0  0  3  0  0  0  0  0  0
   57.8140  -42.0740   16.9660 C   0  0  0  0  0  1  0  0  0  0  0  0
   57.7240  -43.2560   19.1800 C   0  0  0  0  0  2  0  0  0  0  0  0
   56.7820  -42.2970   19.8730 C   0  0  0  0  0  0  0  0  0  0  0  0
   55.6590  -42.6390   20.2380 O   0  0  0  0  0  0  0  0  0  0  0  0
   57.2880  -41.0630   20.1600 N   0  0  0  0  0  0  0  0  0  0  0  0
   56.7380  -40.4470   20.7420 H   0  0  0  0  0  0  0  0  0  0  0  0
   63.8770  -45.0630   14.6920 C   0  0  1  0  0  3  0  0  0  0  0  0
   62.4920  -44.8180   14.1160 C   0  0  0  0  0  0  0  0  0  0  0  0
   62.2960  -44.0750   12.9400 C   0  0  0  0  0  3  0  0  0  0  0  0
   61.0150  -43.9160   12.4050 C   0  0  0  0  0  3  0  0  0  0  0  0
   59.9200  -44.5040   13.0320 C   0  0  0  0  0  0  0  0  0  0  0  0
   58.3480  -44.3190   12.3630 Cl  0  0  0  0  0  0  0  0  0  0  0  0
   60.0960  -45.2480   14.1950 C   0  0  0  0  0  3  0  0  0  0  0  0
   61.3750  -45.4040   14.7360 C   0  0  0  0  0  3  0  0  0  0  0  0
   64.9210  -44.3130   13.8250 C   0  0  0  0  0  2  0  0  0  0  0  0
   66.1090  -43.8010   14.6040 N   0  0  0  0  0  4  0  0  0  0  0  0
   66.9080  -44.3920   14.2880 H   0  0  0  0  0  0  0  0  0  0  0  0
   65.9930  -44.0460   15.5980 H   0  0  0  0  0  0  0  0  0  0  0  0
   65.7000  -41.7130   13.3450 C   0  0  0  0  0  1  0  0  0  0  0  0
   66.4930  -42.3570   14.4730 C   0  0  0  0  0  3  0  0  0  0  0  0
   66.2220  -41.6750   15.8100 C   0  0  0  0  0  1  0  0  0  0  0  0
  1  3  1  0  0  0  0
  1  2  2  0  0  0  0
  3  4  1  0  0  0  0
  4  5  1  0  0  0  0
  6  5  1  0  0  0  0
  6 10  1  0  0  0  0
  7  8  1  1  0  0  0
  7  6  1  0  0  0  0
  9  8  1  6  0  0  0
  9  7  1  0  0  0  0
  9  3  1  0  0  0  0
 10 15  2  0  0  0  0
 10 11  1  0  0  0  0
 11 12  2  0  0  0  0
 12 13  1  0  0  0  0
 14 21  1  0  0  0  0
 14 13  2  0  0  0  0
 15 14  1  0  0  0  0
 16 17  1  6  0  0  0
 16 15  1  0  0  0  0
 16 18  1  0  0  0  0
 18 19  1  0  0  0  0
 19 21  1  0  0  0  0
 19 20  2  0  0  0  0
 21 22  1  0  0  0  0
 23 31  1  6  0  0  0
 23  1  1  0  0  0  0
 24 23  1  0  0  0  0
 24 30  1  0  0  0  0
 25 24  2  0  0  0  0
 26 25  1  0  0  0  0
 26 27  2  0  0  0  0
 27 29  1  0  0  0  0
 28 27  1  0  0  0  0
 29 30  2  0  0  0  0
 31 32  1  0  0  0  0
 32 34  1  0  0  0  0
 33 32  1  0  0  0  0
 35 36  1  0  0  0  0
 36 32  1  0  0  0  0
 36 37  1  0  0  0  0
M  END
>  <minimizedAffinity>
-4.24155092

$$$$

 OpenBabel11232419433D

 37 41  0  0  1  0  0  0  0  0999 V2000
   57.0550  -42.4430   16.4960 C   0  0  0  0  0  0  0  0  0  0  0  0
   57.0260  -43.0600   15.4200 O   0  0  0  0  0  0  0  0  0  0  0  0
   58.2260  -41.8770   16.9790 N   0  0  0  0  0  0  0  0  0  0  0  0
   59.4430  -42.0930   16.1640 C   0  0  0  0  0  2  0  0  0  0  0  0
   60.7350  -41.3900   16.6100 C   0  0  0  0  0  2  0  0  0  0  0  0
   60.9000  -41.5510   18.0550 N   0  0  0  0  0  0  0  0  0  0  0  0
   59.7720  -41.0650   18.8630 C   0  0  1  0  0  3  0  0  0  0  0  0
   58.9080  -39.8920   18.4820 C   0  0  0  0  0  2  0  0  0  0  0  0
   58.3820  -41.2880   18.2990 C   0  0  1  0  0  3  0  0  0  0  0  0
   62.2230  -41.4770   18.5170 C   0  0  0  0  0  0  0  0  0  0  0  0
   62.5830  -40.3830   19.2160 N   0  0  0  0  0  0  0  0  0  0  0  0
   63.8710  -40.2690   19.5690 C   0  0  0  0  0  3  0  0  0  0  0  0
   64.8520  -41.1060   19.2310 N   0  0  0  0  0  0  0  0  0  0  0  0
   64.4760  -42.1500   18.4880 C   0  0  0  0  0  0  0  0  0  0  0  0
   63.1630  -42.4360   18.1480 C   0  0  0  0  0  0  0  0  0  0  0  0
   62.8730  -43.7100   17.3970 C   0  0  2  0  0  3  0  0  0  0  0  0
   62.7580  -44.9090   18.3520 C   0  0  0  0  0  1  0  0  0  0  0  0
   63.9830  -43.9610   16.3740 C   0  0  0  0  0  2  0  0  0  0  0  0
   65.3520  -43.8850   17.0130 C   0  0  0  0  0  0  0  0  0  0  0  0
   66.2960  -44.5610   16.6100 O   0  0  0  0  0  0  0  0  0  0  0  0
   65.5030  -42.9500   17.9950 N   0  0  0  0  0  0  0  0  0  0  0  0
   66.4350  -42.7760   18.3470 H   0  0  0  0  0  0  0  0  0  0  0  0
   55.7940  -42.4300   17.3640 C   0  0  1  0  0  3  0  0  0  0  0  0
   55.9220  -43.2210   18.6550 C   0  0  0  0  0  0  0  0  0  0  0  0
   56.5870  -44.4570   18.7080 C   0  0  0  0  0  3  0  0  0  0  0  0
   56.7360  -45.1340   19.9220 C   0  0  0  0  0  3  0  0  0  0  0  0
   56.2330  -44.5780   21.0950 C   0  0  0  0  0  0  0  0  0  0  0  0
   56.4330  -45.4040   22.5890 Cl  0  0  0  0  0  0  0  0  0  0  0  0
   55.5760  -43.3510   21.0630 C   0  0  0  0  0  3  0  0  0  0  0  0
   55.4190  -42.6750   19.8500 C   0  0  0  0  0  3  0  0  0  0  0  0
   55.4110  -40.9680   17.7070 C   0  0  0  0  0  2  0  0  0  0  0  0
   53.9710  -40.6260   17.4080 N   0  0  0  0  0  4  0  0  0  0  0  0
   53.4410  -40.9620   18.2400 H   0  0  0  0  0  0  0  0  0  0  0  0
   53.6360  -41.2220   16.6380 H   0  0  0  0  0  0  0  0  0  0  0  0
   54.5670  -38.2750   17.8850 C   0  0  0  0  0  1  0  0  0  0  0  0
   53.6060  -39.1950   17.1460 C   0  0  0  0  0  3  0  0  0  0  0  0
   53.6560  -38.9640   15.6390 C   0  0  0  0  0  1  0  0  0  0  0  0
  1  3  1  0  0  0  0
  1 23  1  0  0  0  0
  2  1  2  0  0  0  0
  3  9  1  0  0  0  0
  4  5  1  0  0  0  0
  4  3  1  0  0  0  0
  5  6  1  0  0  0  0
  6 10  1  0  0  0  0
  6  7  1  0  0  0  0
  7  8  1  6  0  0  0
  9  8  1  6  0  0  0
  9  7  1  0  0  0  0
 10 11  1  0  0  0  0
 11 12  2  0  0  0  0
 13 12  1  0  0  0  0
 14 13  2  0  0  0  0
 15 14  1  0  0  0  0
 15 10  2  0  0  0  0
 16 15  1  0  0  0  0
 16 17  1  1  0  0  0
 18 19  1  0  0  0  0
 18 16  1  0  0  0  0
 19 21  1  0  0  0  0
 20 19  2  0  0  0  0
 21 22  1  0  0  0  0
 21 14  1  0  0  0  0
 23 31  1  1  0  0  0
 23 24  1  0  0  0  0
 24 25  2  0  0  0  0
 24 30  1  0  0  0  0
 25 26  1  0  0  0  0
 26 27  2  0  0  0  0
 27 28  1  0  0  0  0
 29 27  1  0  0  0  0
 30 29  2  0  0  0  0
 32 31  1  0  0  0  0
 32 33  1  0  0  0  0
 34 32  1  0  0  0  0
 36 32  1  0  0  0  0
 36 35  1  0  0  0  0
 37 36  1  0  0  0  0
M  END
>  <minimizedAffinity>
-4.15586758

$$$$

 OpenBabel11232419433D

 37 41  0  0  1  0  0  0  0  0999 V2000
   54.6060  -42.2710   18.8430 C   0  0  0  0  0  0  0  0  0  0  0  0
   54.2700  -42.5880   19.9940 O   0  0  0  0  0  0  0  0  0  0  0  0
   55.8660  -42.5670   18.3440 N   0  0  0  0  0  0  0  0  0  0  0  0
   56.7980  -43.2390   19.2780 C   0  0  0  0  0  2  0  0  0  0  0  0
   58.1640  -43.6800   18.7290 C   0  0  0  0  0  2  0  0  0  0  0  0
   58.7360  -42.5990   17.9260 N   0  0  0  0  0  0  0  0  0  0  0  0
   57.8870  -42.1380   16.8180 C   0  0  1  0  0  3  0  0  0  0  0  0
   56.9500  -43.0300   16.0480 C   0  0  0  0  0  2  0  0  0  0  0  0
   56.3940  -42.0870   17.0780 C   0  0  1  0  0  3  0  0  0  0  0  0
   60.1370  -42.6040   17.8290 C   0  0  0  0  0  0  0  0  0  0  0  0
   60.7290  -43.7260   17.3740 N   0  0  0  0  0  0  0  0  0  0  0  0
   62.0680  -43.7630   17.3760 C   0  0  0  0  0  3  0  0  0  0  0  0
   62.8770  -42.8170   17.8560 N   0  0  0  0  0  0  0  0  0  0  0  0
   62.2600  -41.7430   18.3540 C   0  0  0  0  0  0  0  0  0  0  0  0
   60.8900  -41.5380   18.3130 C   0  0  0  0  0  0  0  0  0  0  0  0
   60.3400  -40.2280   18.8150 C   0  0  2  0  0  3  0  0  0  0  0  0
   60.4120  -39.1390   17.7320 C   0  0  0  0  0  1  0  0  0  0  0  0
   61.1270  -39.7870   20.0510 C   0  0  0  0  0  2  0  0  0  0  0  0
   62.6170  -39.8070   19.7950 C   0  0  0  0  0  0  0  0  0  0  0  0
   63.3820  -39.0180   20.3460 O   0  0  0  0  0  0  0  0  0  0  0  0
   63.0750  -40.8150   18.9980 N   0  0  0  0  0  0  0  0  0  0  0  0
   64.0740  -40.9430   18.9180 H   0  0  0  0  0  0  0  0  0  0  0  0
   53.6460  -41.4150   18.0130 C   0  0  1  0  0  3  0  0  0  0  0  0
   53.8140  -39.9180   18.2190 C   0  0  0  0  0  0  0  0  0  0  0  0
   54.7430  -39.1650   17.4830 C   0  0  0  0  0  3  0  0  0  0  0  0
   54.8330  -37.7800   17.6560 C   0  0  0  0  0  3  0  0  0  0  0  0
   53.9900  -37.1350   18.5570 C   0  0  0  0  0  0  0  0  0  0  0  0
   54.0920  -35.4310   18.7550 Cl  0  0  0  0  0  0  0  0  0  0  0  0
   53.0590  -37.8640   19.2910 C   0  0  0  0  0  3  0  0  0  0  0  0
   52.9710  -39.2490   19.1240 C   0  0  0  0  0  3  0  0  0  0  0  0
   53.8270  -41.7370   16.5070 C   0  0  0  0  0  2  0  0  0  0  0  0
   52.6810  -41.2760   15.6400 N   0  0  0  0  0  4  0  0  0  0  0  0
   52.1820  -40.5650   16.2160 H   0  0  0  0  0  0  0  0  0  0  0  0
   52.0010  -42.0430   15.5430 H   0  0  0  0  0  0  0  0  0  0  0  0
   52.8360  -39.1710   14.3530 C   0  0  0  0  0  1  0  0  0  0  0  0
   52.9830  -40.6840   14.2950 C   0  0  0  0  0  3  0  0  0  0  0  0
   54.3990  -41.0950   13.9070 C   0  0  0  0  0  1  0  0  0  0  0  0
  1  2  2  0  0  0  0
  3  1  1  0  0  0  0
  3  4  1  0  0  0  0
  5  4  1  0  0  0  0
  6  5  1  0  0  0  0
  7  8  1  6  0  0  0
  7  9  1  0  0  0  0
  7  6  1  0  0  0  0
  9  8  1  6  0  0  0
  9  3  1  0  0  0  0
 10  6  1  0  0  0  0
 10 15  1  0  0  0  0
 11 12  1  0  0  0  0
 11 10  2  0  0  0  0
 12 13  2  0  0  0  0
 13 14  1  0  0  0  0
 14 21  1  0  0  0  0
 15 14  2  0  0  0  0
 15 16  1  0  0  0  0
 16 17  1  6  0  0  0
 16 18  1  0  0  0  0
 19 18  1  0  0  0  0
 19 20  2  0  0  0  0
 21 19  1  0  0  0  0
 22 21  1  0  0  0  0
 23 31  1  6  0  0  0
 23 24  1  0  0  0  0
 23  1  1  0  0  0  0
 24 30  1  0  0  0  0
 25 26  1  0  0  0  0
 25 24  2  0  0  0  0
 26 27  2  0  0  0  0
 27 28  1  0  0  0  0
 27 29  1  0  0  0  0
 30 29  2  0  0  0  0
 32 33  1  0  0  0  0
 32 31  1  0  0  0  0
 34 32  1  0  0  0  0
 36 35  1  0  0  0  0
 36 32  1  0  0  0  0
 37 36  1  0  0  0  0
M  END
>  <minimizedAffinity>
-4.11172867

$$$$
