
 OpenBabel11232419433D

 37 41  0  0  1  0  0  0  0  0999 V2000
   54.6060  -42.2710   18.8430 C   0  0  0  0  0  0  0  0  0  0  0  0
   54.2700  -42.5880   19.9940 O   0  0  0  0  0  0  0  0  0  0  0  0
   55.8660  -42.5670   18.3440 N   0  0  0  0  0  0  0  0  0  0  0  0
   56.7980  -43.2390   19.2780 C   0  0  0  0  0  2  0  0  0  0  0  0
   58.1640  -43.6800   18.7290 C   0  0  0  0  0  2  0  0  0  0  0  0
   58.7360  -42.5990   17.9260 N   0  0  0  0  0  0  0  0  0  0  0  0
   57.8870  -42.1380   16.8180 C   0  0  1  0  0  3  0  0  0  0  0  0
   56.9500  -43.0300   16.0480 C   0  0  0  0  0  2  0  0  0  0  0  0
   56.3940  -42.0870   17.0780 C   0  0  1  0  0  3  0  0  0  0  0  0
   60.1370  -42.6040   17.8290 C   0  0  0  0  0  0  0  0  0  0  0  0
   60.7290  -43.7260   17.3740 N   0  0  0  0  0  0  0  0  0  0  0  0
   62.0680  -43.7630   17.3760 C   0  0  0  0  0  3  0  0  0  0  0  0
   62.8770  -42.8170   17.8560 N   0  0  0  0  0  0  0  0  0  0  0  0
   62.2600  -41.7430   18.3540 C   0  0  0  0  0  0  0  0  0  0  0  0
   60.8900  -41.5380   18.3130 C   0  0  0  0  0  0  0  0  0  0  0  0
   60.3400  -40.2280   18.8150 C   0  0  2  0  0  3  0  0  0  0  0  0
   60.4120  -39.1390   17.7320 C   0  0  0  0  0  1  0  0  0  0  0  0
   61.1270  -39.7870   20.0510 C   0  0  0  0  0  2  0  0  0  0  0  0
   62.6170  -39.8070   19.7950 C   0  0  0  0  0  0  0  0  0  0  0  0
   63.3820  -39.0180   20.3460 O   0  0  0  0  0  0  0  0  0  0  0  0
   63.0750  -40.8150   18.9980 N   0  0  0  0  0  0  0  0  0  0  0  0
   64.0740  -40.9430   18.9180 H   0  0  0  0  0  0  0  0  0  0  0  0
   53.6460  -41.4150   18.0130 C   0  0  1  0  0  3  0  0  0  0  0  0
   53.8140  -39.9180   18.2190 C   0  0  0  0  0  0  0  0  0  0  0  0
   54.7430  -39.1650   17.4830 C   0  0  0  0  0  3  0  0  0  0  0  0
   54.8330  -37.7800   17.6560 C   0  0  0  0  0  3  0  0  0  0  0  0
   53.9900  -37.1350   18.5570 C   0  0  0  0  0  0  0  0  0  0  0  0
   54.0920  -35.4310   18.7550 Cl  0  0  0  0  0  0  0  0  0  0  0  0
   53.0590  -37.8640   19.2910 C   0  0  0  0  0  3  0  0  0  0  0  0
   52.9710  -39.2490   19.1240 C   0  0  0  0  0  3  0  0  0  0  0  0
   53.8270  -41.7370   16.5070 C   0  0  0  0  0  2  0  0  0  0  0  0
   52.6810  -41.2760   15.6400 N   0  0  0  0  0  4  0  0  0  0  0  0
   52.1820  -40.5650   16.2160 H   0  0  0  0  0  0  0  0  0  0  0  0
   52.0010  -42.0430   15.5430 H   0  0  0  0  0  0  0  0  0  0  0  0
   52.8360  -39.1710   14.3530 C   0  0  0  0  0  1  0  0  0  0  0  0
   52.9830  -40.6840   14.2950 C   0  0  0  0  0  3  0  0  0  0  0  0
   54.3990  -41.0950   13.9070 C   0  0  0  0  0  1  0  0  0  0  0  0
  1  2  2  0  0  0  0
  3  1  1  0  0  0  0
  3  4  1  0  0  0  0
  5  4  1  0  0  0  0
  6  5  1  0  0  0  0
  7  8  1  6  0  0  0
  7  9  1  0  0  0  0
  7  6  1  0  0  0  0
  9  8  1  6  0  0  0
  9  3  1  0  0  0  0
 10  6  1  0  0  0  0
 10 15  1  0  0  0  0
 11 12  1  0  0  0  0
 11 10  2  0  0  0  0
 12 13  2  0  0  0  0
 13 14  1  0  0  0  0
 14 21  1  0  0  0  0
 15 14  2  0  0  0  0
 15 16  1  0  0  0  0
 16 17  1  6  0  0  0
 16 18  1  0  0  0  0
 19 18  1  0  0  0  0
 19 20  2  0  0  0  0
 21 19  1  0  0  0  0
 22 21  1  0  0  0  0
 23 31  1  6  0  0  0
 23 24  1  0  0  0  0
 23  1  1  0  0  0  0
 24 30  1  0  0  0  0
 25 26  1  0  0  0  0
 25 24  2  0  0  0  0
 26 27  2  0  0  0  0
 27 28  1  0  0  0  0
 27 29  1  0  0  0  0
 30 29  2  0  0  0  0
 32 33  1  0  0  0  0
 32 31  1  0  0  0  0
 34 32  1  0  0  0  0
 36 35  1  0  0  0  0
 36 32  1  0  0  0  0
 37 36  1  0  0  0  0
M  END
>  <minimizedAffinity>
-4.11172867

$$$$
