
 OpenBabel11232419433D

 37 41  0  0  1  0  0  0  0  0999 V2000
   55.2460  -42.6120   19.4240 C   0  0  0  0  0  0  0  0  0  0  0  0
   55.0720  -43.0470   20.5720 O   0  0  0  0  0  0  0  0  0  0  0  0
   56.4990  -42.2210   18.9750 N   0  0  0  0  0  0  0  0  0  0  0  0
   57.6030  -42.3100   19.9580 C   0  0  0  0  0  2  0  0  0  0  0  0
   59.0240  -41.9910   19.4660 C   0  0  0  0  0  2  0  0  0  0  0  0
   58.9930  -40.7760   18.6510 N   0  0  0  0  0  0  0  0  0  0  0  0
   58.0760  -40.8260   17.5040 C   0  0  1  0  0  3  0  0  0  0  0  0
   57.7640  -42.0790   16.7300 C   0  0  0  0  0  2  0  0  0  0  0  0
   56.7590  -41.5480   17.7130 C   0  0  1  0  0  3  0  0  0  0  0  0
   60.2000  -40.0610   18.6000 C   0  0  0  0  0  0  0  0  0  0  0  0
   60.3210  -38.9780   19.3930 N   0  0  0  0  0  0  0  0  0  0  0  0
   61.4340  -38.2420   19.2700 C   0  0  0  0  0  3  0  0  0  0  0  0
   62.4080  -38.4390   18.3800 N   0  0  0  0  0  0  0  0  0  0  0  0
   62.2320  -39.4830   17.5690 C   0  0  0  0  0  0  0  0  0  0  0  0
   61.1810  -40.3820   17.6650 C   0  0  0  0  0  0  0  0  0  0  0  0
   61.1680  -41.5800   16.7510 C   0  0  2  0  0  3  0  0  0  0  0  0
   62.0330  -42.7200   17.3110 C   0  0  0  0  0  1  0  0  0  0  0  0
   61.6770  -41.1700   15.3680 C   0  0  0  0  0  2  0  0  0  0  0  0
   62.9990  -40.4400   15.4590 C   0  0  0  0  0  0  0  0  0  0  0  0
   63.8440  -40.5130   14.5690 O   0  0  0  0  0  0  0  0  0  0  0  0
   63.1560  -39.6160   16.5350 N   0  0  0  0  0  0  0  0  0  0  0  0
   63.9640  -39.0100   16.5570 H   0  0  0  0  0  0  0  0  0  0  0  0
   54.0190  -42.3770   18.5390 C   0  0  1  0  0  3  0  0  0  0  0  0
   53.9040  -40.9600   17.9990 C   0  0  0  0  0  0  0  0  0  0  0  0
   54.0060  -39.8360   18.8340 C   0  0  0  0  0  3  0  0  0  0  0  0
   53.9530  -38.5450   18.2990 C   0  0  0  0  0  3  0  0  0  0  0  0
   53.8090  -38.3660   16.9260 C   0  0  0  0  0  0  0  0  0  0  0  0
   53.7610  -36.7790   16.2700 Cl  0  0  0  0  0  0  0  0  0  0  0  0
   53.7120  -39.4690   16.0830 C   0  0  0  0  0  3  0  0  0  0  0  0
   53.7590  -40.7600   16.6150 C   0  0  0  0  0  3  0  0  0  0  0  0
   54.0370  -43.3680   17.3470 C   0  0  0  0  0  2  0  0  0  0  0  0
   54.5720  -44.7360   17.6970 N   0  0  0  0  0  4  0  0  0  0  0  0
   53.7240  -45.3340   17.7970 H   0  0  0  0  0  0  0  0  0  0  0  0
   54.9740  -44.7090   18.6450 H   0  0  0  0  0  0  0  0  0  0  0  0
   55.5340  -44.6670   15.4210 C   0  0  0  0  0  1  0  0  0  0  0  0
   55.5270  -45.4040   16.7520 C   0  0  0  0  0  3  0  0  0  0  0  0
   56.9070  -45.4040   17.4010 C   0  0  0  0  0  1  0  0  0  0  0  0
  1  2  2  0  0  0  0
  3  1  1  0  0  0  0
  3  4  1  0  0  0  0
  5  4  1  0  0  0  0
  6  5  1  0  0  0  0
  7  8  1  6  0  0  0
  7  9  1  0  0  0  0
  7  6  1  0  0  0  0
  9  8  1  6  0  0  0
  9  3  1  0  0  0  0
 10  6  1  0  0  0  0
 10 11  1  0  0  0  0
 12 11  2  0  0  0  0
 13 12  1  0  0  0  0
 14 15  1  0  0  0  0
 14 13  2  0  0  0  0
 15 10  2  0  0  0  0
 16 17  1  1  0  0  0
 16 15  1  0  0  0  0
 18 19  1  0  0  0  0
 18 16  1  0  0  0  0
 19 21  1  0  0  0  0
 20 19  2  0  0  0  0
 21 22  1  0  0  0  0
 21 14  1  0  0  0  0
 23 31  1  6  0  0  0
 23  1  1  0  0  0  0
 24 23  1  0  0  0  0
 24 25  1  0  0  0  0
 26 25  2  0  0  0  0
 27 26  1  0  0  0  0
 28 27  1  0  0  0  0
 29 30  1  0  0  0  0
 29 27  2  0  0  0  0
 30 24  2  0  0  0  0
 31 32  1  0  0  0  0
 32 33  1  0  0  0  0
 32 34  1  0  0  0  0
 35 36  1  0  0  0  0
 36 37  1  0  0  0  0
 36 32  1  0  0  0  0
M  END
>  <minimizedAffinity>
-4.40502739

$$$$
