
 OpenBabel11232419433D

 37 41  0  0  1  0  0  0  0  0999 V2000
   57.1610  -42.7980   16.4140 C   0  0  0  0  0  0  0  0  0  0  0  0
   57.1440  -43.1210   15.2170 O   0  0  0  0  0  0  0  0  0  0  0  0
   58.2830  -42.2280   16.9980 N   0  0  0  0  0  0  0  0  0  0  0  0
   59.4680  -42.0730   16.1250 C   0  0  0  0  0  2  0  0  0  0  0  0
   60.6930  -41.3470   16.7050 C   0  0  0  0  0  2  0  0  0  0  0  0
   60.9570  -41.8460   18.0550 N   0  0  0  0  0  0  0  0  0  0  0  0
   59.8280  -41.7290   18.9880 C   0  0  1  0  0  3  0  0  0  0  0  0
   58.8120  -40.6180   18.9450 C   0  0  0  0  0  2  0  0  0  0  0  0
   58.4440  -41.9780   18.4210 C   0  0  1  0  0  3  0  0  0  0  0  0
   62.2870  -41.7230   18.4860 C   0  0  0  0  0  0  0  0  0  0  0  0
   62.6230  -40.6110   19.1700 N   0  0  0  0  0  0  0  0  0  0  0  0
   63.9140  -40.4500   19.4940 C   0  0  0  0  0  3  0  0  0  0  0  0
   64.9160  -41.2560   19.1400 N   0  0  0  0  0  0  0  0  0  0  0  0
   64.5600  -42.3170   18.4130 C   0  0  0  0  0  0  0  0  0  0  0  0
   63.2510  -42.6520   18.1040 C   0  0  0  0  0  0  0  0  0  0  0  0
   62.9890  -43.9410   17.3690 C   0  0  2  0  0  3  0  0  0  0  0  0
   62.9370  -45.1350   18.3340 C   0  0  0  0  0  1  0  0  0  0  0  0
   64.0850  -44.1620   16.3240 C   0  0  0  0  0  2  0  0  0  0  0  0
   65.4640  -44.0330   16.9320 C   0  0  0  0  0  0  0  0  0  0  0  0
   66.4220  -44.6790   16.5130 O   0  0  0  0  0  0  0  0  0  0  0  0
   65.6040  -43.0850   17.9040 N   0  0  0  0  0  0  0  0  0  0  0  0
   66.5370  -42.8760   18.2340 H   0  0  0  0  0  0  0  0  0  0  0  0
   55.9590  -43.1670   17.2870 C   0  0  1  0  0  3  0  0  0  0  0  0
   55.1780  -41.9700   17.8060 C   0  0  0  0  0  0  0  0  0  0  0  0
   54.5250  -41.9910   19.0490 C   0  0  0  0  0  3  0  0  0  0  0  0
   53.8630  -40.8550   19.5240 C   0  0  0  0  0  3  0  0  0  0  0  0
   53.8560  -39.6860   18.7680 C   0  0  0  0  0  0  0  0  0  0  0  0
   53.0560  -38.2860   19.3620 Cl  0  0  0  0  0  0  0  0  0  0  0  0
   54.5030  -39.6450   17.5370 C   0  0  0  0  0  3  0  0  0  0  0  0
   55.1610  -40.7810   17.0560 C   0  0  0  0  0  3  0  0  0  0  0  0
   54.9980  -44.0860   16.4910 C   0  0  0  0  0  2  0  0  0  0  0  0
   53.8380  -43.3570   15.8570 N   0  0  0  0  0  4  0  0  0  0  0  0
   53.9760  -42.3580   16.1210 H   0  0  0  0  0  0  0  0  0  0  0  0
   52.9670  -43.6260   16.3370 H   0  0  0  0  0  0  0  0  0  0  0  0
   54.2020  -42.1870   13.7100 C   0  0  0  0  0  1  0  0  0  0  0  0
   53.6520  -43.4430   14.3710 C   0  0  0  0  0  3  0  0  0  0  0  0
   54.3700  -44.6950   13.8790 C   0  0  0  0  0  1  0  0  0  0  0  0
  1  3  1  0  0  0  0
  1 23  1  0  0  0  0
  2  1  2  0  0  0  0
  3  9  1  0  0  0  0
  4  5  1  0  0  0  0
  4  3  1  0  0  0  0
  5  6  1  0  0  0  0
  6 10  1  0  0  0  0
  6  7  1  0  0  0  0
  7  8  1  6  0  0  0
  9  8  1  6  0  0  0
  9  7  1  0  0  0  0
 10 11  1  0  0  0  0
 11 12  2  0  0  0  0
 13 12  1  0  0  0  0
 14 13  2  0  0  0  0
 15 14  1  0  0  0  0
 15 10  2  0  0  0  0
 16 15  1  0  0  0  0
 16 17  1  1  0  0  0
 18 19  1  0  0  0  0
 18 16  1  0  0  0  0
 19 21  1  0  0  0  0
 20 19  2  0  0  0  0
 21 22  1  0  0  0  0
 21 14  1  0  0  0  0
 23 31  1  6  0  0  0
 23 24  1  0  0  0  0
 24 25  1  0  0  0  0
 25 26  2  0  0  0  0
 27 28  1  0  0  0  0
 27 26  1  0  0  0  0
 29 27  2  0  0  0  0
 30 29  1  0  0  0  0
 30 24  2  0  0  0  0
 32 33  1  0  0  0  0
 32 34  1  0  0  0  0
 32 31  1  0  0  0  0
 35 36  1  0  0  0  0
 36 32  1  0  0  0  0
 37 36  1  0  0  0  0
M  END
>  <minimizedAffinity>
-4.38685989

$$$$
