
 OpenBabel11232419093D

 39 45  0  0  1  0  0  0  0  0999 V2000
   36.8750   45.0330   17.3750 C   0  0  0  0  0  0  0  0  0  0  0  0
   37.5520   44.9150   18.5710 N   0  0  0  0  0  0  0  0  0  0  0  0
   38.6980   45.5320   18.3990 C   0  0  0  0  0  0  0  0  0  0  0  0
   38.7740   46.0620   17.1400 N   0  0  0  0  0  0  0  0  0  0  0  0
   37.6130   45.7740   16.4590 C   0  0  0  0  0  0  0  0  0  0  0  0
   39.8810   46.9130   16.7490 C   0  0  0  0  0  2  0  0  0  0  0  0
   41.1080   46.5880   17.4350 O   0  0  0  0  0  0  0  0  0  0  0  0
   40.9920   46.2420   18.7610 C   0  0  0  0  0  0  0  0  0  0  0  0
   42.1340   46.3830   19.5490 C   0  0  0  0  0  3  0  0  0  0  0  0
   42.0980   46.0170   20.8960 C   0  0  0  0  0  3  0  0  0  0  0  0
   40.9240   45.5000   21.4440 C   0  0  0  0  0  3  0  0  0  0  0  0
   39.7920   45.3430   20.6450 C   0  0  0  0  0  0  0  0  0  0  0  0
   38.6840   44.8370   21.2060 F   0  0  0  0  0  0  0  0  0  0  0  0
   39.8150   45.7050   19.2990 C   0  0  0  0  0  0  0  0  0  0  0  0
   37.3220   46.2620   15.1180 C   0  0  0  0  0  0  0  0  0  0  0  0
   37.2730   47.6360   14.8590 C   0  0  0  0  0  3  0  0  0  0  0  0
   36.9830   48.0990   13.5740 C   0  0  0  0  0  3  0  0  0  0  0  0
   36.7410   47.1910   12.5440 C   0  0  0  0  0  3  0  0  0  0  0  0
   36.7910   45.8210   12.7940 C   0  0  0  0  0  3  0  0  0  0  0  0
   37.0830   45.3560   14.0780 C   0  0  0  0  0  3  0  0  0  0  0  0
   32.9130   43.3430   17.0550 C   0  0  0  0  0  0  0  0  0  0  0  0
   33.1370   44.7080   17.3220 C   0  0  0  0  0  3  0  0  0  0  0  0
   34.4270   45.2450   17.4040 C   0  0  0  0  0  3  0  0  0  0  0  0
   35.5550   44.4420   17.2100 C   0  0  0  0  0  0  0  0  0  0  0  0
   35.3600   43.0890   16.9330 C   0  0  0  0  0  3  0  0  0  0  0  0
   34.0660   42.5550   16.8540 C   0  0  0  0  0  3  0  0  0  0  0  0
   31.4600   42.7340   16.9850 C   0  0  2  0  0  0  0  0  0  0  0  0
   30.5610   43.0350   15.7520 C   0  0  0  0  0  2  0  0  0  0  0  0
   29.3220   42.9380   16.7120 C   0  0  1  0  0  0  0  0  0  0  0  0
   30.3250   43.3740   17.8390 C   0  0  0  0  0  2  0  0  0  0  0  0
   31.5690   41.2720   17.2230 N   0  0  0  0  0  4  0  0  0  0  0  0
   30.6260   40.8390   17.1690 H   0  0  0  0  0  0  0  0  0  0  0  0
   31.9620   41.0580   18.1460 H   0  0  0  0  0  0  0  0  0  0  0  0
   32.1580   40.8140   16.5180 H   0  0  0  0  0  0  0  0  0  0  0  0
   28.1530   43.8360   16.3640 C   0  0  0  0  0  3  0  0  0  0  0  0
   26.9050   43.3370   15.6860 C   0  0  0  0  0  2  0  0  0  0  0  0
   26.8340   43.8910   17.0840 C   0  0  0  0  0  2  0  0  0  0  0  0
   28.9110   41.5500   16.9070 O   0  0  0  0  0  0  0  0  0  0  0  0
   27.9700   41.6100   17.1780 H   0  0  0  0  0  0  0  0  0  0  0  0
  1  2  1  0  0  0  0
  3  2  2  0  0  0  0
  3 14  1  0  0  0  0
  4  3  1  0  0  0  0
  5  4  1  0  0  0  0
  5  1  2  0  0  0  0
  6  4  1  0  0  0  0
  6  7  1  0  0  0  0
  7  8  1  0  0  0  0
  8 14  2  0  0  0  0
  8  9  1  0  0  0  0
  9 10  2  0  0  0  0
 10 11  1  0  0  0  0
 12 13  1  0  0  0  0
 12 11  2  0  0  0  0
 14 12  1  0  0  0  0
 15  5  1  0  0  0  0
 16 15  1  0  0  0  0
 17 16  2  0  0  0  0
 18 19  2  0  0  0  0
 18 17  1  0  0  0  0
 19 20  1  0  0  0  0
 20 15  2  0  0  0  0
 21 22  1  0  0  0  0
 22 23  2  0  0  0  0
 24  1  1  0  0  0  0
 24 23  1  0  0  0  0
 25 24  2  0  0  0  0
 26 25  1  0  0  0  0
 26 21  2  0  0  0  0
 27 21  1  0  0  0  0
 27 31  1  1  0  0  0
 27 30  1  0  0  0  0
 28 29  1  0  0  0  0
 28 27  1  0  0  0  0
 29 38  1  1  0  0  0
 29 30  1  0  0  0  0
 31 33  1  0  0  0  0
 32 31  1  0  0  0  0
 34 31  1  0  0  0  0
 35 29  1  0  0  0  0
 35 37  1  0  0  0  0
 36 35  1  0  0  0  0
 36 37  1  0  0  0  0
 38 39  1  0  0  0  0
M  END
>  <minimizedAffinity>
-12.9880152

$$$$

 OpenBabel11232419093D

 39 45  0  0  1  0  0  0  0  0999 V2000
   36.2710   44.8760   17.0990 C   0  0  0  0  0  0  0  0  0  0  0  0
   36.8580   44.6970   18.3350 N   0  0  0  0  0  0  0  0  0  0  0  0
   38.0730   45.1820   18.2310 C   0  0  0  0  0  0  0  0  0  0  0  0
   38.2830   45.6870   16.9770 N   0  0  0  0  0  0  0  0  0  0  0  0
   37.1410   45.5210   16.2270 C   0  0  0  0  0  0  0  0  0  0  0  0
   39.4990   46.4070   16.6520 C   0  0  0  0  0  2  0  0  0  0  0  0
   40.6390   45.9560   17.4140 O   0  0  0  0  0  0  0  0  0  0  0  0
   40.4050   45.6390   18.7300 C   0  0  0  0  0  0  0  0  0  0  0  0
   41.5060   45.6610   19.5870 C   0  0  0  0  0  3  0  0  0  0  0  0
   41.3470   45.3160   20.9310 C   0  0  0  0  0  3  0  0  0  0  0  0
   40.0920   44.9370   21.4080 C   0  0  0  0  0  3  0  0  0  0  0  0
   39.0010   44.8970   20.5410 C   0  0  0  0  0  0  0  0  0  0  0  0
   37.8110   44.5220   21.0340 F   0  0  0  0  0  0  0  0  0  0  0  0
   39.1460   45.2400   19.1980 C   0  0  0  0  0  0  0  0  0  0  0  0
   36.9880   46.0250   14.8690 C   0  0  0  0  0  0  0  0  0  0  0  0
   36.9290   45.1390   13.7870 C   0  0  0  0  0  3  0  0  0  0  0  0
   36.7930   45.6270   12.4860 C   0  0  0  0  0  3  0  0  0  0  0  0
   36.7150   47.0010   12.2610 C   0  0  0  0  0  3  0  0  0  0  0  0
   36.7710   47.8880   13.3340 C   0  0  0  0  0  3  0  0  0  0  0  0
   36.9040   47.4030   14.6360 C   0  0  0  0  0  3  0  0  0  0  0  0
   32.1620   43.7330   16.4160 C   0  0  0  0  0  0  0  0  0  0  0  0
   32.7770   44.8020   15.7330 C   0  0  0  0  0  3  0  0  0  0  0  0
   34.1150   45.1480   15.9520 C   0  0  0  0  0  3  0  0  0  0  0  0
   34.9070   44.4330   16.8550 C   0  0  0  0  0  0  0  0  0  0  0  0
   34.3250   43.3630   17.5350 C   0  0  0  0  0  3  0  0  0  0  0  0
   32.9840   43.0200   17.3140 C   0  0  0  0  0  3  0  0  0  0  0  0
   30.6490   43.3570   16.1860 C   0  0  2  0  0  0  0  0  0  0  0  0
   29.6920   43.2450   17.4080 C   0  0  0  0  0  2  0  0  0  0  0  0
   28.9020   42.1490   16.6080 C   0  0  1  0  0  0  0  0  0  0  0  0
   30.2690   41.8770   15.8840 C   0  0  0  0  0  2  0  0  0  0  0  0
   30.1010   44.2850   15.1630 N   0  0  0  0  0  4  0  0  0  0  0  0
   29.0970   44.0700   15.0000 H   0  0  0  0  0  0  0  0  0  0  0  0
   30.5900   44.2040   14.2660 H   0  0  0  0  0  0  0  0  0  0  0  0
   30.1600   45.2640   15.4650 H   0  0  0  0  0  0  0  0  0  0  0  0
   28.2700   41.0560   17.4450 C   0  0  0  0  0  3  0  0  0  0  0  0
   27.0010   41.2510   18.2310 C   0  0  0  0  0  2  0  0  0  0  0  0
   27.0380   40.2700   17.0900 C   0  0  0  0  0  2  0  0  0  0  0  0
   27.9490   42.7530   15.6810 O   0  0  0  0  0  0  0  0  0  0  0  0
   27.2800   42.0530   15.5270 H   0  0  0  0  0  0  0  0  0  0  0  0
  1  2  1  0  0  0  0
  3  2  2  0  0  0  0
  3 14  1  0  0  0  0
  4  3  1  0  0  0  0
  5  4  1  0  0  0  0
  5  1  2  0  0  0  0
  6  4  1  0  0  0  0
  6  7  1  0  0  0  0
  7  8  1  0  0  0  0
  8 14  2  0  0  0  0
  8  9  1  0  0  0  0
  9 10  2  0  0  0  0
 10 11  1  0  0  0  0
 12 13  1  0  0  0  0
 12 11  2  0  0  0  0
 14 12  1  0  0  0  0
 15  5  1  0  0  0  0
 16 15  2  0  0  0  0
 17 16  1  0  0  0  0
 18 17  2  0  0  0  0
 18 19  1  0  0  0  0
 19 20  2  0  0  0  0
 20 15  1  0  0  0  0
 21 26  1  0  0  0  0
 22 23  1  0  0  0  0
 22 21  2  0  0  0  0
 23 24  2  0  0  0  0
 24  1  1  0  0  0  0
 24 25  1  0  0  0  0
 26 25  2  0  0  0  0
 27 31  1  6  0  0  0
 27 21  1  0  0  0  0
 27 28  1  0  0  0  0
 29 38  1  6  0  0  0
 29 28  1  0  0  0  0
 29 35  1  0  0  0  0
 30 27  1  0  0  0  0
 30 29  1  0  0  0  0
 31 34  1  0  0  0  0
 32 31  1  0  0  0  0
 33 31  1  0  0  0  0
 35 36  1  0  0  0  0
 37 35  1  0  0  0  0
 37 36  1  0  0  0  0
 39 38  1  0  0  0  0
M  END
>  <minimizedAffinity>
-12.7879333

$$$$

 OpenBabel11232419093D

 39 45  0  0  1  0  0  0  0  0999 V2000
   35.8510   44.2440   18.0980 C   0  0  0  0  0  0  0  0  0  0  0  0
   36.3310   44.9790   17.0340 N   0  0  0  0  0  0  0  0  0  0  0  0
   37.5200   45.4030   17.3960 C   0  0  0  0  0  0  0  0  0  0  0  0
   37.8300   44.9490   18.6480 N   0  0  0  0  0  0  0  0  0  0  0  0
   36.7860   44.1880   19.1240 C   0  0  0  0  0  0  0  0  0  0  0  0
   39.1460   45.1610   19.2190 C   0  0  0  0  0  2  0  0  0  0  0  0
   39.7710   46.3750   18.7510 O   0  0  0  0  0  0  0  0  0  0  0  0
   39.5810   46.6870   17.4260 C   0  0  0  0  0  0  0  0  0  0  0  0
   40.5130   47.5440   16.8420 C   0  0  0  0  0  3  0  0  0  0  0  0
   40.3610   47.9310   15.5090 C   0  0  0  0  0  3  0  0  0  0  0  0
   39.2710   47.4690   14.7710 C   0  0  0  0  0  3  0  0  0  0  0  0
   38.3320   46.6290   15.3670 C   0  0  0  0  0  0  0  0  0  0  0  0
   37.2940   46.2100   14.6280 F   0  0  0  0  0  0  0  0  0  0  0  0
   38.4730   46.2350   16.6970 C   0  0  0  0  0  0  0  0  0  0  0  0
   36.8190   43.4780   20.3960 C   0  0  0  0  0  0  0  0  0  0  0  0
   36.3900   42.1480   20.4770 C   0  0  0  0  0  3  0  0  0  0  0  0
   36.4130   41.4760   21.7010 C   0  0  0  0  0  3  0  0  0  0  0  0
   36.8650   42.1290   22.8470 C   0  0  0  0  0  3  0  0  0  0  0  0
   37.2960   43.4520   22.7720 C   0  0  0  0  0  3  0  0  0  0  0  0
   37.2770   44.1260   21.5490 C   0  0  0  0  0  3  0  0  0  0  0  0
   31.9820   42.3530   17.7540 C   0  0  0  0  0  0  0  0  0  0  0  0
   33.1910   41.6360   17.6480 C   0  0  0  0  0  3  0  0  0  0  0  0
   34.4360   42.2600   17.7800 C   0  0  0  0  0  3  0  0  0  0  0  0
   34.5320   43.6300   18.0380 C   0  0  0  0  0  0  0  0  0  0  0  0
   33.3500   44.3610   18.1600 C   0  0  0  0  0  3  0  0  0  0  0  0
   32.1040   43.7320   18.0250 C   0  0  0  0  0  3  0  0  0  0  0  0
   30.5800   41.6540   17.5820 C   0  0  2  0  0  0  0  0  0  0  0  0
   29.9930   41.4520   16.1550 C   0  0  0  0  0  2  0  0  0  0  0  0
   28.5650   41.5980   16.7920 C   0  0  1  0  0  0  0  0  0  0  0  0
   29.2840   42.4630   17.8880 C   0  0  0  0  0  2  0  0  0  0  0  0
   30.6170   40.3710   18.3310 N   0  0  0  0  0  4  0  0  0  0  0  0
   29.7080   39.8790   18.2250 H   0  0  0  0  0  0  0  0  0  0  0  0
   30.7840   40.5130   19.3320 H   0  0  0  0  0  0  0  0  0  0  0  0
   31.3480   39.7450   17.9770 H   0  0  0  0  0  0  0  0  0  0  0  0
   27.5160   42.2390   15.9050 C   0  0  0  0  0  3  0  0  0  0  0  0
   26.3810   41.4680   15.2860 C   0  0  0  0  0  2  0  0  0  0  0  0
   26.0970   42.5490   16.2950 C   0  0  0  0  0  2  0  0  0  0  0  0
   28.1060   40.3340   17.3620 O   0  0  0  0  0  0  0  0  0  0  0  0
   27.1290   40.4150   17.3810 H   0  0  0  0  0  0  0  0  0  0  0  0
  1  5  2  0  0  0  0
  2  3  2  0  0  0  0
  2  1  1  0  0  0  0
  3  4  1  0  0  0  0
  4  5  1  0  0  0  0
  4  6  1  0  0  0  0
  5 15  1  0  0  0  0
  7  6  1  0  0  0  0
  8  7  1  0  0  0  0
  9  8  1  0  0  0  0
 10  9  2  0  0  0  0
 11 12  2  0  0  0  0
 11 10  1  0  0  0  0
 12 14  1  0  0  0  0
 13 12  1  0  0  0  0
 14  3  1  0  0  0  0
 14  8  2  0  0  0  0
 15 16  2  0  0  0  0
 15 20  1  0  0  0  0
 16 17  1  0  0  0  0
 17 18  2  0  0  0  0
 19 18  1  0  0  0  0
 20 19  2  0  0  0  0
 21 26  1  0  0  0  0
 22 21  2  0  0  0  0
 22 23  1  0  0  0  0
 23 24  2  0  0  0  0
 24  1  1  0  0  0  0
 24 25  1  0  0  0  0
 26 25  2  0  0  0  0
 27 21  1  0  0  0  0
 27 30  1  0  0  0  0
 27 31  1  1  0  0  0
 28 29  1  0  0  0  0
 28 27  1  0  0  0  0
 29 38  1  1  0  0  0
 29 30  1  0  0  0  0
 31 33  1  0  0  0  0
 32 31  1  0  0  0  0
 34 31  1  0  0  0  0
 35 37  1  0  0  0  0
 35 29  1  0  0  0  0
 36 35  1  0  0  0  0
 36 37  1  0  0  0  0
 38 39  1  0  0  0  0
M  END
>  <minimizedAffinity>
-11.7455988

$$$$

 OpenBabel11232419093D

 39 45  0  0  1  0  0  0  0  0999 V2000
   37.2600   44.4080   19.6210 C   0  0  0  0  0  0  0  0  0  0  0  0
   38.2760   45.1790   19.0940 N   0  0  0  0  0  0  0  0  0  0  0  0
   37.9290   45.4340   17.8540 C   0  0  0  0  0  0  0  0  0  0  0  0
   36.7150   44.8710   17.5710 N   0  0  0  0  0  0  0  0  0  0  0  0
   36.2480   44.2170   18.6880 C   0  0  0  0  0  0  0  0  0  0  0  0
   36.0450   45.1270   16.3100 C   0  0  0  0  0  2  0  0  0  0  0  0
   36.9650   45.3650   15.2240 O   0  0  0  0  0  0  0  0  0  0  0  0
   38.0850   46.1030   15.5250 C   0  0  0  0  0  0  0  0  0  0  0  0
   38.7250   46.7360   14.4600 C   0  0  0  0  0  3  0  0  0  0  0  0
   39.8890   47.4740   14.6880 C   0  0  0  0  0  3  0  0  0  0  0  0
   40.4130   47.5640   15.9780 C   0  0  0  0  0  3  0  0  0  0  0  0
   39.7800   46.9110   17.0350 C   0  0  0  0  0  0  0  0  0  0  0  0
   40.3160   47.0150   18.2590 F   0  0  0  0  0  0  0  0  0  0  0  0
   38.6170   46.1720   16.8200 C   0  0  0  0  0  0  0  0  0  0  0  0
   34.9410   43.5780   18.7630 C   0  0  0  0  0  0  0  0  0  0  0  0
   34.7150   42.3500   18.1310 C   0  0  0  0  0  3  0  0  0  0  0  0
   33.4570   41.7470   18.1970 C   0  0  0  0  0  3  0  0  0  0  0  0
   32.4210   42.3690   18.8930 C   0  0  0  0  0  3  0  0  0  0  0  0
   32.6410   43.5910   19.5260 C   0  0  0  0  0  3  0  0  0  0  0  0
   33.8980   44.1950   19.4640 C   0  0  0  0  0  3  0  0  0  0  0  0
   37.2800   42.9710   23.6950 C   0  0  0  0  0  0  0  0  0  0  0  0
   36.7260   42.2320   22.6310 C   0  0  0  0  0  3  0  0  0  0  0  0
   36.7440   42.7030   21.3130 C   0  0  0  0  0  3  0  0  0  0  0  0
   37.3290   43.9310   20.9950 C   0  0  0  0  0  0  0  0  0  0  0  0
   37.8960   44.6780   22.0280 C   0  0  0  0  0  3  0  0  0  0  0  0
   37.8740   44.2030   23.3480 C   0  0  0  0  0  3  0  0  0  0  0  0
   37.2400   42.4510   25.1820 C   0  0  2  0  0  0  0  0  0  0  0  0
   37.4240   43.4600   26.3530 C   0  0  0  0  0  2  0  0  0  0  0  0
   38.0900   42.2940   27.1680 C   0  0  1  0  0  0  0  0  0  0  0  0
   38.4810   41.7090   25.7640 C   0  0  0  0  0  2  0  0  0  0  0  0
   35.9960   41.6580   25.3520 N   0  0  0  0  0  4  0  0  0  0  0  0
   35.9330   41.3120   26.3300 H   0  0  0  0  0  0  0  0  0  0  0  0
   35.9670   40.8450   24.7280 H   0  0  0  0  0  0  0  0  0  0  0  0
   35.1570   42.2200   25.1720 H   0  0  0  0  0  0  0  0  0  0  0  0
   39.1800   42.7100   28.1330 C   0  0  0  0  0  3  0  0  0  0  0  0
   40.3310   41.8160   28.5110 C   0  0  0  0  0  2  0  0  0  0  0  0
   40.5860   43.0990   27.7670 C   0  0  0  0  0  2  0  0  0  0  0  0
   37.0820   41.4510   27.8060 O   0  0  0  0  0  0  0  0  0  0  0  0
   37.5560   41.0250   28.5510 H   0  0  0  0  0  0  0  0  0  0  0  0
  1 24  1  0  0  0  0
  2  1  1  0  0  0  0
  3  2  2  0  0  0  0
  4  3  1  0  0  0  0
  4  5  1  0  0  0  0
  5 15  1  0  0  0  0
  5  1  2  0  0  0  0
  6  4  1  0  0  0  0
  7  8  1  0  0  0  0
  7  6  1  0  0  0  0
  8 14  1  0  0  0  0
  9 10  1  0  0  0  0
  9  8  2  0  0  0  0
 10 11  2  0  0  0  0
 11 12  1  0  0  0  0
 12 13  1  0  0  0  0
 14 12  2  0  0  0  0
 14  3  1  0  0  0  0
 15 20  1  0  0  0  0
 16 17  1  0  0  0  0
 16 15  2  0  0  0  0
 17 18  2  0  0  0  0
 18 19  1  0  0  0  0
 20 19  2  0  0  0  0
 21 27  1  0  0  0  0
 22 21  2  0  0  0  0
 23 22  1  0  0  0  0
 24 23  2  0  0  0  0
 24 25  1  0  0  0  0
 25 26  2  0  0  0  0
 26 21  1  0  0  0  0
 27 31  1  1  0  0  0
 27 30  1  0  0  0  0
 27 28  1  0  0  0  0
 28 29  1  0  0  0  0
 29 38  1  1  0  0  0
 29 35  1  0  0  0  0
 30 29  1  0  0  0  0
 31 32  1  0  0  0  0
 33 31  1  0  0  0  0
 34 31  1  0  0  0  0
 35 36  1  0  0  0  0
 37 35  1  0  0  0  0
 37 36  1  0  0  0  0
 38 39  1  0  0  0  0
M  END
>  <minimizedAffinity>
-11.6307774

$$$$

 OpenBabel11232419093D

 39 45  0  0  1  0  0  0  0  0999 V2000
   35.4930   44.5510   17.9640 C   0  0  0  0  0  0  0  0  0  0  0  0
   34.2760   43.9710   18.2600 N   0  0  0  0  0  0  0  0  0  0  0  0
   33.4890   44.2510   17.2480 C   0  0  0  0  0  0  0  0  0  0  0  0
   34.1620   44.9730   16.3010 N   0  0  0  0  0  0  0  0  0  0  0  0
   35.4570   45.1720   16.7210 C   0  0  0  0  0  0  0  0  0  0  0  0
   33.5530   45.2860   15.0220 C   0  0  0  0  0  2  0  0  0  0  0  0
   32.1180   45.4210   15.1020 O   0  0  0  0  0  0  0  0  0  0  0  0
   31.4680   44.5390   15.9320 C   0  0  0  0  0  0  0  0  0  0  0  0
   30.1120   44.3260   15.6840 C   0  0  0  0  0  3  0  0  0  0  0  0
   29.3810   43.4700   16.5100 C   0  0  0  0  0  3  0  0  0  0  0  0
   30.0070   42.8410   17.5870 C   0  0  0  0  0  3  0  0  0  0  0  0
   31.3570   43.0750   17.8410 C   0  0  0  0  0  0  0  0  0  0  0  0
   31.9230   42.4570   18.8890 F   0  0  0  0  0  0  0  0  0  0  0  0
   32.0980   43.9270   17.0230 C   0  0  0  0  0  0  0  0  0  0  0  0
   36.4760   45.8300   15.9140 C   0  0  0  0  0  0  0  0  0  0  0  0
   37.2170   45.1020   14.9760 C   0  0  0  0  0  3  0  0  0  0  0  0
   38.2000   45.7360   14.2130 C   0  0  0  0  0  3  0  0  0  0  0  0
   38.4450   47.0970   14.3820 C   0  0  0  0  0  3  0  0  0  0  0  0
   37.7080   47.8290   15.3120 C   0  0  0  0  0  3  0  0  0  0  0  0
   36.7230   47.1980   16.0760 C   0  0  0  0  0  3  0  0  0  0  0  0
   38.7110   44.3420   20.8380 C   0  0  0  0  0  0  0  0  0  0  0  0
   37.3910   43.9600   21.1470 C   0  0  0  0  0  3  0  0  0  0  0  0
   36.3620   44.0150   20.1990 C   0  0  0  0  0  3  0  0  0  0  0  0
   36.6090   44.4450   18.8930 C   0  0  0  0  0  0  0  0  0  0  0  0
   37.9110   44.8180   18.5580 C   0  0  0  0  0  3  0  0  0  0  0  0
   38.9380   44.7620   19.5100 C   0  0  0  0  0  3  0  0  0  0  0  0
   39.8640   44.3010   21.9120 C   0  0  2  0  0  0  0  0  0  0  0  0
   39.8610   43.1890   23.0000 C   0  0  0  0  0  2  0  0  0  0  0  0
   40.5540   44.2170   23.9630 C   0  0  1  0  0  0  0  0  0  0  0  0
   39.8400   45.3140   23.0960 C   0  0  0  0  0  2  0  0  0  0  0  0
   41.1610   44.3340   21.1870 N   0  0  0  0  0  4  0  0  0  0  0  0
   41.9430   44.2940   21.8700 H   0  0  0  0  0  0  0  0  0  0  0  0
   41.2710   45.1890   20.6310 H   0  0  0  0  0  0  0  0  0  0  0  0
   41.2640   43.5330   20.5540 H   0  0  0  0  0  0  0  0  0  0  0  0
   40.2030   44.0790   25.4300 C   0  0  0  0  0  3  0  0  0  0  0  0
   40.4060   42.8070   26.2090 C   0  0  0  0  0  2  0  0  0  0  0  0
   41.1770   44.0460   26.5750 C   0  0  0  0  0  2  0  0  0  0  0  0
   41.9980   44.2580   23.7440 O   0  0  0  0  0  0  0  0  0  0  0  0
   42.3630   44.6030   24.5860 H   0  0  0  0  0  0  0  0  0  0  0  0
  1  2  1  0  0  0  0
  1 24  1  0  0  0  0
  3  2  2  0  0  0  0
  4  5  1  0  0  0  0
  4  3  1  0  0  0  0
  5  1  2  0  0  0  0
  6  7  1  0  0  0  0
  6  4  1  0  0  0  0
  7  8  1  0  0  0  0
  8 14  1  0  0  0  0
  9  8  2  0  0  0  0
  9 10  1  0  0  0  0
 10 11  2  0  0  0  0
 11 12  1  0  0  0  0
 12 13  1  0  0  0  0
 14  3  1  0  0  0  0
 14 12  2  0  0  0  0
 15 20  1  0  0  0  0
 15  5  1  0  0  0  0
 16 15  2  0  0  0  0
 17 18  2  0  0  0  0
 17 16  1  0  0  0  0
 18 19  1  0  0  0  0
 19 20  2  0  0  0  0
 21 22  1  0  0  0  0
 21 27  1  0  0  0  0
 23 22  2  0  0  0  0
 24 23  1  0  0  0  0
 25 24  2  0  0  0  0
 25 26  1  0  0  0  0
 26 21  2  0  0  0  0
 27 31  1  6  0  0  0
 27 28  1  0  0  0  0
 27 30  1  0  0  0  0
 28 29  1  0  0  0  0
 29 38  1  6  0  0  0
 29 35  1  0  0  0  0
 30 29  1  0  0  0  0
 31 32  1  0  0  0  0
 33 31  1  0  0  0  0
 34 31  1  0  0  0  0
 35 36  1  0  0  0  0
 35 37  1  0  0  0  0
 36 37  1  0  0  0  0
 38 39  1  0  0  0  0
M  END
>  <minimizedAffinity>
-11.6232653

$$$$

 OpenBabel11232419093D

 39 45  0  0  1  0  0  0  0  0999 V2000
   35.7650   44.9200   17.4360 C   0  0  0  0  0  0  0  0  0  0  0  0
   36.3320   45.7390   16.4810 N   0  0  0  0  0  0  0  0  0  0  0  0
   37.5440   46.0060   16.9090 C   0  0  0  0  0  0  0  0  0  0  0  0
   37.7840   45.3710   18.0970 N   0  0  0  0  0  0  0  0  0  0  0  0
   36.6670   44.6520   18.4580 C   0  0  0  0  0  0  0  0  0  0  0  0
   39.1000   45.3920   18.7070 C   0  0  0  0  0  2  0  0  0  0  0  0
   39.8380   46.5950   18.4060 O   0  0  0  0  0  0  0  0  0  0  0  0
   39.7070   47.0870   17.1300 C   0  0  0  0  0  0  0  0  0  0  0  0
   40.7240   47.9260   16.6730 C   0  0  0  0  0  3  0  0  0  0  0  0
   40.6380   48.4910   15.3980 C   0  0  0  0  0  3  0  0  0  0  0  0
   39.5300   48.2240   14.5930 C   0  0  0  0  0  3  0  0  0  0  0  0
   38.5070   47.4020   15.0650 C   0  0  0  0  0  0  0  0  0  0  0  0
   37.4550   47.1740   14.2660 F   0  0  0  0  0  0  0  0  0  0  0  0
   38.5820   46.8320   16.3350 C   0  0  0  0  0  0  0  0  0  0  0  0
   36.6080   43.7870   19.6290 C   0  0  0  0  0  0  0  0  0  0  0  0
   37.2090   44.1780   20.8310 C   0  0  0  0  0  3  0  0  0  0  0  0
   37.1590   43.3400   21.9460 C   0  0  0  0  0  3  0  0  0  0  0  0
   36.5080   42.1100   21.8660 C   0  0  0  0  0  3  0  0  0  0  0  0
   35.9050   41.7160   20.6730 C   0  0  0  0  0  3  0  0  0  0  0  0
   35.9520   42.5520   19.5560 C   0  0  0  0  0  3  0  0  0  0  0  0
   31.6950   43.6050   16.8330 C   0  0  0  0  0  0  0  0  0  0  0  0
   32.6700   43.5470   15.8180 C   0  0  0  0  0  3  0  0  0  0  0  0
   33.9900   43.9600   16.0340 C   0  0  0  0  0  3  0  0  0  0  0  0
   34.4000   44.4380   17.2810 C   0  0  0  0  0  0  0  0  0  0  0  0
   33.4570   44.4940   18.3070 C   0  0  0  0  0  3  0  0  0  0  0  0
   32.1350   44.0820   18.0860 C   0  0  0  0  0  3  0  0  0  0  0  0
   30.2030   43.1620   16.5830 C   0  0  2  0  0  0  0  0  0  0  0  0
   29.2580   42.9260   17.7970 C   0  0  0  0  0  2  0  0  0  0  0  0
   28.5260   41.8370   16.9340 C   0  0  1  0  0  0  0  0  0  0  0  0
   29.9030   41.6830   16.1950 C   0  0  0  0  0  2  0  0  0  0  0  0
   29.6020   44.1170   15.6170 N   0  0  0  0  0  4  0  0  0  0  0  0
   28.6100   43.8580   15.4420 H   0  0  0  0  0  0  0  0  0  0  0  0
   30.0910   44.1150   14.7160 H   0  0  0  0  0  0  0  0  0  0  0  0
   29.6090   45.0780   15.9760 H   0  0  0  0  0  0  0  0  0  0  0  0
   27.9570   40.6640   17.7060 C   0  0  0  0  0  3  0  0  0  0  0  0
   26.8170   40.7960   18.6800 C   0  0  0  0  0  2  0  0  0  0  0  0
   26.6500   39.9730   17.4310 C   0  0  0  0  0  2  0  0  0  0  0  0
   27.5380   42.4430   16.0450 O   0  0  0  0  0  0  0  0  0  0  0  0
   26.9070   41.7170   15.8510 H   0  0  0  0  0  0  0  0  0  0  0  0
  1  5  2  0  0  0  0
  2  3  2  0  0  0  0
  2  1  1  0  0  0  0
  3  4  1  0  0  0  0
  4  5  1  0  0  0  0
  4  6  1  0  0  0  0
  5 15  1  0  0  0  0
  7  6  1  0  0  0  0
  8  7  1  0  0  0  0
  9  8  1  0  0  0  0
 10  9  2  0  0  0  0
 11 12  2  0  0  0  0
 11 10  1  0  0  0  0
 12 14  1  0  0  0  0
 13 12  1  0  0  0  0
 14  3  1  0  0  0  0
 14  8  2  0  0  0  0
 15 16  1  0  0  0  0
 16 17  2  0  0  0  0
 18 17  1  0  0  0  0
 19 18  2  0  0  0  0
 20 15  2  0  0  0  0
 20 19  1  0  0  0  0
 21 26  1  0  0  0  0
 22 23  1  0  0  0  0
 22 21  2  0  0  0  0
 23 24  2  0  0  0  0
 24  1  1  0  0  0  0
 24 25  1  0  0  0  0
 26 25  2  0  0  0  0
 27 31  1  6  0  0  0
 27 21  1  0  0  0  0
 27 28  1  0  0  0  0
 29 38  1  6  0  0  0
 29 35  1  0  0  0  0
 29 28  1  0  0  0  0
 30 27  1  0  0  0  0
 30 29  1  0  0  0  0
 31 34  1  0  0  0  0
 32 31  1  0  0  0  0
 33 31  1  0  0  0  0
 35 36  1  0  0  0  0
 37 35  1  0  0  0  0
 37 36  1  0  0  0  0
 39 38  1  0  0  0  0
M  END
>  <minimizedAffinity>
-11.3876152

$$$$

 OpenBabel11232419093D

 39 45  0  0  1  0  0  0  0  0999 V2000
   36.0500   44.4850   18.2090 C   0  0  0  0  0  0  0  0  0  0  0  0
   36.4620   44.1850   19.4910 N   0  0  0  0  0  0  0  0  0  0  0  0
   37.7100   44.5870   19.5710 C   0  0  0  0  0  0  0  0  0  0  0  0
   38.1080   45.1540   18.3920 N   0  0  0  0  0  0  0  0  0  0  0  0
   37.0620   45.1190   17.4980 C   0  0  0  0  0  0  0  0  0  0  0  0
   39.4000   45.8030   18.2700 C   0  0  0  0  0  2  0  0  0  0  0  0
   40.4020   45.2240   19.1300 O   0  0  0  0  0  0  0  0  0  0  0  0
   39.9840   44.8410   20.3820 C   0  0  0  0  0  0  0  0  0  0  0  0
   40.9670   44.7290   21.3660 C   0  0  0  0  0  3  0  0  0  0  0  0
   40.6180   44.3110   22.6520 C   0  0  0  0  0  3  0  0  0  0  0  0
   39.2910   43.9950   22.9440 C   0  0  0  0  0  3  0  0  0  0  0  0
   38.3180   44.0890   21.9500 C   0  0  0  0  0  0  0  0  0  0  0  0
   37.0540   43.7710   22.2670 F   0  0  0  0  0  0  0  0  0  0  0  0
   38.6530   44.5060   20.6630 C   0  0  0  0  0  0  0  0  0  0  0  0
   37.1150   45.7180   16.1710 C   0  0  0  0  0  0  0  0  0  0  0  0
   37.3320   44.9200   15.0420 C   0  0  0  0  0  3  0  0  0  0  0  0
   37.3930   45.5000   13.7730 C   0  0  0  0  0  3  0  0  0  0  0  0
   37.2350   46.8780   13.6280 C   0  0  0  0  0  3  0  0  0  0  0  0
   37.0150   47.6770   14.7480 C   0  0  0  0  0  3  0  0  0  0  0  0
   36.9520   47.1000   16.0180 C   0  0  0  0  0  3  0  0  0  0  0  0
   32.0510   43.3680   17.0180 C   0  0  0  0  0  0  0  0  0  0  0  0
   32.4090   43.5900   18.3620 C   0  0  0  0  0  3  0  0  0  0  0  0
   33.7050   43.9700   18.7310 C   0  0  0  0  0  3  0  0  0  0  0  0
   34.7010   44.1580   17.7690 C   0  0  0  0  0  0  0  0  0  0  0  0
   34.3700   43.9560   16.4290 C   0  0  0  0  0  3  0  0  0  0  0  0
   33.0710   43.5740   16.0640 C   0  0  0  0  0  3  0  0  0  0  0  0
   30.5980   42.9180   16.6050 C   0  0  2  0  0  0  0  0  0  0  0  0
   29.3680   43.6910   17.1610 C   0  0  0  0  0  2  0  0  0  0  0  0
   28.5710   42.3390   17.1000 C   0  0  1  0  0  0  0  0  0  0  0  0
   29.9740   41.6540   17.2700 C   0  0  0  0  0  2  0  0  0  0  0  0
   30.5520   42.8380   15.1220 N   0  0  0  0  0  4  0  0  0  0  0  0
   29.5990   42.5560   14.8170 H   0  0  0  0  0  0  0  0  0  0  0  0
   31.2170   42.1510   14.7510 H   0  0  0  0  0  0  0  0  0  0  0  0
   30.7580   43.7430   14.6850 H   0  0  0  0  0  0  0  0  0  0  0  0
   27.5150   42.1540   18.1710 C   0  0  0  0  0  3  0  0  0  0  0  0
   26.2360   42.9460   18.2110 C   0  0  0  0  0  2  0  0  0  0  0  0
   26.1940   41.4570   18.0000 C   0  0  0  0  0  2  0  0  0  0  0  0
   28.0450   42.0940   15.7600 O   0  0  0  0  0  0  0  0  0  0  0  0
   27.2920   41.4810   15.9010 H   0  0  0  0  0  0  0  0  0  0  0  0
  1  2  1  0  0  0  0
  2  3  2  0  0  0  0
  3 14  1  0  0  0  0
  4  3  1  0  0  0  0
  5  1  2  0  0  0  0
  5  4  1  0  0  0  0
  6  4  1  0  0  0  0
  6  7  1  0  0  0  0
  7  8  1  0  0  0  0
  8 14  2  0  0  0  0
  8  9  1  0  0  0  0
  9 10  2  0  0  0  0
 10 11  1  0  0  0  0
 12 13  1  0  0  0  0
 12 11  2  0  0  0  0
 14 12  1  0  0  0  0
 15  5  1  0  0  0  0
 16 15  2  0  0  0  0
 17 16  1  0  0  0  0
 18 17  2  0  0  0  0
 18 19  1  0  0  0  0
 19 20  2  0  0  0  0
 20 15  1  0  0  0  0
 21 22  1  0  0  0  0
 22 23  2  0  0  0  0
 24  1  1  0  0  0  0
 24 23  1  0  0  0  0
 25 24  2  0  0  0  0
 26 25  1  0  0  0  0
 26 21  2  0  0  0  0
 27 31  1  6  0  0  0
 27 21  1  0  0  0  0
 27 28  1  0  0  0  0
 27 30  1  0  0  0  0
 29 38  1  6  0  0  0
 29 28  1  0  0  0  0
 29 30  1  0  0  0  0
 29 35  1  0  0  0  0
 32 31  1  0  0  0  0
 33 31  1  0  0  0  0
 34 31  1  0  0  0  0
 35 36  1  0  0  0  0
 37 35  1  0  0  0  0
 37 36  1  0  0  0  0
 38 39  1  0  0  0  0
M  END
>  <minimizedAffinity>
-11.2628269

$$$$

 OpenBabel11232419093D

 39 45  0  0  1  0  0  0  0  0999 V2000
   34.7470   42.7680   19.2500 C   0  0  0  0  0  0  0  0  0  0  0  0
   33.7170   41.8700   19.4430 N   0  0  0  0  0  0  0  0  0  0  0  0
   32.9330   41.9900   18.3970 C   0  0  0  0  0  0  0  0  0  0  0  0
   33.4340   42.9200   17.5260 N   0  0  0  0  0  0  0  0  0  0  0  0
   34.6070   43.4300   18.0350 C   0  0  0  0  0  0  0  0  0  0  0  0
   32.8260   43.1350   16.2270 C   0  0  0  0  0  2  0  0  0  0  0  0
   31.4060   42.8800   16.2230 O   0  0  0  0  0  0  0  0  0  0  0  0
   30.9770   41.8100   16.9700 C   0  0  0  0  0  0  0  0  0  0  0  0
   29.7410   41.2600   16.6290 C   0  0  0  0  0  3  0  0  0  0  0  0
   29.2270   40.1930   17.3680 C   0  0  0  0  0  3  0  0  0  0  0  0
   29.9450   39.6900   18.4530 C   0  0  0  0  0  3  0  0  0  0  0  0
   31.1700   40.2580   18.8020 C   0  0  0  0  0  0  0  0  0  0  0  0
   31.8280   39.7510   19.8550 F   0  0  0  0  0  0  0  0  0  0  0  0
   31.6940   41.3230   18.0710 C   0  0  0  0  0  0  0  0  0  0  0  0
   35.4490   44.3810   17.3240 C   0  0  0  0  0  0  0  0  0  0  0  0
   35.2340   45.7580   17.4580 C   0  0  0  0  0  3  0  0  0  0  0  0
   36.0380   46.6650   16.7650 C   0  0  0  0  0  3  0  0  0  0  0  0
   37.0580   46.2020   15.9360 C   0  0  0  0  0  3  0  0  0  0  0  0
   37.2790   44.8320   15.8000 C   0  0  0  0  0  3  0  0  0  0  0  0
   36.4790   43.9220   16.4940 C   0  0  0  0  0  3  0  0  0  0  0  0
   37.7610   43.1350   22.3220 C   0  0  0  0  0  0  0  0  0  0  0  0
   37.0020   41.9630   22.1390 C   0  0  0  0  0  3  0  0  0  0  0  0
   36.0420   41.8520   21.1270 C   0  0  0  0  0  3  0  0  0  0  0  0
   35.8040   42.9060   20.2410 C   0  0  0  0  0  0  0  0  0  0  0  0
   36.5510   44.0750   20.3930 C   0  0  0  0  0  3  0  0  0  0  0  0
   37.5110   44.1820   21.4090 C   0  0  0  0  0  3  0  0  0  0  0  0
   38.8260   43.2680   23.4770 C   0  0  2  0  0  0  0  0  0  0  0  0
   38.5930   42.5270   24.8250 C   0  0  0  0  0  2  0  0  0  0  0  0
   39.3660   43.6990   25.5290 C   0  0  1  0  0  0  0  0  0  0  0  0
   38.8740   44.5760   24.3230 C   0  0  0  0  0  2  0  0  0  0  0  0
   40.1570   42.9330   22.9070 N   0  0  0  0  0  4  0  0  0  0  0  0
   40.8800   42.9980   23.6490 H   0  0  0  0  0  0  0  0  0  0  0  0
   40.4240   43.5700   22.1500 H   0  0  0  0  0  0  0  0  0  0  0  0
   40.1830   41.9770   22.5360 H   0  0  0  0  0  0  0  0  0  0  0  0
   38.9060   44.0350   26.9330 C   0  0  0  0  0  3  0  0  0  0  0  0
   37.5220   43.7330   27.4400 C   0  0  0  0  0  2  0  0  0  0  0  0
   38.7160   43.0580   28.0600 C   0  0  0  0  0  2  0  0  0  0  0  0
   40.8110   43.5000   25.4550 O   0  0  0  0  0  0  0  0  0  0  0  0
   41.1690   44.0280   26.2010 H   0  0  0  0  0  0  0  0  0  0  0  0
  1  2  1  0  0  0  0
  1 24  1  0  0  0  0
  3  2  2  0  0  0  0
  4  5  1  0  0  0  0
  4  3  1  0  0  0  0
  5  1  2  0  0  0  0
  6  4  1  0  0  0  0
  7  6  1  0  0  0  0
  7  8  1  0  0  0  0
  8 14  1  0  0  0  0
  9  8  2  0  0  0  0
  9 10  1  0  0  0  0
 10 11  2  0  0  0  0
 11 12  1  0  0  0  0
 12 13  1  0  0  0  0
 14  3  1  0  0  0  0
 14 12  2  0  0  0  0
 15 16  1  0  0  0  0
 15  5  1  0  0  0  0
 17 16  2  0  0  0  0
 18 17  1  0  0  0  0
 19 18  2  0  0  0  0
 19 20  1  0  0  0  0
 20 15  2  0  0  0  0
 21 27  1  0  0  0  0
 22 21  1  0  0  0  0
 23 22  2  0  0  0  0
 24 25  2  0  0  0  0
 24 23  1  0  0  0  0
 25 26  1  0  0  0  0
 26 21  2  0  0  0  0
 27 31  1  6  0  0  0
 27 30  1  0  0  0  0
 27 28  1  0  0  0  0
 28 29  1  0  0  0  0
 29 38  1  6  0  0  0
 29 35  1  0  0  0  0
 30 29  1  0  0  0  0
 31 32  1  0  0  0  0
 33 31  1  0  0  0  0
 34 31  1  0  0  0  0
 35 36  1  0  0  0  0
 35 37  1  0  0  0  0
 36 37  1  0  0  0  0
 38 39  1  0  0  0  0
M  END
>  <minimizedAffinity>
-11.0605841

$$$$

 OpenBabel11232419093D

 39 45  0  0  1  0  0  0  0  0999 V2000
   34.7980   42.9240   18.9360 C   0  0  0  0  0  0  0  0  0  0  0  0
   33.8320   42.0060   19.2920 N   0  0  0  0  0  0  0  0  0  0  0  0
   32.9630   41.9980   18.3080 C   0  0  0  0  0  0  0  0  0  0  0  0
   33.3480   42.8640   17.3210 N   0  0  0  0  0  0  0  0  0  0  0  0
   34.5310   43.4660   17.6840 C   0  0  0  0  0  0  0  0  0  0  0  0
   32.6300   42.9350   16.0620 C   0  0  0  0  0  2  0  0  0  0  0  0
   31.2280   42.6230   16.1980 O   0  0  0  0  0  0  0  0  0  0  0  0
   30.9110   41.6080   17.0690 C   0  0  0  0  0  0  0  0  0  0  0  0
   29.6800   40.9800   16.8800 C   0  0  0  0  0  3  0  0  0  0  0  0
   29.2780   39.9640   17.7510 C   0  0  0  0  0  3  0  0  0  0  0  0
   30.1030   39.5920   18.8130 C   0  0  0  0  0  3  0  0  0  0  0  0
   31.3220   40.2390   19.0080 C   0  0  0  0  0  0  0  0  0  0  0  0
   32.0850   39.8580   20.0420 F   0  0  0  0  0  0  0  0  0  0  0  0
   31.7350   41.2530   18.1450 C   0  0  0  0  0  0  0  0  0  0  0  0
   35.2680   44.3820   16.8250 C   0  0  0  0  0  0  0  0  0  0  0  0
   36.0250   43.8950   15.7530 C   0  0  0  0  0  3  0  0  0  0  0  0
   36.7380   44.7770   14.9390 C   0  0  0  0  0  3  0  0  0  0  0  0
   36.6980   46.1470   15.1910 C   0  0  0  0  0  3  0  0  0  0  0  0
   35.9430   46.6390   16.2550 C   0  0  0  0  0  3  0  0  0  0  0  0
   35.2270   45.7600   17.0700 C   0  0  0  0  0  3  0  0  0  0  0  0
   38.0130   43.7770   21.6930 C   0  0  0  0  0  0  0  0  0  0  0  0
   36.9820   42.8620   21.9870 C   0  0  0  0  0  3  0  0  0  0  0  0
   35.9580   42.5820   21.0760 C   0  0  0  0  0  3  0  0  0  0  0  0
   35.9220   43.1950   19.8200 C   0  0  0  0  0  0  0  0  0  0  0  0
   36.9380   44.0960   19.4990 C   0  0  0  0  0  3  0  0  0  0  0  0
   37.9620   44.3750   20.4160 C   0  0  0  0  0  3  0  0  0  0  0  0
   39.1550   44.1090   22.7280 C   0  0  2  0  0  0  0  0  0  0  0  0
   39.1150   45.4540   23.5090 C   0  0  0  0  0  2  0  0  0  0  0  0
   40.6850   45.4210   23.5180 C   0  0  1  0  0  0  0  0  0  0  0  0
   40.5460   44.5740   22.2030 C   0  0  0  0  0  2  0  0  0  0  0  0
   39.2750   42.9560   23.6560 N   0  0  0  0  0  4  0  0  0  0  0  0
   40.0120   43.1510   24.3610 H   0  0  0  0  0  0  0  0  0  0  0  0
   39.5280   42.0910   23.1680 H   0  0  0  0  0  0  0  0  0  0  0  0
   38.4010   42.7840   24.1660 H   0  0  0  0  0  0  0  0  0  0  0  0
   41.3670   46.7730   23.4670 C   0  0  0  0  0  3  0  0  0  0  0  0
   40.8640   47.9780   24.2170 C   0  0  0  0  0  2  0  0  0  0  0  0
   42.2050   47.3830   24.5570 C   0  0  0  0  0  2  0  0  0  0  0  0
   41.1910   44.5900   24.6070 O   0  0  0  0  0  0  0  0  0  0  0  0
   42.1010   44.9200   24.7640 H   0  0  0  0  0  0  0  0  0  0  0  0
  1  2  1  0  0  0  0
  1 24  1  0  0  0  0
  3  2  2  0  0  0  0
  4  5  1  0  0  0  0
  4  3  1  0  0  0  0
  5  1  2  0  0  0  0
  6  7  1  0  0  0  0
  6  4  1  0  0  0  0
  7  8  1  0  0  0  0
  8 14  1  0  0  0  0
  9  8  2  0  0  0  0
  9 10  1  0  0  0  0
 10 11  2  0  0  0  0
 11 12  1  0  0  0  0
 12 13  1  0  0  0  0
 14  3  1  0  0  0  0
 14 12  2  0  0  0  0
 15 20  1  0  0  0  0
 15  5  1  0  0  0  0
 16 15  2  0  0  0  0
 17 18  2  0  0  0  0
 17 16  1  0  0  0  0
 18 19  1  0  0  0  0
 19 20  2  0  0  0  0
 21 22  1  0  0  0  0
 21 27  1  0  0  0  0
 23 22  2  0  0  0  0
 24 23  1  0  0  0  0
 25 24  2  0  0  0  0
 25 26  1  0  0  0  0
 26 21  2  0  0  0  0
 27 28  1  0  0  0  0
 27 31  1  1  0  0  0
 28 29  1  0  0  0  0
 29 38  1  1  0  0  0
 30 27  1  0  0  0  0
 30 29  1  0  0  0  0
 31 34  1  0  0  0  0
 31 32  1  0  0  0  0
 33 31  1  0  0  0  0
 35 29  1  0  0  0  0
 35 36  1  0  0  0  0
 35 37  1  0  0  0  0
 36 37  1  0  0  0  0
 38 39  1  0  0  0  0
M  END
>  <minimizedAffinity>
-10.8677731

$$$$
