
 OpenBabel11232419093D

 39 45  0  0  1  0  0  0  0  0999 V2000
   36.2710   44.8760   17.0990 C   0  0  0  0  0  0  0  0  0  0  0  0
   36.8580   44.6970   18.3350 N   0  0  0  0  0  0  0  0  0  0  0  0
   38.0730   45.1820   18.2310 C   0  0  0  0  0  0  0  0  0  0  0  0
   38.2830   45.6870   16.9770 N   0  0  0  0  0  0  0  0  0  0  0  0
   37.1410   45.5210   16.2270 C   0  0  0  0  0  0  0  0  0  0  0  0
   39.4990   46.4070   16.6520 C   0  0  0  0  0  2  0  0  0  0  0  0
   40.6390   45.9560   17.4140 O   0  0  0  0  0  0  0  0  0  0  0  0
   40.4050   45.6390   18.7300 C   0  0  0  0  0  0  0  0  0  0  0  0
   41.5060   45.6610   19.5870 C   0  0  0  0  0  3  0  0  0  0  0  0
   41.3470   45.3160   20.9310 C   0  0  0  0  0  3  0  0  0  0  0  0
   40.0920   44.9370   21.4080 C   0  0  0  0  0  3  0  0  0  0  0  0
   39.0010   44.8970   20.5410 C   0  0  0  0  0  0  0  0  0  0  0  0
   37.8110   44.5220   21.0340 F   0  0  0  0  0  0  0  0  0  0  0  0
   39.1460   45.2400   19.1980 C   0  0  0  0  0  0  0  0  0  0  0  0
   36.9880   46.0250   14.8690 C   0  0  0  0  0  0  0  0  0  0  0  0
   36.9290   45.1390   13.7870 C   0  0  0  0  0  3  0  0  0  0  0  0
   36.7930   45.6270   12.4860 C   0  0  0  0  0  3  0  0  0  0  0  0
   36.7150   47.0010   12.2610 C   0  0  0  0  0  3  0  0  0  0  0  0
   36.7710   47.8880   13.3340 C   0  0  0  0  0  3  0  0  0  0  0  0
   36.9040   47.4030   14.6360 C   0  0  0  0  0  3  0  0  0  0  0  0
   32.1620   43.7330   16.4160 C   0  0  0  0  0  0  0  0  0  0  0  0
   32.7770   44.8020   15.7330 C   0  0  0  0  0  3  0  0  0  0  0  0
   34.1150   45.1480   15.9520 C   0  0  0  0  0  3  0  0  0  0  0  0
   34.9070   44.4330   16.8550 C   0  0  0  0  0  0  0  0  0  0  0  0
   34.3250   43.3630   17.5350 C   0  0  0  0  0  3  0  0  0  0  0  0
   32.9840   43.0200   17.3140 C   0  0  0  0  0  3  0  0  0  0  0  0
   30.6490   43.3570   16.1860 C   0  0  2  0  0  0  0  0  0  0  0  0
   29.6920   43.2450   17.4080 C   0  0  0  0  0  2  0  0  0  0  0  0
   28.9020   42.1490   16.6080 C   0  0  1  0  0  0  0  0  0  0  0  0
   30.2690   41.8770   15.8840 C   0  0  0  0  0  2  0  0  0  0  0  0
   30.1010   44.2850   15.1630 N   0  0  0  0  0  4  0  0  0  0  0  0
   29.0970   44.0700   15.0000 H   0  0  0  0  0  0  0  0  0  0  0  0
   30.5900   44.2040   14.2660 H   0  0  0  0  0  0  0  0  0  0  0  0
   30.1600   45.2640   15.4650 H   0  0  0  0  0  0  0  0  0  0  0  0
   28.2700   41.0560   17.4450 C   0  0  0  0  0  3  0  0  0  0  0  0
   27.0010   41.2510   18.2310 C   0  0  0  0  0  2  0  0  0  0  0  0
   27.0380   40.2700   17.0900 C   0  0  0  0  0  2  0  0  0  0  0  0
   27.9490   42.7530   15.6810 O   0  0  0  0  0  0  0  0  0  0  0  0
   27.2800   42.0530   15.5270 H   0  0  0  0  0  0  0  0  0  0  0  0
  1  2  1  0  0  0  0
  3  2  2  0  0  0  0
  3 14  1  0  0  0  0
  4  3  1  0  0  0  0
  5  4  1  0  0  0  0
  5  1  2  0  0  0  0
  6  4  1  0  0  0  0
  6  7  1  0  0  0  0
  7  8  1  0  0  0  0
  8 14  2  0  0  0  0
  8  9  1  0  0  0  0
  9 10  2  0  0  0  0
 10 11  1  0  0  0  0
 12 13  1  0  0  0  0
 12 11  2  0  0  0  0
 14 12  1  0  0  0  0
 15  5  1  0  0  0  0
 16 15  2  0  0  0  0
 17 16  1  0  0  0  0
 18 17  2  0  0  0  0
 18 19  1  0  0  0  0
 19 20  2  0  0  0  0
 20 15  1  0  0  0  0
 21 26  1  0  0  0  0
 22 23  1  0  0  0  0
 22 21  2  0  0  0  0
 23 24  2  0  0  0  0
 24  1  1  0  0  0  0
 24 25  1  0  0  0  0
 26 25  2  0  0  0  0
 27 31  1  6  0  0  0
 27 21  1  0  0  0  0
 27 28  1  0  0  0  0
 29 38  1  6  0  0  0
 29 28  1  0  0  0  0
 29 35  1  0  0  0  0
 30 27  1  0  0  0  0
 30 29  1  0  0  0  0
 31 34  1  0  0  0  0
 32 31  1  0  0  0  0
 33 31  1  0  0  0  0
 35 36  1  0  0  0  0
 37 35  1  0  0  0  0
 37 36  1  0  0  0  0
 39 38  1  0  0  0  0
M  END
>  <minimizedAffinity>
-12.7879333

$$$$
