
 OpenBabel11232419093D

 39 45  0  0  1  0  0  0  0  0999 V2000
   37.2600   44.4080   19.6210 C   0  0  0  0  0  0  0  0  0  0  0  0
   38.2760   45.1790   19.0940 N   0  0  0  0  0  0  0  0  0  0  0  0
   37.9290   45.4340   17.8540 C   0  0  0  0  0  0  0  0  0  0  0  0
   36.7150   44.8710   17.5710 N   0  0  0  0  0  0  0  0  0  0  0  0
   36.2480   44.2170   18.6880 C   0  0  0  0  0  0  0  0  0  0  0  0
   36.0450   45.1270   16.3100 C   0  0  0  0  0  2  0  0  0  0  0  0
   36.9650   45.3650   15.2240 O   0  0  0  0  0  0  0  0  0  0  0  0
   38.0850   46.1030   15.5250 C   0  0  0  0  0  0  0  0  0  0  0  0
   38.7250   46.7360   14.4600 C   0  0  0  0  0  3  0  0  0  0  0  0
   39.8890   47.4740   14.6880 C   0  0  0  0  0  3  0  0  0  0  0  0
   40.4130   47.5640   15.9780 C   0  0  0  0  0  3  0  0  0  0  0  0
   39.7800   46.9110   17.0350 C   0  0  0  0  0  0  0  0  0  0  0  0
   40.3160   47.0150   18.2590 F   0  0  0  0  0  0  0  0  0  0  0  0
   38.6170   46.1720   16.8200 C   0  0  0  0  0  0  0  0  0  0  0  0
   34.9410   43.5780   18.7630 C   0  0  0  0  0  0  0  0  0  0  0  0
   34.7150   42.3500   18.1310 C   0  0  0  0  0  3  0  0  0  0  0  0
   33.4570   41.7470   18.1970 C   0  0  0  0  0  3  0  0  0  0  0  0
   32.4210   42.3690   18.8930 C   0  0  0  0  0  3  0  0  0  0  0  0
   32.6410   43.5910   19.5260 C   0  0  0  0  0  3  0  0  0  0  0  0
   33.8980   44.1950   19.4640 C   0  0  0  0  0  3  0  0  0  0  0  0
   37.2800   42.9710   23.6950 C   0  0  0  0  0  0  0  0  0  0  0  0
   36.7260   42.2320   22.6310 C   0  0  0  0  0  3  0  0  0  0  0  0
   36.7440   42.7030   21.3130 C   0  0  0  0  0  3  0  0  0  0  0  0
   37.3290   43.9310   20.9950 C   0  0  0  0  0  0  0  0  0  0  0  0
   37.8960   44.6780   22.0280 C   0  0  0  0  0  3  0  0  0  0  0  0
   37.8740   44.2030   23.3480 C   0  0  0  0  0  3  0  0  0  0  0  0
   37.2400   42.4510   25.1820 C   0  0  2  0  0  0  0  0  0  0  0  0
   37.4240   43.4600   26.3530 C   0  0  0  0  0  2  0  0  0  0  0  0
   38.0900   42.2940   27.1680 C   0  0  1  0  0  0  0  0  0  0  0  0
   38.4810   41.7090   25.7640 C   0  0  0  0  0  2  0  0  0  0  0  0
   35.9960   41.6580   25.3520 N   0  0  0  0  0  4  0  0  0  0  0  0
   35.9330   41.3120   26.3300 H   0  0  0  0  0  0  0  0  0  0  0  0
   35.9670   40.8450   24.7280 H   0  0  0  0  0  0  0  0  0  0  0  0
   35.1570   42.2200   25.1720 H   0  0  0  0  0  0  0  0  0  0  0  0
   39.1800   42.7100   28.1330 C   0  0  0  0  0  3  0  0  0  0  0  0
   40.3310   41.8160   28.5110 C   0  0  0  0  0  2  0  0  0  0  0  0
   40.5860   43.0990   27.7670 C   0  0  0  0  0  2  0  0  0  0  0  0
   37.0820   41.4510   27.8060 O   0  0  0  0  0  0  0  0  0  0  0  0
   37.5560   41.0250   28.5510 H   0  0  0  0  0  0  0  0  0  0  0  0
  1 24  1  0  0  0  0
  2  1  1  0  0  0  0
  3  2  2  0  0  0  0
  4  3  1  0  0  0  0
  4  5  1  0  0  0  0
  5 15  1  0  0  0  0
  5  1  2  0  0  0  0
  6  4  1  0  0  0  0
  7  8  1  0  0  0  0
  7  6  1  0  0  0  0
  8 14  1  0  0  0  0
  9 10  1  0  0  0  0
  9  8  2  0  0  0  0
 10 11  2  0  0  0  0
 11 12  1  0  0  0  0
 12 13  1  0  0  0  0
 14 12  2  0  0  0  0
 14  3  1  0  0  0  0
 15 20  1  0  0  0  0
 16 17  1  0  0  0  0
 16 15  2  0  0  0  0
 17 18  2  0  0  0  0
 18 19  1  0  0  0  0
 20 19  2  0  0  0  0
 21 27  1  0  0  0  0
 22 21  2  0  0  0  0
 23 22  1  0  0  0  0
 24 23  2  0  0  0  0
 24 25  1  0  0  0  0
 25 26  2  0  0  0  0
 26 21  1  0  0  0  0
 27 31  1  1  0  0  0
 27 30  1  0  0  0  0
 27 28  1  0  0  0  0
 28 29  1  0  0  0  0
 29 38  1  1  0  0  0
 29 35  1  0  0  0  0
 30 29  1  0  0  0  0
 31 32  1  0  0  0  0
 33 31  1  0  0  0  0
 34 31  1  0  0  0  0
 35 36  1  0  0  0  0
 37 35  1  0  0  0  0
 37 36  1  0  0  0  0
 38 39  1  0  0  0  0
M  END
>  <minimizedAffinity>
-11.6307774

$$$$
