
 OpenBabel11232419093D

 39 45  0  0  1  0  0  0  0  0999 V2000
   36.0500   44.4850   18.2090 C   0  0  0  0  0  0  0  0  0  0  0  0
   36.4620   44.1850   19.4910 N   0  0  0  0  0  0  0  0  0  0  0  0
   37.7100   44.5870   19.5710 C   0  0  0  0  0  0  0  0  0  0  0  0
   38.1080   45.1540   18.3920 N   0  0  0  0  0  0  0  0  0  0  0  0
   37.0620   45.1190   17.4980 C   0  0  0  0  0  0  0  0  0  0  0  0
   39.4000   45.8030   18.2700 C   0  0  0  0  0  2  0  0  0  0  0  0
   40.4020   45.2240   19.1300 O   0  0  0  0  0  0  0  0  0  0  0  0
   39.9840   44.8410   20.3820 C   0  0  0  0  0  0  0  0  0  0  0  0
   40.9670   44.7290   21.3660 C   0  0  0  0  0  3  0  0  0  0  0  0
   40.6180   44.3110   22.6520 C   0  0  0  0  0  3  0  0  0  0  0  0
   39.2910   43.9950   22.9440 C   0  0  0  0  0  3  0  0  0  0  0  0
   38.3180   44.0890   21.9500 C   0  0  0  0  0  0  0  0  0  0  0  0
   37.0540   43.7710   22.2670 F   0  0  0  0  0  0  0  0  0  0  0  0
   38.6530   44.5060   20.6630 C   0  0  0  0  0  0  0  0  0  0  0  0
   37.1150   45.7180   16.1710 C   0  0  0  0  0  0  0  0  0  0  0  0
   37.3320   44.9200   15.0420 C   0  0  0  0  0  3  0  0  0  0  0  0
   37.3930   45.5000   13.7730 C   0  0  0  0  0  3  0  0  0  0  0  0
   37.2350   46.8780   13.6280 C   0  0  0  0  0  3  0  0  0  0  0  0
   37.0150   47.6770   14.7480 C   0  0  0  0  0  3  0  0  0  0  0  0
   36.9520   47.1000   16.0180 C   0  0  0  0  0  3  0  0  0  0  0  0
   32.0510   43.3680   17.0180 C   0  0  0  0  0  0  0  0  0  0  0  0
   32.4090   43.5900   18.3620 C   0  0  0  0  0  3  0  0  0  0  0  0
   33.7050   43.9700   18.7310 C   0  0  0  0  0  3  0  0  0  0  0  0
   34.7010   44.1580   17.7690 C   0  0  0  0  0  0  0  0  0  0  0  0
   34.3700   43.9560   16.4290 C   0  0  0  0  0  3  0  0  0  0  0  0
   33.0710   43.5740   16.0640 C   0  0  0  0  0  3  0  0  0  0  0  0
   30.5980   42.9180   16.6050 C   0  0  2  0  0  0  0  0  0  0  0  0
   29.3680   43.6910   17.1610 C   0  0  0  0  0  2  0  0  0  0  0  0
   28.5710   42.3390   17.1000 C   0  0  1  0  0  0  0  0  0  0  0  0
   29.9740   41.6540   17.2700 C   0  0  0  0  0  2  0  0  0  0  0  0
   30.5520   42.8380   15.1220 N   0  0  0  0  0  4  0  0  0  0  0  0
   29.5990   42.5560   14.8170 H   0  0  0  0  0  0  0  0  0  0  0  0
   31.2170   42.1510   14.7510 H   0  0  0  0  0  0  0  0  0  0  0  0
   30.7580   43.7430   14.6850 H   0  0  0  0  0  0  0  0  0  0  0  0
   27.5150   42.1540   18.1710 C   0  0  0  0  0  3  0  0  0  0  0  0
   26.2360   42.9460   18.2110 C   0  0  0  0  0  2  0  0  0  0  0  0
   26.1940   41.4570   18.0000 C   0  0  0  0  0  2  0  0  0  0  0  0
   28.0450   42.0940   15.7600 O   0  0  0  0  0  0  0  0  0  0  0  0
   27.2920   41.4810   15.9010 H   0  0  0  0  0  0  0  0  0  0  0  0
  1  2  1  0  0  0  0
  2  3  2  0  0  0  0
  3 14  1  0  0  0  0
  4  3  1  0  0  0  0
  5  1  2  0  0  0  0
  5  4  1  0  0  0  0
  6  4  1  0  0  0  0
  6  7  1  0  0  0  0
  7  8  1  0  0  0  0
  8 14  2  0  0  0  0
  8  9  1  0  0  0  0
  9 10  2  0  0  0  0
 10 11  1  0  0  0  0
 12 13  1  0  0  0  0
 12 11  2  0  0  0  0
 14 12  1  0  0  0  0
 15  5  1  0  0  0  0
 16 15  2  0  0  0  0
 17 16  1  0  0  0  0
 18 17  2  0  0  0  0
 18 19  1  0  0  0  0
 19 20  2  0  0  0  0
 20 15  1  0  0  0  0
 21 22  1  0  0  0  0
 22 23  2  0  0  0  0
 24  1  1  0  0  0  0
 24 23  1  0  0  0  0
 25 24  2  0  0  0  0
 26 25  1  0  0  0  0
 26 21  2  0  0  0  0
 27 31  1  6  0  0  0
 27 21  1  0  0  0  0
 27 28  1  0  0  0  0
 27 30  1  0  0  0  0
 29 38  1  6  0  0  0
 29 28  1  0  0  0  0
 29 30  1  0  0  0  0
 29 35  1  0  0  0  0
 32 31  1  0  0  0  0
 33 31  1  0  0  0  0
 34 31  1  0  0  0  0
 35 36  1  0  0  0  0
 37 35  1  0  0  0  0
 37 36  1  0  0  0  0
 38 39  1  0  0  0  0
M  END
>  <minimizedAffinity>
-11.2628269

$$$$
