
 OpenBabel11232419093D

 39 45  0  0  1  0  0  0  0  0999 V2000
   36.8750   45.0330   17.3750 C   0  0  0  0  0  0  0  0  0  0  0  0
   37.5520   44.9150   18.5710 N   0  0  0  0  0  0  0  0  0  0  0  0
   38.6980   45.5320   18.3990 C   0  0  0  0  0  0  0  0  0  0  0  0
   38.7740   46.0620   17.1400 N   0  0  0  0  0  0  0  0  0  0  0  0
   37.6130   45.7740   16.4590 C   0  0  0  0  0  0  0  0  0  0  0  0
   39.8810   46.9130   16.7490 C   0  0  0  0  0  2  0  0  0  0  0  0
   41.1080   46.5880   17.4350 O   0  0  0  0  0  0  0  0  0  0  0  0
   40.9920   46.2420   18.7610 C   0  0  0  0  0  0  0  0  0  0  0  0
   42.1340   46.3830   19.5490 C   0  0  0  0  0  3  0  0  0  0  0  0
   42.0980   46.0170   20.8960 C   0  0  0  0  0  3  0  0  0  0  0  0
   40.9240   45.5000   21.4440 C   0  0  0  0  0  3  0  0  0  0  0  0
   39.7920   45.3430   20.6450 C   0  0  0  0  0  0  0  0  0  0  0  0
   38.6840   44.8370   21.2060 F   0  0  0  0  0  0  0  0  0  0  0  0
   39.8150   45.7050   19.2990 C   0  0  0  0  0  0  0  0  0  0  0  0
   37.3220   46.2620   15.1180 C   0  0  0  0  0  0  0  0  0  0  0  0
   37.2730   47.6360   14.8590 C   0  0  0  0  0  3  0  0  0  0  0  0
   36.9830   48.0990   13.5740 C   0  0  0  0  0  3  0  0  0  0  0  0
   36.7410   47.1910   12.5440 C   0  0  0  0  0  3  0  0  0  0  0  0
   36.7910   45.8210   12.7940 C   0  0  0  0  0  3  0  0  0  0  0  0
   37.0830   45.3560   14.0780 C   0  0  0  0  0  3  0  0  0  0  0  0
   32.9130   43.3430   17.0550 C   0  0  0  0  0  0  0  0  0  0  0  0
   33.1370   44.7080   17.3220 C   0  0  0  0  0  3  0  0  0  0  0  0
   34.4270   45.2450   17.4040 C   0  0  0  0  0  3  0  0  0  0  0  0
   35.5550   44.4420   17.2100 C   0  0  0  0  0  0  0  0  0  0  0  0
   35.3600   43.0890   16.9330 C   0  0  0  0  0  3  0  0  0  0  0  0
   34.0660   42.5550   16.8540 C   0  0  0  0  0  3  0  0  0  0  0  0
   31.4600   42.7340   16.9850 C   0  0  2  0  0  0  0  0  0  0  0  0
   30.5610   43.0350   15.7520 C   0  0  0  0  0  2  0  0  0  0  0  0
   29.3220   42.9380   16.7120 C   0  0  1  0  0  0  0  0  0  0  0  0
   30.3250   43.3740   17.8390 C   0  0  0  0  0  2  0  0  0  0  0  0
   31.5690   41.2720   17.2230 N   0  0  0  0  0  4  0  0  0  0  0  0
   30.6260   40.8390   17.1690 H   0  0  0  0  0  0  0  0  0  0  0  0
   31.9620   41.0580   18.1460 H   0  0  0  0  0  0  0  0  0  0  0  0
   32.1580   40.8140   16.5180 H   0  0  0  0  0  0  0  0  0  0  0  0
   28.1530   43.8360   16.3640 C   0  0  0  0  0  3  0  0  0  0  0  0
   26.9050   43.3370   15.6860 C   0  0  0  0  0  2  0  0  0  0  0  0
   26.8340   43.8910   17.0840 C   0  0  0  0  0  2  0  0  0  0  0  0
   28.9110   41.5500   16.9070 O   0  0  0  0  0  0  0  0  0  0  0  0
   27.9700   41.6100   17.1780 H   0  0  0  0  0  0  0  0  0  0  0  0
  1  2  1  0  0  0  0
  3  2  2  0  0  0  0
  3 14  1  0  0  0  0
  4  3  1  0  0  0  0
  5  4  1  0  0  0  0
  5  1  2  0  0  0  0
  6  4  1  0  0  0  0
  6  7  1  0  0  0  0
  7  8  1  0  0  0  0
  8 14  2  0  0  0  0
  8  9  1  0  0  0  0
  9 10  2  0  0  0  0
 10 11  1  0  0  0  0
 12 13  1  0  0  0  0
 12 11  2  0  0  0  0
 14 12  1  0  0  0  0
 15  5  1  0  0  0  0
 16 15  1  0  0  0  0
 17 16  2  0  0  0  0
 18 19  2  0  0  0  0
 18 17  1  0  0  0  0
 19 20  1  0  0  0  0
 20 15  2  0  0  0  0
 21 22  1  0  0  0  0
 22 23  2  0  0  0  0
 24  1  1  0  0  0  0
 24 23  1  0  0  0  0
 25 24  2  0  0  0  0
 26 25  1  0  0  0  0
 26 21  2  0  0  0  0
 27 21  1  0  0  0  0
 27 31  1  1  0  0  0
 27 30  1  0  0  0  0
 28 29  1  0  0  0  0
 28 27  1  0  0  0  0
 29 38  1  1  0  0  0
 29 30  1  0  0  0  0
 31 33  1  0  0  0  0
 32 31  1  0  0  0  0
 34 31  1  0  0  0  0
 35 29  1  0  0  0  0
 35 37  1  0  0  0  0
 36 35  1  0  0  0  0
 36 37  1  0  0  0  0
 38 39  1  0  0  0  0
M  END
>  <minimizedAffinity>
-12.9880152

$$$$
