
 OpenBabel11232419093D

 39 45  0  0  1  0  0  0  0  0999 V2000
   34.7980   42.9240   18.9360 C   0  0  0  0  0  0  0  0  0  0  0  0
   33.8320   42.0060   19.2920 N   0  0  0  0  0  0  0  0  0  0  0  0
   32.9630   41.9980   18.3080 C   0  0  0  0  0  0  0  0  0  0  0  0
   33.3480   42.8640   17.3210 N   0  0  0  0  0  0  0  0  0  0  0  0
   34.5310   43.4660   17.6840 C   0  0  0  0  0  0  0  0  0  0  0  0
   32.6300   42.9350   16.0620 C   0  0  0  0  0  2  0  0  0  0  0  0
   31.2280   42.6230   16.1980 O   0  0  0  0  0  0  0  0  0  0  0  0
   30.9110   41.6080   17.0690 C   0  0  0  0  0  0  0  0  0  0  0  0
   29.6800   40.9800   16.8800 C   0  0  0  0  0  3  0  0  0  0  0  0
   29.2780   39.9640   17.7510 C   0  0  0  0  0  3  0  0  0  0  0  0
   30.1030   39.5920   18.8130 C   0  0  0  0  0  3  0  0  0  0  0  0
   31.3220   40.2390   19.0080 C   0  0  0  0  0  0  0  0  0  0  0  0
   32.0850   39.8580   20.0420 F   0  0  0  0  0  0  0  0  0  0  0  0
   31.7350   41.2530   18.1450 C   0  0  0  0  0  0  0  0  0  0  0  0
   35.2680   44.3820   16.8250 C   0  0  0  0  0  0  0  0  0  0  0  0
   36.0250   43.8950   15.7530 C   0  0  0  0  0  3  0  0  0  0  0  0
   36.7380   44.7770   14.9390 C   0  0  0  0  0  3  0  0  0  0  0  0
   36.6980   46.1470   15.1910 C   0  0  0  0  0  3  0  0  0  0  0  0
   35.9430   46.6390   16.2550 C   0  0  0  0  0  3  0  0  0  0  0  0
   35.2270   45.7600   17.0700 C   0  0  0  0  0  3  0  0  0  0  0  0
   38.0130   43.7770   21.6930 C   0  0  0  0  0  0  0  0  0  0  0  0
   36.9820   42.8620   21.9870 C   0  0  0  0  0  3  0  0  0  0  0  0
   35.9580   42.5820   21.0760 C   0  0  0  0  0  3  0  0  0  0  0  0
   35.9220   43.1950   19.8200 C   0  0  0  0  0  0  0  0  0  0  0  0
   36.9380   44.0960   19.4990 C   0  0  0  0  0  3  0  0  0  0  0  0
   37.9620   44.3750   20.4160 C   0  0  0  0  0  3  0  0  0  0  0  0
   39.1550   44.1090   22.7280 C   0  0  2  0  0  0  0  0  0  0  0  0
   39.1150   45.4540   23.5090 C   0  0  0  0  0  2  0  0  0  0  0  0
   40.6850   45.4210   23.5180 C   0  0  1  0  0  0  0  0  0  0  0  0
   40.5460   44.5740   22.2030 C   0  0  0  0  0  2  0  0  0  0  0  0
   39.2750   42.9560   23.6560 N   0  0  0  0  0  4  0  0  0  0  0  0
   40.0120   43.1510   24.3610 H   0  0  0  0  0  0  0  0  0  0  0  0
   39.5280   42.0910   23.1680 H   0  0  0  0  0  0  0  0  0  0  0  0
   38.4010   42.7840   24.1660 H   0  0  0  0  0  0  0  0  0  0  0  0
   41.3670   46.7730   23.4670 C   0  0  0  0  0  3  0  0  0  0  0  0
   40.8640   47.9780   24.2170 C   0  0  0  0  0  2  0  0  0  0  0  0
   42.2050   47.3830   24.5570 C   0  0  0  0  0  2  0  0  0  0  0  0
   41.1910   44.5900   24.6070 O   0  0  0  0  0  0  0  0  0  0  0  0
   42.1010   44.9200   24.7640 H   0  0  0  0  0  0  0  0  0  0  0  0
  1  2  1  0  0  0  0
  1 24  1  0  0  0  0
  3  2  2  0  0  0  0
  4  5  1  0  0  0  0
  4  3  1  0  0  0  0
  5  1  2  0  0  0  0
  6  7  1  0  0  0  0
  6  4  1  0  0  0  0
  7  8  1  0  0  0  0
  8 14  1  0  0  0  0
  9  8  2  0  0  0  0
  9 10  1  0  0  0  0
 10 11  2  0  0  0  0
 11 12  1  0  0  0  0
 12 13  1  0  0  0  0
 14  3  1  0  0  0  0
 14 12  2  0  0  0  0
 15 20  1  0  0  0  0
 15  5  1  0  0  0  0
 16 15  2  0  0  0  0
 17 18  2  0  0  0  0
 17 16  1  0  0  0  0
 18 19  1  0  0  0  0
 19 20  2  0  0  0  0
 21 22  1  0  0  0  0
 21 27  1  0  0  0  0
 23 22  2  0  0  0  0
 24 23  1  0  0  0  0
 25 24  2  0  0  0  0
 25 26  1  0  0  0  0
 26 21  2  0  0  0  0
 27 28  1  0  0  0  0
 27 31  1  1  0  0  0
 28 29  1  0  0  0  0
 29 38  1  1  0  0  0
 30 27  1  0  0  0  0
 30 29  1  0  0  0  0
 31 34  1  0  0  0  0
 31 32  1  0  0  0  0
 33 31  1  0  0  0  0
 35 29  1  0  0  0  0
 35 36  1  0  0  0  0
 35 37  1  0  0  0  0
 36 37  1  0  0  0  0
 38 39  1  0  0  0  0
M  END
>  <minimizedAffinity>
-10.8677731

$$$$
