
 OpenBabel11232420523D

 37 41  0  0  1  0  0  0  0  0999 V2000
  -20.2860   15.4580   13.4730 C   0  0  0  0  0  0  0  0  0  0  0  0
  -19.6220   15.1850   12.4630 O   0  0  0  0  0  0  0  0  0  0  0  0
  -19.9190   15.0050   14.7330 N   0  0  0  0  0  0  0  0  0  0  0  0
  -18.7060   14.1600   14.8050 C   0  0  0  0  0  2  0  0  0  0  0  0
  -18.1770   13.8010   16.2020 C   0  0  0  0  0  2  0  0  0  0  0  0
  -19.2910   13.3560   17.0400 N   0  0  0  0  0  0  0  0  0  0  0  0
  -20.3970   14.3160   17.1620 C   0  0  1  0  0  3  0  0  0  0  0  0
  -20.2240   15.8110   17.1620 C   0  0  0  0  0  2  0  0  0  0  0  0
  -20.7380   15.1260   15.9280 C   0  0  1  0  0  3  0  0  0  0  0  0
  -18.9400   12.5040   18.0980 C   0  0  0  0  0  0  0  0  0  0  0  0
  -18.5440   13.0690   19.2550 N   0  0  0  0  0  0  0  0  0  0  0  0
  -18.1230   12.2500   20.2290 C   0  0  0  0  0  3  0  0  0  0  0  0
  -17.9900   10.9270   20.1370 N   0  0  0  0  0  0  0  0  0  0  0  0
  -18.3350   10.4020   18.9590 C   0  0  0  0  0  0  0  0  0  0  0  0
  -18.8830   11.1260   17.9110 C   0  0  0  0  0  0  0  0  0  0  0  0
  -19.3250   10.3870   16.6740 C   0  0  2  0  0  3  0  0  0  0  0  0
  -20.7370    9.8070   16.8440 C   0  0  0  0  0  1  0  0  0  0  0  0
  -18.3320    9.2630   16.3710 C   0  0  0  0  0  2  0  0  0  0  0  0
  -18.0850    8.3980   17.5870 C   0  0  0  0  0  0  0  0  0  0  0  0
  -17.8320    7.2020   17.4940 O   0  0  0  0  0  0  0  0  0  0  0  0
  -18.0620    9.0480   18.7890 N   0  0  0  0  0  0  0  0  0  0  0  0
  -17.7630    8.5300   19.6040 H   0  0  0  0  0  0  0  0  0  0  0  0
  -21.6150   16.1980   13.2950 C   0  0  1  0  0  3  0  0  0  0  0  0
  -21.4490   17.6820   13.0140 C   0  0  0  0  0  0  0  0  0  0  0  0
  -22.3480   18.6030   13.5760 C   0  0  0  0  0  3  0  0  0  0  0  0
  -22.2380   19.9680   13.2920 C   0  0  0  0  0  3  0  0  0  0  0  0
  -21.2340   20.4210   12.4430 C   0  0  0  0  0  0  0  0  0  0  0  0
  -21.1080   22.0980   12.0860 Cl  0  0  0  0  0  0  0  0  0  0  0  0
  -20.3360   19.5220   11.8750 C   0  0  0  0  0  3  0  0  0  0  0  0
  -20.4420   18.1580   12.1560 C   0  0  0  0  0  3  0  0  0  0  0  0
  -22.4350   15.5520   12.1500 C   0  0  0  0  0  2  0  0  0  0  0  0
  -23.8450   15.1800   12.5430 N   0  0  0  0  0  4  0  0  0  0  0  0
  -24.4500   15.6040   11.8080 H   0  0  0  0  0  0  0  0  0  0  0  0
  -24.1040   15.6900   13.3980 H   0  0  0  0  0  0  0  0  0  0  0  0
  -23.4550   12.9230   11.6260 C   0  0  0  0  0  1  0  0  0  0  0  0
  -24.1870   13.7270   12.6910 C   0  0  0  0  0  3  0  0  0  0  0  0
  -23.7910   13.2880   14.0960 C   0  0  0  0  0  1  0  0  0  0  0  0
  1  3  1  0  0  0  0
  2  1  2  0  0  0  0
  3  4  1  0  0  0  0
  3  9  1  0  0  0  0
  4  5  1  0  0  0  0
  5  6  1  0  0  0  0
  6  7  1  0  0  0  0
  6 10  1  0  0  0  0
  7  8  1  1  0  0  0
  9  7  1  0  0  0  0
  9  8  1  1  0  0  0
 10 11  1  0  0  0  0
 11 12  2  0  0  0  0
 13 12  1  0  0  0  0
 14 13  2  0  0  0  0
 15 10  2  0  0  0  0
 15 14  1  0  0  0  0
 16 17  1  1  0  0  0
 16 15  1  0  0  0  0
 18 16  1  0  0  0  0
 18 19  1  0  0  0  0
 19 21  1  0  0  0  0
 20 19  2  0  0  0  0
 21 14  1  0  0  0  0
 21 22  1  0  0  0  0
 23 31  1  6  0  0  0
 23  1  1  0  0  0  0
 24 23  1  0  0  0  0
 24 25  1  0  0  0  0
 26 25  2  0  0  0  0
 27 26  1  0  0  0  0
 28 27  1  0  0  0  0
 29 30  1  0  0  0  0
 29 27  2  0  0  0  0
 30 24  2  0  0  0  0
 31 32  1  0  0  0  0
 32 36  1  0  0  0  0
 32 34  1  0  0  0  0
 33 32  1  0  0  0  0
 35 36  1  0  0  0  0
 36 37  1  0  0  0  0
M  END
>  <minimizedAffinity>
-8.50355721

$$$$
