
 OpenBabel11232420523D

 37 41  0  0  1  0  0  0  0  0999 V2000
  -20.3150   22.4410   11.7730 C   0  0  0  0  0  0  0  0  0  0  0  0
  -21.0370   23.4390   11.9030 O   0  0  0  0  0  0  0  0  0  0  0  0
  -20.7820   21.1630   12.0460 N   0  0  0  0  0  0  0  0  0  0  0  0
  -22.1780   21.0550   12.5230 C   0  0  0  0  0  2  0  0  0  0  0  0
  -22.7740   19.6440   12.6560 C   0  0  0  0  0  2  0  0  0  0  0  0
  -21.8160   18.7800   13.3470 N   0  0  0  0  0  0  0  0  0  0  0  0
  -20.4890   18.7000   12.7210 C   0  0  1  0  0  3  0  0  0  0  0  0
  -20.2470   18.7740   11.2380 C   0  0  0  0  0  2  0  0  0  0  0  0
  -19.9510   19.9710   12.0960 C   0  0  1  0  0  3  0  0  0  0  0  0
  -22.3780   17.6830   14.0180 C   0  0  0  0  0  0  0  0  0  0  0  0
  -22.7080   16.6010   13.2870 N   0  0  0  0  0  0  0  0  0  0  0  0
  -23.3270   15.5950   13.9200 C   0  0  0  0  0  3  0  0  0  0  0  0
  -23.7140   15.5920   15.1960 N   0  0  0  0  0  0  0  0  0  0  0  0
  -23.4260   16.7020   15.8790 C   0  0  0  0  0  0  0  0  0  0  0  0
  -22.6970   17.7660   15.3700 C   0  0  0  0  0  0  0  0  0  0  0  0
  -22.3540   18.9120   16.2870 C   0  0  2  0  0  3  0  0  0  0  0  0
  -21.0930   18.6080   17.1120 C   0  0  0  0  0  1  0  0  0  0  0  0
  -23.5340   19.1890   17.2210 C   0  0  0  0  0  2  0  0  0  0  0  0
  -24.0030   17.9270   17.9100 C   0  0  0  0  0  0  0  0  0  0  0  0
  -24.4830   17.9430   19.0380 O   0  0  0  0  0  0  0  0  0  0  0  0
  -23.9540   16.7830   17.1640 N   0  0  0  0  0  0  0  0  0  0  0  0
  -24.3870   15.9510   17.5400 H   0  0  0  0  0  0  0  0  0  0  0  0
  -18.8370   22.6480   11.4340 C   0  0  1  0  0  3  0  0  0  0  0  0
  -18.4450   22.0990   10.0710 C   0  0  0  0  0  0  0  0  0  0  0  0
  -19.3240   22.2380    8.9850 C   0  0  0  0  0  3  0  0  0  0  0  0
  -19.0010   21.7010    7.7360 C   0  0  0  0  0  3  0  0  0  0  0  0
  -17.8010   21.0180    7.5630 C   0  0  0  0  0  0  0  0  0  0  0  0
  -17.4110   20.3490    6.0290 Cl  0  0  0  0  0  0  0  0  0  0  0  0
  -16.9190   20.8690    8.6300 C   0  0  0  0  0  3  0  0  0  0  0  0
  -17.2380   21.4050    9.8800 C   0  0  0  0  0  3  0  0  0  0  0  0
  -18.4810   24.1550   11.4960 C   0  0  0  0  0  2  0  0  0  0  0  0
  -17.0580   24.4630   11.0960 N   0  0  0  0  0  4  0  0  0  0  0  0
  -16.6660   23.5520   10.7740 H   0  0  0  0  0  0  0  0  0  0  0  0
  -16.5090   24.6820   11.9390 H   0  0  0  0  0  0  0  0  0  0  0  0
  -15.8110   24.9850    9.0320 C   0  0  0  0  0  1  0  0  0  0  0  0
  -16.8190   25.5070   10.0460 C   0  0  0  0  0  3  0  0  0  0  0  0
  -18.1550   25.8350    9.3910 C   0  0  0  0  0  1  0  0  0  0  0  0
  1  2  2  0  0  0  0
  1  3  1  0  0  0  0
  3  9  1  0  0  0  0
  3  4  1  0  0  0  0
  4  5  1  0  0  0  0
  5  6  1  0  0  0  0
  6 10  1  0  0  0  0
  7  8  1  6  0  0  0
  7  6  1  0  0  0  0
  9  8  1  6  0  0  0
  9  7  1  0  0  0  0
 10 15  1  0  0  0  0
 11 12  1  0  0  0  0
 11 10  2  0  0  0  0
 12 13  2  0  0  0  0
 13 14  1  0  0  0  0
 14 21  1  0  0  0  0
 15 14  2  0  0  0  0
 15 16  1  0  0  0  0
 16 17  1  1  0  0  0
 16 18  1  0  0  0  0
 18 19  1  0  0  0  0
 19 20  2  0  0  0  0
 21 22  1  0  0  0  0
 21 19  1  0  0  0  0
 23 31  1  6  0  0  0
 23  1  1  0  0  0  0
 24 23  1  0  0  0  0
 25 24  2  0  0  0  0
 26 25  1  0  0  0  0
 27 26  2  0  0  0  0
 27 29  1  0  0  0  0
 28 27  1  0  0  0  0
 29 30  2  0  0  0  0
 30 24  1  0  0  0  0
 32 31  1  0  0  0  0
 32 34  1  0  0  0  0
 33 32  1  0  0  0  0
 35 36  1  0  0  0  0
 36 32  1  0  0  0  0
 37 36  1  0  0  0  0
M  END
>  <minimizedAffinity>
-10.3839245

$$$$

 OpenBabel11232420523D

 37 41  0  0  1  0  0  0  0  0999 V2000
  -18.1500   25.7030   10.8370 C   0  0  0  0  0  0  0  0  0  0  0  0
  -17.0830   25.1760   11.1820 O   0  0  0  0  0  0  0  0  0  0  0  0
  -18.3570   27.0720   10.9480 N   0  0  0  0  0  0  0  0  0  0  0  0
  -17.2460   27.8650   11.5200 C   0  0  0  0  0  2  0  0  0  0  0  0
  -17.3780   29.3960   11.4830 C   0  0  0  0  0  2  0  0  0  0  0  0
  -18.7130   29.7760   11.9470 N   0  0  0  0  0  0  0  0  0  0  0  0
  -19.8250   29.1650   11.2060 C   0  0  1  0  0  3  0  0  0  0  0  0
  -19.7860   28.8420    9.7370 C   0  0  0  0  0  2  0  0  0  0  0  0
  -19.6330   27.7360   10.7420 C   0  0  1  0  0  3  0  0  0  0  0  0
  -18.8130   31.0680   12.4860 C   0  0  0  0  0  0  0  0  0  0  0  0
  -18.4370   32.1030   11.7100 N   0  0  0  0  0  0  0  0  0  0  0  0
  -18.4480   33.3240   12.2620 C   0  0  0  0  0  3  0  0  0  0  0  0
  -18.7280   33.6050   13.5350 N   0  0  0  0  0  0  0  0  0  0  0  0
  -19.0380   32.5520   14.2950 C   0  0  0  0  0  0  0  0  0  0  0  0
  -19.1650   31.2560   13.8190 C   0  0  0  0  0  0  0  0  0  0  0  0
  -19.6260   30.1790   14.7680 C   0  0  2  0  0  3  0  0  0  0  0  0
  -21.1580   30.1520   14.8820 C   0  0  0  0  0  1  0  0  0  0  0  0
  -19.0040   30.4150   16.1460 C   0  0  0  0  0  2  0  0  0  0  0  0
  -19.2290   31.8340   16.6200 C   0  0  0  0  0  0  0  0  0  0  0  0
  -19.3550   32.1100   17.8080 O   0  0  0  0  0  0  0  0  0  0  0  0
  -19.1830   32.8010   15.6560 N   0  0  0  0  0  0  0  0  0  0  0  0
  -19.1900   33.7680   15.9520 H   0  0  0  0  0  0  0  0  0  0  0  0
  -19.3080   24.7980   10.4110 C   0  0  1  0  0  3  0  0  0  0  0  0
  -18.8890   23.6860    9.4620 C   0  0  0  0  0  0  0  0  0  0  0  0
  -19.8690   22.9360    8.7920 C   0  0  0  0  0  3  0  0  0  0  0  0
  -19.5050   21.8800    7.9510 C   0  0  0  0  0  3  0  0  0  0  0  0
  -18.1610   21.5630    7.7770 C   0  0  0  0  0  0  0  0  0  0  0  0
  -17.7160   20.2580    6.7510 Cl  0  0  0  0  0  0  0  0  0  0  0  0
  -17.1770   22.2940    8.4360 C   0  0  0  0  0  3  0  0  0  0  0  0
  -17.5370   23.3500    9.2780 C   0  0  0  0  0  3  0  0  0  0  0  0
  -19.9850   24.1740   11.6570 C   0  0  0  0  0  2  0  0  0  0  0  0
  -19.2780   22.9490   12.1870 N   0  0  0  0  0  4  0  0  0  0  0  0
  -18.8920   23.2390   13.1110 H   0  0  0  0  0  0  0  0  0  0  0  0
  -18.4390   22.7700   11.6180 H   0  0  0  0  0  0  0  0  0  0  0  0
  -21.5190   21.9370   11.9830 C   0  0  0  0  0  1  0  0  0  0  0  0
  -20.0640   21.6830   12.3510 C   0  0  0  0  0  3  0  0  0  0  0  0
  -19.4380   20.6170   11.4600 C   0  0  0  0  0  1  0  0  0  0  0  0
  1  3  1  0  0  0  0
  1  2  2  0  0  0  0
  3  4  1  0  0  0  0
  5  4  1  0  0  0  0
  5  6  1  0  0  0  0
  6 10  1  0  0  0  0
  7  8  1  6  0  0  0
  7  6  1  0  0  0  0
  9  8  1  6  0  0  0
  9  3  1  0  0  0  0
  9  7  1  0  0  0  0
 10 15  1  0  0  0  0
 11 12  1  0  0  0  0
 11 10  2  0  0  0  0
 12 13  2  0  0  0  0
 13 14  1  0  0  0  0
 14 21  1  0  0  0  0
 15 14  2  0  0  0  0
 15 16  1  0  0  0  0
 16 17  1  1  0  0  0
 16 18  1  0  0  0  0
 18 19  1  0  0  0  0
 19 20  2  0  0  0  0
 21 22  1  0  0  0  0
 21 19  1  0  0  0  0
 23  1  1  0  0  0  0
 23 31  1  1  0  0  0
 24 23  1  0  0  0  0
 25 24  2  0  0  0  0
 26 25  1  0  0  0  0
 27 26  2  0  0  0  0
 27 29  1  0  0  0  0
 28 27  1  0  0  0  0
 29 30  2  0  0  0  0
 30 24  1  0  0  0  0
 31 32  1  0  0  0  0
 32 36  1  0  0  0  0
 32 33  1  0  0  0  0
 34 32  1  0  0  0  0
 35 36  1  0  0  0  0
 37 36  1  0  0  0  0
M  END
>  <minimizedAffinity>
-9.81077766

$$$$

 OpenBabel11232420523D

 37 41  0  0  1  0  0  0  0  0999 V2000
  -20.4680   22.5690   11.5560 C   0  0  0  0  0  0  0  0  0  0  0  0
  -21.2170   23.5560   11.5060 O   0  0  0  0  0  0  0  0  0  0  0  0
  -20.8890   21.3610   12.0920 N   0  0  0  0  0  0  0  0  0  0  0  0
  -22.2700   21.3160   12.6220 C   0  0  0  0  0  2  0  0  0  0  0  0
  -22.8190   19.9460   13.0510 C   0  0  0  0  0  2  0  0  0  0  0  0
  -21.8200   19.2610   13.8710 N   0  0  0  0  0  0  0  0  0  0  0  0
  -20.5060   19.0900   13.2350 C   0  0  1  0  0  3  0  0  0  0  0  0
  -20.3030   18.8730   11.7600 C   0  0  0  0  0  2  0  0  0  0  0  0
  -20.0220   20.2240   12.3530 C   0  0  1  0  0  3  0  0  0  0  0  0
  -22.3310   18.3070   14.7640 C   0  0  0  0  0  0  0  0  0  0  0  0
  -23.2190   18.7240   15.6870 N   0  0  0  0  0  0  0  0  0  0  0  0
  -23.6330   17.8280   16.5940 C   0  0  0  0  0  3  0  0  0  0  0  0
  -23.1920   16.5750   16.7150 N   0  0  0  0  0  0  0  0  0  0  0  0
  -22.2680   16.2100   15.8230 C   0  0  0  0  0  0  0  0  0  0  0  0
  -21.8370   17.0060   14.7730 C   0  0  0  0  0  0  0  0  0  0  0  0
  -20.8660   16.4270   13.7770 C   0  0  2  0  0  3  0  0  0  0  0  0
  -21.5930   15.6150   12.6940 C   0  0  0  0  0  1  0  0  0  0  0  0
  -19.8570   15.5370   14.5070 C   0  0  0  0  0  2  0  0  0  0  0  0
  -20.5500   14.5280   15.3970 C   0  0  0  0  0  0  0  0  0  0  0  0
  -20.0760   13.4190   15.6130 O   0  0  0  0  0  0  0  0  0  0  0  0
  -21.6840   14.9620   16.0230 N   0  0  0  0  0  0  0  0  0  0  0  0
  -22.0950   14.3670   16.7300 H   0  0  0  0  0  0  0  0  0  0  0  0
  -19.0060   22.7410   11.1390 C   0  0  1  0  0  3  0  0  0  0  0  0
  -18.6520   22.0090    9.8540 C   0  0  0  0  0  0  0  0  0  0  0  0
  -17.4810   21.2360    9.7920 C   0  0  0  0  0  3  0  0  0  0  0  0
  -17.1160   20.5920    8.6060 C   0  0  0  0  0  3  0  0  0  0  0  0
  -17.9140   20.7180    7.4740 C   0  0  0  0  0  0  0  0  0  0  0  0
  -17.4580   19.9340    6.0140 Cl  0  0  0  0  0  0  0  0  0  0  0  0
  -19.0770   21.4820    7.5170 C   0  0  0  0  0  3  0  0  0  0  0  0
  -19.4450   22.1270    8.7000 C   0  0  0  0  0  3  0  0  0  0  0  0
  -18.6710   24.2450   10.9730 C   0  0  0  0  0  2  0  0  0  0  0  0
  -17.1930   24.5320   10.8540 N   0  0  0  0  0  4  0  0  0  0  0  0
  -16.7260   23.6180   11.0400 H   0  0  0  0  0  0  0  0  0  0  0  0
  -16.8980   25.1230   11.6430 H   0  0  0  0  0  0  0  0  0  0  0  0
  -17.6570   26.1400    9.0410 C   0  0  0  0  0  1  0  0  0  0  0  0
  -16.6760   25.1030    9.5670 C   0  0  0  0  0  3  0  0  0  0  0  0
  -15.3050   25.7120    9.8360 C   0  0  0  0  0  1  0  0  0  0  0  0
  1  3  1  0  0  0  0
  2  1  2  0  0  0  0
  3  9  1  0  0  0  0
  3  4  1  0  0  0  0
  4  5  1  0  0  0  0
  5  6  1  0  0  0  0
  6 10  1  0  0  0  0
  7  8  1  6  0  0  0
  7  6  1  0  0  0  0
  9  8  1  6  0  0  0
  9  7  1  0  0  0  0
 10 15  2  0  0  0  0
 10 11  1  0  0  0  0
 11 12  2  0  0  0  0
 12 13  1  0  0  0  0
 14 21  1  0  0  0  0
 14 13  2  0  0  0  0
 15 14  1  0  0  0  0
 16 17  1  6  0  0  0
 16 18  1  0  0  0  0
 16 15  1  0  0  0  0
 18 19  1  0  0  0  0
 19 20  2  0  0  0  0
 19 21  1  0  0  0  0
 21 22  1  0  0  0  0
 23 31  1  6  0  0  0
 23  1  1  0  0  0  0
 24 23  1  0  0  0  0
 25 24  1  0  0  0  0
 26 25  2  0  0  0  0
 27 29  2  0  0  0  0
 27 26  1  0  0  0  0
 28 27  1  0  0  0  0
 29 30  1  0  0  0  0
 30 24  2  0  0  0  0
 32 31  1  0  0  0  0
 32 33  1  0  0  0  0
 32 34  1  0  0  0  0
 35 36  1  0  0  0  0
 36 37  1  0  0  0  0
 36 32  1  0  0  0  0
M  END
>  <minimizedAffinity>
-9.66104507

$$$$

 OpenBabel11232420523D

 37 41  0  0  1  0  0  0  0  0999 V2000
  -18.0380   24.7630   10.7680 C   0  0  0  0  0  0  0  0  0  0  0  0
  -16.8170   24.5620   10.7200 O   0  0  0  0  0  0  0  0  0  0  0  0
  -18.5610   26.0290   10.9890 N   0  0  0  0  0  0  0  0  0  0  0  0
  -17.5850   27.1240   11.1860 C   0  0  0  0  0  2  0  0  0  0  0  0
  -18.1340   28.5580   11.2480 C   0  0  0  0  0  2  0  0  0  0  0  0
  -19.2910   28.5940   12.1430 N   0  0  0  0  0  0  0  0  0  0  0  0
  -20.3740   27.6640   11.7930 C   0  0  1  0  0  3  0  0  0  0  0  0
  -20.7350   27.2760   10.3850 C   0  0  0  0  0  2  0  0  0  0  0  0
  -19.9640   26.3130   11.2420 C   0  0  1  0  0  3  0  0  0  0  0  0
  -19.5560   29.8410   12.7290 C   0  0  0  0  0  0  0  0  0  0  0  0
  -20.8230   30.2960   12.6920 N   0  0  0  0  0  0  0  0  0  0  0  0
  -21.0510   31.5270   13.1710 C   0  0  0  0  0  3  0  0  0  0  0  0
  -20.1260   32.3770   13.6170 N   0  0  0  0  0  0  0  0  0  0  0  0
  -18.8720   31.9200   13.5860 C   0  0  0  0  0  0  0  0  0  0  0  0
  -18.5180   30.6310   13.2140 C   0  0  0  0  0  0  0  0  0  0  0  0
  -17.0740   30.2170   13.3280 C   0  0  2  0  0  3  0  0  0  0  0  0
  -16.7340   29.7620   14.7560 C   0  0  0  0  0  1  0  0  0  0  0  0
  -16.1750   31.3870   12.9250 C   0  0  0  0  0  2  0  0  0  0  0  0
  -16.5440   32.6520   13.6680 C   0  0  0  0  0  0  0  0  0  0  0  0
  -15.7090   33.4990   13.9630 O   0  0  0  0  0  0  0  0  0  0  0  0
  -17.8770   32.8410   13.9020 N   0  0  0  0  0  0  0  0  0  0  0  0
  -18.1740   33.7350   14.2690 H   0  0  0  0  0  0  0  0  0  0  0  0
  -18.9790   23.5560   10.7200 C   0  0  1  0  0  3  0  0  0  0  0  0
  -18.5810   22.5190    9.6810 C   0  0  0  0  0  0  0  0  0  0  0  0
  -17.3630   21.8340    9.8130 C   0  0  0  0  0  3  0  0  0  0  0  0
  -16.9590   20.9100    8.8440 C   0  0  0  0  0  3  0  0  0  0  0  0
  -17.7660   20.6670    7.7380 C   0  0  0  0  0  0  0  0  0  0  0  0
  -17.2630   19.5380    6.5430 Cl  0  0  0  0  0  0  0  0  0  0  0  0
  -18.9760   21.3390    7.5910 C   0  0  0  0  0  3  0  0  0  0  0  0
  -19.3830   22.2640    8.5560 C   0  0  0  0  0  3  0  0  0  0  0  0
  -19.0500   22.8790   12.1120 C   0  0  0  0  0  2  0  0  0  0  0  0
  -20.4550   22.5620   12.5660 N   0  0  0  0  0  4  0  0  0  0  0  0
  -21.0170   23.4030   12.3090 H   0  0  0  0  0  0  0  0  0  0  0  0
  -20.4850   22.5530   13.5940 H   0  0  0  0  0  0  0  0  0  0  0  0
  -20.1980   20.1370   12.1940 C   0  0  0  0  0  1  0  0  0  0  0  0
  -21.1230   21.3330   12.0240 C   0  0  0  0  0  3  0  0  0  0  0  0
  -22.4360   21.1390   12.7740 C   0  0  0  0  0  1  0  0  0  0  0  0
  1  3  1  0  0  0  0
  2  1  2  0  0  0  0
  3  4  1  0  0  0  0
  3  9  1  0  0  0  0
  4  5  1  0  0  0  0
  5  6  1  0  0  0  0
  6 10  1  0  0  0  0
  7  8  1  6  0  0  0
  7  6  1  0  0  0  0
  9  8  1  6  0  0  0
  9  7  1  0  0  0  0
 10 15  1  0  0  0  0
 11 10  2  0  0  0  0
 11 12  1  0  0  0  0
 12 13  2  0  0  0  0
 14 13  1  0  0  0  0
 14 21  1  0  0  0  0
 15 16  1  0  0  0  0
 15 14  2  0  0  0  0
 16 17  1  1  0  0  0
 18 16  1  0  0  0  0
 18 19  1  0  0  0  0
 19 21  1  0  0  0  0
 19 20  2  0  0  0  0
 21 22  1  0  0  0  0
 23  1  1  0  0  0  0
 23 31  1  1  0  0  0
 24 25  1  0  0  0  0
 24 23  1  0  0  0  0
 26 25  2  0  0  0  0
 27 26  1  0  0  0  0
 28 27  1  0  0  0  0
 29 27  2  0  0  0  0
 29 30  1  0  0  0  0
 30 24  2  0  0  0  0
 31 32  1  0  0  0  0
 32 34  1  0  0  0  0
 33 32  1  0  0  0  0
 36 35  1  0  0  0  0
 36 32  1  0  0  0  0
 36 37  1  0  0  0  0
M  END
>  <minimizedAffinity>
-9.14568329

$$$$

 OpenBabel11232420523D

 37 41  0  0  1  0  0  0  0  0999 V2000
  -20.0030   30.0800   14.0160 C   0  0  0  0  0  0  0  0  0  0  0  0
  -21.2340   29.9350   14.0200 O   0  0  0  0  0  0  0  0  0  0  0  0
  -19.1960   29.4400   13.0860 N   0  0  0  0  0  0  0  0  0  0  0  0
  -19.8780   28.5580   12.1130 C   0  0  0  0  0  2  0  0  0  0  0  0
  -19.0320   27.9870   10.9630 C   0  0  0  0  0  2  0  0  0  0  0  0
  -17.7790   27.4590   11.5030 N   0  0  0  0  0  0  0  0  0  0  0  0
  -16.9800   28.4230   12.2720 C   0  0  1  0  0  3  0  0  0  0  0  0
  -16.9160   29.8970   11.9750 C   0  0  0  0  0  2  0  0  0  0  0  0
  -17.7430   29.4120   13.1300 C   0  0  1  0  0  3  0  0  0  0  0  0
  -17.1730   26.4540   10.7340 C   0  0  0  0  0  0  0  0  0  0  0  0
  -16.0420   26.7650   10.0720 N   0  0  0  0  0  0  0  0  0  0  0  0
  -15.5210   25.8290    9.2670 C   0  0  0  0  0  3  0  0  0  0  0  0
  -16.0560   24.6370    9.0020 N   0  0  0  0  0  0  0  0  0  0  0  0
  -17.2080   24.3810    9.6270 C   0  0  0  0  0  0  0  0  0  0  0  0
  -17.7940   25.2200   10.5620 C   0  0  0  0  0  0  0  0  0  0  0  0
  -19.0410   24.7560   11.2700 C   0  0  2  0  0  3  0  0  0  0  0  0
  -18.7030   23.8620   12.4720 C   0  0  0  0  0  1  0  0  0  0  0  0
  -19.9310   23.9930   10.2860 C   0  0  0  0  0  2  0  0  0  0  0  0
  -19.1570   22.9120    9.5640 C   0  0  0  0  0  0  0  0  0  0  0  0
  -19.6860   21.8660    9.2020 O   0  0  0  0  0  0  0  0  0  0  0  0
  -17.8620   23.2110    9.2500 N   0  0  0  0  0  0  0  0  0  0  0  0
  -17.3590   22.5730    8.6480 H   0  0  0  0  0  0  0  0  0  0  0  0
  -19.3580   30.8750   15.1540 C   0  0  1  0  0  3  0  0  0  0  0  0
  -18.7540   32.1960   14.7030 C   0  0  0  0  0  0  0  0  0  0  0  0
  -17.4150   32.4890   15.0080 C   0  0  0  0  0  3  0  0  0  0  0  0
  -16.8560   33.7170   14.6410 C   0  0  0  0  0  3  0  0  0  0  0  0
  -17.6290   34.6600   13.9730 C   0  0  0  0  0  0  0  0  0  0  0  0
  -16.9420   36.1730   13.5320 Cl  0  0  0  0  0  0  0  0  0  0  0  0
  -18.9590   34.3870   13.6650 C   0  0  0  0  0  3  0  0  0  0  0  0
  -19.5220   33.1610   14.0300 C   0  0  0  0  0  3  0  0  0  0  0  0
  -20.3980   31.1480   16.2710 C   0  0  0  0  0  2  0  0  0  0  0  0
  -19.7920   31.6500   17.5600 N   0  0  0  0  0  4  0  0  0  0  0  0
  -18.7610   31.5910   17.4130 H   0  0  0  0  0  0  0  0  0  0  0  0
  -19.9720   30.9660   18.3070 H   0  0  0  0  0  0  0  0  0  0  0  0
  -18.9290   33.9310   17.9320 C   0  0  0  0  0  1  0  0  0  0  0  0
  -20.1500   33.0280   18.0300 C   0  0  0  0  0  3  0  0  0  0  0  0
  -21.2980   33.5400   17.1680 C   0  0  0  0  0  1  0  0  0  0  0  0
  1  2  2  0  0  0  0
  1 23  1  0  0  0  0
  3  9  1  0  0  0  0
  3  1  1  0  0  0  0
  4  3  1  0  0  0  0
  5  6  1  0  0  0  0
  5  4  1  0  0  0  0
  6  7  1  0  0  0  0
  7  8  1  6  0  0  0
  7  9  1  0  0  0  0
  9  8  1  6  0  0  0
 10  6  1  0  0  0  0
 11 10  2  0  0  0  0
 12 11  1  0  0  0  0
 13 12  2  0  0  0  0
 13 14  1  0  0  0  0
 14 15  2  0  0  0  0
 15 10  1  0  0  0  0
 15 16  1  0  0  0  0
 16 17  1  1  0  0  0
 18 16  1  0  0  0  0
 19 18  1  0  0  0  0
 20 19  2  0  0  0  0
 21 19  1  0  0  0  0
 21 14  1  0  0  0  0
 22 21  1  0  0  0  0
 23 31  1  1  0  0  0
 24 25  1  0  0  0  0
 24 23  1  0  0  0  0
 26 25  2  0  0  0  0
 27 26  1  0  0  0  0
 28 27  1  0  0  0  0
 29 27  2  0  0  0  0
 29 30  1  0  0  0  0
 30 24  2  0  0  0  0
 31 32  1  0  0  0  0
 32 36  1  0  0  0  0
 32 34  1  0  0  0  0
 33 32  1  0  0  0  0
 35 36  1  0  0  0  0
 37 36  1  0  0  0  0
M  END
>  <minimizedAffinity>
-8.99410439

$$$$

 OpenBabel11232420523D

 37 41  0  0  1  0  0  0  0  0999 V2000
  -20.1030   17.8890   10.3060 C   0  0  0  0  0  0  0  0  0  0  0  0
  -20.5840   17.5860    9.2050 O   0  0  0  0  0  0  0  0  0  0  0  0
  -20.5200   17.2730   11.4780 N   0  0  0  0  0  0  0  0  0  0  0  0
  -21.5850   16.2530   11.3470 C   0  0  0  0  0  2  0  0  0  0  0  0
  -21.9320   15.4300   12.5980 C   0  0  0  0  0  2  0  0  0  0  0  0
  -22.0750   16.3300   13.7430 N   0  0  0  0  0  0  0  0  0  0  0  0
  -20.9050   17.1760   14.0180 C   0  0  1  0  0  3  0  0  0  0  0  0
  -19.4810   16.7520   13.7790 C   0  0  0  0  0  2  0  0  0  0  0  0
  -20.1420   17.6970   12.8160 C   0  0  1  0  0  3  0  0  0  0  0  0
  -22.8940   15.8550   14.7790 C   0  0  0  0  0  0  0  0  0  0  0  0
  -23.6070   14.7340   14.5520 N   0  0  0  0  0  0  0  0  0  0  0  0
  -24.4560   14.3380   15.5100 C   0  0  0  0  0  3  0  0  0  0  0  0
  -24.7180   14.9910   16.6430 N   0  0  0  0  0  0  0  0  0  0  0  0
  -24.0410   16.1290   16.8120 C   0  0  0  0  0  0  0  0  0  0  0  0
  -23.0600   16.5910   15.9480 C   0  0  0  0  0  0  0  0  0  0  0  0
  -22.2990   17.8390   16.3170 C   0  0  2  0  0  3  0  0  0  0  0  0
  -21.1340   17.5230   17.2680 C   0  0  0  0  0  1  0  0  0  0  0  0
  -23.2520   18.8400   16.9740 C   0  0  0  0  0  2  0  0  0  0  0  0
  -24.0350   18.2020   18.1010 C   0  0  0  0  0  0  0  0  0  0  0  0
  -24.3910   18.8390   19.0860 O   0  0  0  0  0  0  0  0  0  0  0  0
  -24.4080   16.9020   17.9100 N   0  0  0  0  0  0  0  0  0  0  0  0
  -25.0480   16.4880   18.5740 H   0  0  0  0  0  0  0  0  0  0  0  0
  -19.1270   19.0650   10.3790 C   0  0  1  0  0  3  0  0  0  0  0  0
  -18.4610   19.3830    9.0490 C   0  0  0  0  0  0  0  0  0  0  0  0
  -17.4590   18.5340    8.5520 C   0  0  0  0  0  3  0  0  0  0  0  0
  -16.8030   18.8330    7.3540 C   0  0  0  0  0  3  0  0  0  0  0  0
  -17.1410   19.9830    6.6470 C   0  0  0  0  0  0  0  0  0  0  0  0
  -16.3270   20.3550    5.1790 Cl  0  0  0  0  0  0  0  0  0  0  0  0
  -18.1300   20.8370    7.1260 C   0  0  0  0  0  3  0  0  0  0  0  0
  -18.7870   20.5410    8.3240 C   0  0  0  0  0  3  0  0  0  0  0  0
  -19.8550   20.3320   10.8960 C   0  0  0  0  0  2  0  0  0  0  0  0
  -19.0210   21.1780   11.8280 N   0  0  0  0  0  4  0  0  0  0  0  0
  -18.1710   20.6050   12.0230 H   0  0  0  0  0  0  0  0  0  0  0  0
  -19.4900   21.2390   12.7410 H   0  0  0  0  0  0  0  0  0  0  0  0
  -18.8850   23.5540   12.4790 C   0  0  0  0  0  1  0  0  0  0  0  0
  -18.6040   22.5450   11.3740 C   0  0  0  0  0  3  0  0  0  0  0  0
  -17.1220   22.4970   11.0220 C   0  0  0  0  0  1  0  0  0  0  0  0
  1 23  1  0  0  0  0
  1  3  1  0  0  0  0
  2  1  2  0  0  0  0
  3  9  1  0  0  0  0
  4  3  1  0  0  0  0
  4  5  1  0  0  0  0
  5  6  1  0  0  0  0
  6  7  1  0  0  0  0
  6 10  1  0  0  0  0
  7  8  1  1  0  0  0
  9  8  1  1  0  0  0
  9  7  1  0  0  0  0
 10 15  1  0  0  0  0
 11 10  2  0  0  0  0
 11 12  1  0  0  0  0
 12 13  2  0  0  0  0
 13 14  1  0  0  0  0
 14 21  1  0  0  0  0
 15 16  1  0  0  0  0
 15 14  2  0  0  0  0
 16 18  1  0  0  0  0
 16 17  1  1  0  0  0
 18 19  1  0  0  0  0
 19 20  2  0  0  0  0
 21 19  1  0  0  0  0
 21 22  1  0  0  0  0
 23 31  1  6  0  0  0
 24 23  1  0  0  0  0
 25 24  1  0  0  0  0
 26 25  2  0  0  0  0
 27 29  2  0  0  0  0
 27 26  1  0  0  0  0
 28 27  1  0  0  0  0
 29 30  1  0  0  0  0
 30 24  2  0  0  0  0
 31 32  1  0  0  0  0
 32 33  1  0  0  0  0
 32 34  1  0  0  0  0
 36 32  1  0  0  0  0
 36 35  1  0  0  0  0
 37 36  1  0  0  0  0
M  END
>  <minimizedAffinity>
-8.90940666

$$$$

 OpenBabel11232420523D

 37 41  0  0  1  0  0  0  0  0999 V2000
  -17.3490   24.6980   10.6040 C   0  0  0  0  0  0  0  0  0  0  0  0
  -16.2020   24.2470   10.4730 O   0  0  0  0  0  0  0  0  0  0  0  0
  -17.5760   26.0280   10.9300 N   0  0  0  0  0  0  0  0  0  0  0  0
  -16.3800   26.8730   11.1350 C   0  0  0  0  0  2  0  0  0  0  0  0
  -16.6040   28.3840   11.3140 C   0  0  0  0  0  2  0  0  0  0  0  0
  -17.6850   28.6000   12.2750 N   0  0  0  0  0  0  0  0  0  0  0  0
  -18.9580   27.9490   11.9340 C   0  0  1  0  0  3  0  0  0  0  0  0
  -19.4550   27.7460   10.5280 C   0  0  0  0  0  2  0  0  0  0  0  0
  -18.8730   26.5840   11.2810 C   0  0  1  0  0  3  0  0  0  0  0  0
  -17.6490   29.8310   12.9480 C   0  0  0  0  0  0  0  0  0  0  0  0
  -16.4430   30.3730   13.2020 N   0  0  0  0  0  0  0  0  0  0  0  0
  -16.4130   31.5000   13.9250 C   0  0  0  0  0  3  0  0  0  0  0  0
  -17.4640   32.1020   14.4820 N   0  0  0  0  0  0  0  0  0  0  0  0
  -18.6400   31.5080   14.2630 C   0  0  0  0  0  0  0  0  0  0  0  0
  -18.8170   30.4020   13.4460 C   0  0  0  0  0  0  0  0  0  0  0  0
  -20.2160   29.8990   13.2030 C   0  0  2  0  0  3  0  0  0  0  0  0
  -20.9030   30.6830   12.0740 C   0  0  0  0  0  1  0  0  0  0  0  0
  -21.0320   30.0180   14.4920 C   0  0  0  0  0  2  0  0  0  0  0  0
  -20.9380   31.4080   15.0810 C   0  0  0  0  0  0  0  0  0  0  0  0
  -21.8620   31.9120   15.7090 O   0  0  0  0  0  0  0  0  0  0  0  0
  -19.7280   32.0300   14.9580 N   0  0  0  0  0  0  0  0  0  0  0  0
  -19.5850   32.8970   15.4580 H   0  0  0  0  0  0  0  0  0  0  0  0
  -18.5280   23.7240   10.5390 C   0  0  1  0  0  3  0  0  0  0  0  0
  -18.3160   22.5800    9.5610 C   0  0  0  0  0  0  0  0  0  0  0  0
  -17.1720   21.7730    9.6710 C   0  0  0  0  0  3  0  0  0  0  0  0
  -16.9360   20.7450    8.7530 C   0  0  0  0  0  3  0  0  0  0  0  0
  -17.8390   20.5170    7.7190 C   0  0  0  0  0  0  0  0  0  0  0  0
  -17.5420   19.2590    6.5860 Cl  0  0  0  0  0  0  0  0  0  0  0  0
  -18.9760   21.3090    7.5930 C   0  0  0  0  0  3  0  0  0  0  0  0
  -19.2150   22.3390    8.5080 C   0  0  0  0  0  3  0  0  0  0  0  0
  -18.8190   23.1420   11.9460 C   0  0  0  0  0  2  0  0  0  0  0  0
  -20.2860   22.9150   12.2220 N   0  0  0  0  0  4  0  0  0  0  0  0
  -20.7760   23.6920   11.7280 H   0  0  0  0  0  0  0  0  0  0  0  0
  -20.4760   23.0990   13.2160 H   0  0  0  0  0  0  0  0  0  0  0  0
  -19.9060   20.4820   12.0840 C   0  0  0  0  0  1  0  0  0  0  0  0
  -20.8970   21.6060   11.8180 C   0  0  0  0  0  3  0  0  0  0  0  0
  -22.1840   21.4200   12.6120 C   0  0  0  0  0  1  0  0  0  0  0  0
  1  3  1  0  0  0  0
  2  1  2  0  0  0  0
  3  4  1  0  0  0  0
  3  9  1  0  0  0  0
  4  5  1  0  0  0  0
  5  6  1  0  0  0  0
  6 10  1  0  0  0  0
  7  8  1  6  0  0  0
  7  6  1  0  0  0  0
  9  8  1  6  0  0  0
  9  7  1  0  0  0  0
 10 11  2  0  0  0  0
 10 15  1  0  0  0  0
 11 12  1  0  0  0  0
 12 13  2  0  0  0  0
 14 13  1  0  0  0  0
 14 21  1  0  0  0  0
 15 14  2  0  0  0  0
 16 17  1  6  0  0  0
 16 15  1  0  0  0  0
 16 18  1  0  0  0  0
 18 19  1  0  0  0  0
 19 20  2  0  0  0  0
 21 19  1  0  0  0  0
 21 22  1  0  0  0  0
 23  1  1  0  0  0  0
 23 31  1  1  0  0  0
 24 25  1  0  0  0  0
 24 23  1  0  0  0  0
 26 25  2  0  0  0  0
 27 26  1  0  0  0  0
 28 27  1  0  0  0  0
 29 27  2  0  0  0  0
 29 30  1  0  0  0  0
 30 24  2  0  0  0  0
 31 32  1  0  0  0  0
 32 34  1  0  0  0  0
 33 32  1  0  0  0  0
 36 35  1  0  0  0  0
 36 32  1  0  0  0  0
 36 37  1  0  0  0  0
M  END
>  <minimizedAffinity>
-8.81877232

$$$$

 OpenBabel11232420523D

 37 41  0  0  1  0  0  0  0  0999 V2000
  -21.0220   16.1660   16.8700 C   0  0  0  0  0  0  0  0  0  0  0  0
  -19.9870   15.9880   17.5280 O   0  0  0  0  0  0  0  0  0  0  0  0
  -20.9960   16.2810   15.4880 N   0  0  0  0  0  0  0  0  0  0  0  0
  -19.6670   16.2050   14.8410 C   0  0  0  0  0  2  0  0  0  0  0  0
  -19.6300   16.1460   13.3060 C   0  0  0  0  0  2  0  0  0  0  0  0
  -20.5240   17.1680   12.7620 N   0  0  0  0  0  0  0  0  0  0  0  0
  -21.9160   17.0870   13.2260 C   0  0  1  0  0  3  0  0  0  0  0  0
  -22.6260   15.8010   13.5490 C   0  0  0  0  0  2  0  0  0  0  0  0
  -22.1310   16.6720   14.6680 C   0  0  1  0  0  3  0  0  0  0  0  0
  -20.2070   17.6130   11.4690 C   0  0  0  0  0  0  0  0  0  0  0  0
  -19.9400   16.6820   10.5330 N   0  0  0  0  0  0  0  0  0  0  0  0
  -19.5490   17.1150    9.3260 C   0  0  0  0  0  3  0  0  0  0  0  0
  -19.3290   18.3840    8.9830 N   0  0  0  0  0  0  0  0  0  0  0  0
  -19.5450   19.2790    9.9500 C   0  0  0  0  0  0  0  0  0  0  0  0
  -20.0510   18.9700   11.2030 C   0  0  0  0  0  0  0  0  0  0  0  0
  -20.3460   20.0940   12.1620 C   0  0  2  0  0  3  0  0  0  0  0  0
  -21.7300   20.7080   11.8950 C   0  0  0  0  0  1  0  0  0  0  0  0
  -19.2660   21.1700   12.0340 C   0  0  0  0  0  2  0  0  0  0  0  0
  -19.0640   21.5850   10.5930 C   0  0  0  0  0  0  0  0  0  0  0  0
  -18.7320   22.7240   10.2850 O   0  0  0  0  0  0  0  0  0  0  0  0
  -19.1770   20.5910    9.6630 N   0  0  0  0  0  0  0  0  0  0  0  0
  -18.9130   20.7990    8.7090 H   0  0  0  0  0  0  0  0  0  0  0  0
  -22.3350   16.3990   17.6220 C   0  0  1  0  0  3  0  0  0  0  0  0
  -23.0860   15.1160   17.9410 C   0  0  0  0  0  0  0  0  0  0  0  0
  -22.8530   14.4560   19.1580 C   0  0  0  0  0  3  0  0  0  0  0  0
  -23.5000   13.2510   19.4500 C   0  0  0  0  0  3  0  0  0  0  0  0
  -24.3820   12.6970   18.5270 C   0  0  0  0  0  0  0  0  0  0  0  0
  -25.1690   11.2110   18.8830 Cl  0  0  0  0  0  0  0  0  0  0  0  0
  -24.6230   13.3370   17.3150 C   0  0  0  0  0  3  0  0  0  0  0  0
  -23.9780   14.5410   17.0200 C   0  0  0  0  0  3  0  0  0  0  0  0
  -22.0650   17.1700   18.9400 C   0  0  0  0  0  2  0  0  0  0  0  0
  -21.5590   18.5770   18.7310 N   0  0  0  0  0  4  0  0  0  0  0  0
  -20.7910   18.4850   18.0310 H   0  0  0  0  0  0  0  0  0  0  0  0
  -21.0780   18.8940   19.5830 H   0  0  0  0  0  0  0  0  0  0  0  0
  -22.7000   19.5300   16.7620 C   0  0  0  0  0  1  0  0  0  0  0  0
  -22.5280   19.6260   18.2710 C   0  0  0  0  0  3  0  0  0  0  0  0
  -23.8470   19.4060   19.0020 C   0  0  0  0  0  1  0  0  0  0  0  0
  1  2  2  0  0  0  0
  1 23  1  0  0  0  0
  3  1  1  0  0  0  0
  4  3  1  0  0  0  0
  5  4  1  0  0  0  0
  6  7  1  0  0  0  0
  6  5  1  0  0  0  0
  7  8  1  6  0  0  0
  7  9  1  0  0  0  0
  9  8  1  6  0  0  0
  9  3  1  0  0  0  0
 10  6  1  0  0  0  0
 11 10  2  0  0  0  0
 12 11  1  0  0  0  0
 13 12  2  0  0  0  0
 13 14  1  0  0  0  0
 14 15  2  0  0  0  0
 15 10  1  0  0  0  0
 15 16  1  0  0  0  0
 16 17  1  6  0  0  0
 18 16  1  0  0  0  0
 19 18  1  0  0  0  0
 20 19  2  0  0  0  0
 21 14  1  0  0  0  0
 21 19  1  0  0  0  0
 22 21  1  0  0  0  0
 23 24  1  0  0  0  0
 23 31  1  1  0  0  0
 24 25  1  0  0  0  0
 25 26  2  0  0  0  0
 27 28  1  0  0  0  0
 27 26  1  0  0  0  0
 29 27  2  0  0  0  0
 30 29  1  0  0  0  0
 30 24  2  0  0  0  0
 32 31  1  0  0  0  0
 32 34  1  0  0  0  0
 33 32  1  0  0  0  0
 35 36  1  0  0  0  0
 36 32  1  0  0  0  0
 36 37  1  0  0  0  0
M  END
>  <minimizedAffinity>
-8.6918745

$$$$

 OpenBabel11232420523D

 37 41  0  0  1  0  0  0  0  0999 V2000
  -20.2860   15.4580   13.4730 C   0  0  0  0  0  0  0  0  0  0  0  0
  -19.6220   15.1850   12.4630 O   0  0  0  0  0  0  0  0  0  0  0  0
  -19.9190   15.0050   14.7330 N   0  0  0  0  0  0  0  0  0  0  0  0
  -18.7060   14.1600   14.8050 C   0  0  0  0  0  2  0  0  0  0  0  0
  -18.1770   13.8010   16.2020 C   0  0  0  0  0  2  0  0  0  0  0  0
  -19.2910   13.3560   17.0400 N   0  0  0  0  0  0  0  0  0  0  0  0
  -20.3970   14.3160   17.1620 C   0  0  1  0  0  3  0  0  0  0  0  0
  -20.2240   15.8110   17.1620 C   0  0  0  0  0  2  0  0  0  0  0  0
  -20.7380   15.1260   15.9280 C   0  0  1  0  0  3  0  0  0  0  0  0
  -18.9400   12.5040   18.0980 C   0  0  0  0  0  0  0  0  0  0  0  0
  -18.5440   13.0690   19.2550 N   0  0  0  0  0  0  0  0  0  0  0  0
  -18.1230   12.2500   20.2290 C   0  0  0  0  0  3  0  0  0  0  0  0
  -17.9900   10.9270   20.1370 N   0  0  0  0  0  0  0  0  0  0  0  0
  -18.3350   10.4020   18.9590 C   0  0  0  0  0  0  0  0  0  0  0  0
  -18.8830   11.1260   17.9110 C   0  0  0  0  0  0  0  0  0  0  0  0
  -19.3250   10.3870   16.6740 C   0  0  2  0  0  3  0  0  0  0  0  0
  -20.7370    9.8070   16.8440 C   0  0  0  0  0  1  0  0  0  0  0  0
  -18.3320    9.2630   16.3710 C   0  0  0  0  0  2  0  0  0  0  0  0
  -18.0850    8.3980   17.5870 C   0  0  0  0  0  0  0  0  0  0  0  0
  -17.8320    7.2020   17.4940 O   0  0  0  0  0  0  0  0  0  0  0  0
  -18.0620    9.0480   18.7890 N   0  0  0  0  0  0  0  0  0  0  0  0
  -17.7630    8.5300   19.6040 H   0  0  0  0  0  0  0  0  0  0  0  0
  -21.6150   16.1980   13.2950 C   0  0  1  0  0  3  0  0  0  0  0  0
  -21.4490   17.6820   13.0140 C   0  0  0  0  0  0  0  0  0  0  0  0
  -22.3480   18.6030   13.5760 C   0  0  0  0  0  3  0  0  0  0  0  0
  -22.2380   19.9680   13.2920 C   0  0  0  0  0  3  0  0  0  0  0  0
  -21.2340   20.4210   12.4430 C   0  0  0  0  0  0  0  0  0  0  0  0
  -21.1080   22.0980   12.0860 Cl  0  0  0  0  0  0  0  0  0  0  0  0
  -20.3360   19.5220   11.8750 C   0  0  0  0  0  3  0  0  0  0  0  0
  -20.4420   18.1580   12.1560 C   0  0  0  0  0  3  0  0  0  0  0  0
  -22.4350   15.5520   12.1500 C   0  0  0  0  0  2  0  0  0  0  0  0
  -23.8450   15.1800   12.5430 N   0  0  0  0  0  4  0  0  0  0  0  0
  -24.4500   15.6040   11.8080 H   0  0  0  0  0  0  0  0  0  0  0  0
  -24.1040   15.6900   13.3980 H   0  0  0  0  0  0  0  0  0  0  0  0
  -23.4550   12.9230   11.6260 C   0  0  0  0  0  1  0  0  0  0  0  0
  -24.1870   13.7270   12.6910 C   0  0  0  0  0  3  0  0  0  0  0  0
  -23.7910   13.2880   14.0960 C   0  0  0  0  0  1  0  0  0  0  0  0
  1  3  1  0  0  0  0
  2  1  2  0  0  0  0
  3  4  1  0  0  0  0
  3  9  1  0  0  0  0
  4  5  1  0  0  0  0
  5  6  1  0  0  0  0
  6  7  1  0  0  0  0
  6 10  1  0  0  0  0
  7  8  1  1  0  0  0
  9  7  1  0  0  0  0
  9  8  1  1  0  0  0
 10 11  1  0  0  0  0
 11 12  2  0  0  0  0
 13 12  1  0  0  0  0
 14 13  2  0  0  0  0
 15 10  2  0  0  0  0
 15 14  1  0  0  0  0
 16 17  1  1  0  0  0
 16 15  1  0  0  0  0
 18 16  1  0  0  0  0
 18 19  1  0  0  0  0
 19 21  1  0  0  0  0
 20 19  2  0  0  0  0
 21 14  1  0  0  0  0
 21 22  1  0  0  0  0
 23 31  1  6  0  0  0
 23  1  1  0  0  0  0
 24 23  1  0  0  0  0
 24 25  1  0  0  0  0
 26 25  2  0  0  0  0
 27 26  1  0  0  0  0
 28 27  1  0  0  0  0
 29 30  1  0  0  0  0
 29 27  2  0  0  0  0
 30 24  2  0  0  0  0
 31 32  1  0  0  0  0
 32 36  1  0  0  0  0
 32 34  1  0  0  0  0
 33 32  1  0  0  0  0
 35 36  1  0  0  0  0
 36 37  1  0  0  0  0
M  END
>  <minimizedAffinity>
-8.50355721

$$$$
