
 OpenBabel11232420523D

 37 41  0  0  1  0  0  0  0  0999 V2000
  -20.4680   22.5690   11.5560 C   0  0  0  0  0  0  0  0  0  0  0  0
  -21.2170   23.5560   11.5060 O   0  0  0  0  0  0  0  0  0  0  0  0
  -20.8890   21.3610   12.0920 N   0  0  0  0  0  0  0  0  0  0  0  0
  -22.2700   21.3160   12.6220 C   0  0  0  0  0  2  0  0  0  0  0  0
  -22.8190   19.9460   13.0510 C   0  0  0  0  0  2  0  0  0  0  0  0
  -21.8200   19.2610   13.8710 N   0  0  0  0  0  0  0  0  0  0  0  0
  -20.5060   19.0900   13.2350 C   0  0  1  0  0  3  0  0  0  0  0  0
  -20.3030   18.8730   11.7600 C   0  0  0  0  0  2  0  0  0  0  0  0
  -20.0220   20.2240   12.3530 C   0  0  1  0  0  3  0  0  0  0  0  0
  -22.3310   18.3070   14.7640 C   0  0  0  0  0  0  0  0  0  0  0  0
  -23.2190   18.7240   15.6870 N   0  0  0  0  0  0  0  0  0  0  0  0
  -23.6330   17.8280   16.5940 C   0  0  0  0  0  3  0  0  0  0  0  0
  -23.1920   16.5750   16.7150 N   0  0  0  0  0  0  0  0  0  0  0  0
  -22.2680   16.2100   15.8230 C   0  0  0  0  0  0  0  0  0  0  0  0
  -21.8370   17.0060   14.7730 C   0  0  0  0  0  0  0  0  0  0  0  0
  -20.8660   16.4270   13.7770 C   0  0  2  0  0  3  0  0  0  0  0  0
  -21.5930   15.6150   12.6940 C   0  0  0  0  0  1  0  0  0  0  0  0
  -19.8570   15.5370   14.5070 C   0  0  0  0  0  2  0  0  0  0  0  0
  -20.5500   14.5280   15.3970 C   0  0  0  0  0  0  0  0  0  0  0  0
  -20.0760   13.4190   15.6130 O   0  0  0  0  0  0  0  0  0  0  0  0
  -21.6840   14.9620   16.0230 N   0  0  0  0  0  0  0  0  0  0  0  0
  -22.0950   14.3670   16.7300 H   0  0  0  0  0  0  0  0  0  0  0  0
  -19.0060   22.7410   11.1390 C   0  0  1  0  0  3  0  0  0  0  0  0
  -18.6520   22.0090    9.8540 C   0  0  0  0  0  0  0  0  0  0  0  0
  -17.4810   21.2360    9.7920 C   0  0  0  0  0  3  0  0  0  0  0  0
  -17.1160   20.5920    8.6060 C   0  0  0  0  0  3  0  0  0  0  0  0
  -17.9140   20.7180    7.4740 C   0  0  0  0  0  0  0  0  0  0  0  0
  -17.4580   19.9340    6.0140 Cl  0  0  0  0  0  0  0  0  0  0  0  0
  -19.0770   21.4820    7.5170 C   0  0  0  0  0  3  0  0  0  0  0  0
  -19.4450   22.1270    8.7000 C   0  0  0  0  0  3  0  0  0  0  0  0
  -18.6710   24.2450   10.9730 C   0  0  0  0  0  2  0  0  0  0  0  0
  -17.1930   24.5320   10.8540 N   0  0  0  0  0  4  0  0  0  0  0  0
  -16.7260   23.6180   11.0400 H   0  0  0  0  0  0  0  0  0  0  0  0
  -16.8980   25.1230   11.6430 H   0  0  0  0  0  0  0  0  0  0  0  0
  -17.6570   26.1400    9.0410 C   0  0  0  0  0  1  0  0  0  0  0  0
  -16.6760   25.1030    9.5670 C   0  0  0  0  0  3  0  0  0  0  0  0
  -15.3050   25.7120    9.8360 C   0  0  0  0  0  1  0  0  0  0  0  0
  1  3  1  0  0  0  0
  2  1  2  0  0  0  0
  3  9  1  0  0  0  0
  3  4  1  0  0  0  0
  4  5  1  0  0  0  0
  5  6  1  0  0  0  0
  6 10  1  0  0  0  0
  7  8  1  6  0  0  0
  7  6  1  0  0  0  0
  9  8  1  6  0  0  0
  9  7  1  0  0  0  0
 10 15  2  0  0  0  0
 10 11  1  0  0  0  0
 11 12  2  0  0  0  0
 12 13  1  0  0  0  0
 14 21  1  0  0  0  0
 14 13  2  0  0  0  0
 15 14  1  0  0  0  0
 16 17  1  6  0  0  0
 16 18  1  0  0  0  0
 16 15  1  0  0  0  0
 18 19  1  0  0  0  0
 19 20  2  0  0  0  0
 19 21  1  0  0  0  0
 21 22  1  0  0  0  0
 23 31  1  6  0  0  0
 23  1  1  0  0  0  0
 24 23  1  0  0  0  0
 25 24  1  0  0  0  0
 26 25  2  0  0  0  0
 27 29  2  0  0  0  0
 27 26  1  0  0  0  0
 28 27  1  0  0  0  0
 29 30  1  0  0  0  0
 30 24  2  0  0  0  0
 32 31  1  0  0  0  0
 32 33  1  0  0  0  0
 32 34  1  0  0  0  0
 35 36  1  0  0  0  0
 36 37  1  0  0  0  0
 36 32  1  0  0  0  0
M  END
>  <minimizedAffinity>
-9.66104507

$$$$
