
 OpenBabel11232420523D

 37 41  0  0  1  0  0  0  0  0999 V2000
  -18.0380   24.7630   10.7680 C   0  0  0  0  0  0  0  0  0  0  0  0
  -16.8170   24.5620   10.7200 O   0  0  0  0  0  0  0  0  0  0  0  0
  -18.5610   26.0290   10.9890 N   0  0  0  0  0  0  0  0  0  0  0  0
  -17.5850   27.1240   11.1860 C   0  0  0  0  0  2  0  0  0  0  0  0
  -18.1340   28.5580   11.2480 C   0  0  0  0  0  2  0  0  0  0  0  0
  -19.2910   28.5940   12.1430 N   0  0  0  0  0  0  0  0  0  0  0  0
  -20.3740   27.6640   11.7930 C   0  0  1  0  0  3  0  0  0  0  0  0
  -20.7350   27.2760   10.3850 C   0  0  0  0  0  2  0  0  0  0  0  0
  -19.9640   26.3130   11.2420 C   0  0  1  0  0  3  0  0  0  0  0  0
  -19.5560   29.8410   12.7290 C   0  0  0  0  0  0  0  0  0  0  0  0
  -20.8230   30.2960   12.6920 N   0  0  0  0  0  0  0  0  0  0  0  0
  -21.0510   31.5270   13.1710 C   0  0  0  0  0  3  0  0  0  0  0  0
  -20.1260   32.3770   13.6170 N   0  0  0  0  0  0  0  0  0  0  0  0
  -18.8720   31.9200   13.5860 C   0  0  0  0  0  0  0  0  0  0  0  0
  -18.5180   30.6310   13.2140 C   0  0  0  0  0  0  0  0  0  0  0  0
  -17.0740   30.2170   13.3280 C   0  0  2  0  0  3  0  0  0  0  0  0
  -16.7340   29.7620   14.7560 C   0  0  0  0  0  1  0  0  0  0  0  0
  -16.1750   31.3870   12.9250 C   0  0  0  0  0  2  0  0  0  0  0  0
  -16.5440   32.6520   13.6680 C   0  0  0  0  0  0  0  0  0  0  0  0
  -15.7090   33.4990   13.9630 O   0  0  0  0  0  0  0  0  0  0  0  0
  -17.8770   32.8410   13.9020 N   0  0  0  0  0  0  0  0  0  0  0  0
  -18.1740   33.7350   14.2690 H   0  0  0  0  0  0  0  0  0  0  0  0
  -18.9790   23.5560   10.7200 C   0  0  1  0  0  3  0  0  0  0  0  0
  -18.5810   22.5190    9.6810 C   0  0  0  0  0  0  0  0  0  0  0  0
  -17.3630   21.8340    9.8130 C   0  0  0  0  0  3  0  0  0  0  0  0
  -16.9590   20.9100    8.8440 C   0  0  0  0  0  3  0  0  0  0  0  0
  -17.7660   20.6670    7.7380 C   0  0  0  0  0  0  0  0  0  0  0  0
  -17.2630   19.5380    6.5430 Cl  0  0  0  0  0  0  0  0  0  0  0  0
  -18.9760   21.3390    7.5910 C   0  0  0  0  0  3  0  0  0  0  0  0
  -19.3830   22.2640    8.5560 C   0  0  0  0  0  3  0  0  0  0  0  0
  -19.0500   22.8790   12.1120 C   0  0  0  0  0  2  0  0  0  0  0  0
  -20.4550   22.5620   12.5660 N   0  0  0  0  0  4  0  0  0  0  0  0
  -21.0170   23.4030   12.3090 H   0  0  0  0  0  0  0  0  0  0  0  0
  -20.4850   22.5530   13.5940 H   0  0  0  0  0  0  0  0  0  0  0  0
  -20.1980   20.1370   12.1940 C   0  0  0  0  0  1  0  0  0  0  0  0
  -21.1230   21.3330   12.0240 C   0  0  0  0  0  3  0  0  0  0  0  0
  -22.4360   21.1390   12.7740 C   0  0  0  0  0  1  0  0  0  0  0  0
  1  3  1  0  0  0  0
  2  1  2  0  0  0  0
  3  4  1  0  0  0  0
  3  9  1  0  0  0  0
  4  5  1  0  0  0  0
  5  6  1  0  0  0  0
  6 10  1  0  0  0  0
  7  8  1  6  0  0  0
  7  6  1  0  0  0  0
  9  8  1  6  0  0  0
  9  7  1  0  0  0  0
 10 15  1  0  0  0  0
 11 10  2  0  0  0  0
 11 12  1  0  0  0  0
 12 13  2  0  0  0  0
 14 13  1  0  0  0  0
 14 21  1  0  0  0  0
 15 16  1  0  0  0  0
 15 14  2  0  0  0  0
 16 17  1  1  0  0  0
 18 16  1  0  0  0  0
 18 19  1  0  0  0  0
 19 21  1  0  0  0  0
 19 20  2  0  0  0  0
 21 22  1  0  0  0  0
 23  1  1  0  0  0  0
 23 31  1  1  0  0  0
 24 25  1  0  0  0  0
 24 23  1  0  0  0  0
 26 25  2  0  0  0  0
 27 26  1  0  0  0  0
 28 27  1  0  0  0  0
 29 27  2  0  0  0  0
 29 30  1  0  0  0  0
 30 24  2  0  0  0  0
 31 32  1  0  0  0  0
 32 34  1  0  0  0  0
 33 32  1  0  0  0  0
 36 35  1  0  0  0  0
 36 32  1  0  0  0  0
 36 37  1  0  0  0  0
M  END
>  <minimizedAffinity>
-9.14568329

$$$$
