
 OpenBabel11232420523D

 37 41  0  0  1  0  0  0  0  0999 V2000
  -20.3150   22.4410   11.7730 C   0  0  0  0  0  0  0  0  0  0  0  0
  -21.0370   23.4390   11.9030 O   0  0  0  0  0  0  0  0  0  0  0  0
  -20.7820   21.1630   12.0460 N   0  0  0  0  0  0  0  0  0  0  0  0
  -22.1780   21.0550   12.5230 C   0  0  0  0  0  2  0  0  0  0  0  0
  -22.7740   19.6440   12.6560 C   0  0  0  0  0  2  0  0  0  0  0  0
  -21.8160   18.7800   13.3470 N   0  0  0  0  0  0  0  0  0  0  0  0
  -20.4890   18.7000   12.7210 C   0  0  1  0  0  3  0  0  0  0  0  0
  -20.2470   18.7740   11.2380 C   0  0  0  0  0  2  0  0  0  0  0  0
  -19.9510   19.9710   12.0960 C   0  0  1  0  0  3  0  0  0  0  0  0
  -22.3780   17.6830   14.0180 C   0  0  0  0  0  0  0  0  0  0  0  0
  -22.7080   16.6010   13.2870 N   0  0  0  0  0  0  0  0  0  0  0  0
  -23.3270   15.5950   13.9200 C   0  0  0  0  0  3  0  0  0  0  0  0
  -23.7140   15.5920   15.1960 N   0  0  0  0  0  0  0  0  0  0  0  0
  -23.4260   16.7020   15.8790 C   0  0  0  0  0  0  0  0  0  0  0  0
  -22.6970   17.7660   15.3700 C   0  0  0  0  0  0  0  0  0  0  0  0
  -22.3540   18.9120   16.2870 C   0  0  2  0  0  3  0  0  0  0  0  0
  -21.0930   18.6080   17.1120 C   0  0  0  0  0  1  0  0  0  0  0  0
  -23.5340   19.1890   17.2210 C   0  0  0  0  0  2  0  0  0  0  0  0
  -24.0030   17.9270   17.9100 C   0  0  0  0  0  0  0  0  0  0  0  0
  -24.4830   17.9430   19.0380 O   0  0  0  0  0  0  0  0  0  0  0  0
  -23.9540   16.7830   17.1640 N   0  0  0  0  0  0  0  0  0  0  0  0
  -24.3870   15.9510   17.5400 H   0  0  0  0  0  0  0  0  0  0  0  0
  -18.8370   22.6480   11.4340 C   0  0  1  0  0  3  0  0  0  0  0  0
  -18.4450   22.0990   10.0710 C   0  0  0  0  0  0  0  0  0  0  0  0
  -19.3240   22.2380    8.9850 C   0  0  0  0  0  3  0  0  0  0  0  0
  -19.0010   21.7010    7.7360 C   0  0  0  0  0  3  0  0  0  0  0  0
  -17.8010   21.0180    7.5630 C   0  0  0  0  0  0  0  0  0  0  0  0
  -17.4110   20.3490    6.0290 Cl  0  0  0  0  0  0  0  0  0  0  0  0
  -16.9190   20.8690    8.6300 C   0  0  0  0  0  3  0  0  0  0  0  0
  -17.2380   21.4050    9.8800 C   0  0  0  0  0  3  0  0  0  0  0  0
  -18.4810   24.1550   11.4960 C   0  0  0  0  0  2  0  0  0  0  0  0
  -17.0580   24.4630   11.0960 N   0  0  0  0  0  4  0  0  0  0  0  0
  -16.6660   23.5520   10.7740 H   0  0  0  0  0  0  0  0  0  0  0  0
  -16.5090   24.6820   11.9390 H   0  0  0  0  0  0  0  0  0  0  0  0
  -15.8110   24.9850    9.0320 C   0  0  0  0  0  1  0  0  0  0  0  0
  -16.8190   25.5070   10.0460 C   0  0  0  0  0  3  0  0  0  0  0  0
  -18.1550   25.8350    9.3910 C   0  0  0  0  0  1  0  0  0  0  0  0
  1  2  2  0  0  0  0
  1  3  1  0  0  0  0
  3  9  1  0  0  0  0
  3  4  1  0  0  0  0
  4  5  1  0  0  0  0
  5  6  1  0  0  0  0
  6 10  1  0  0  0  0
  7  8  1  6  0  0  0
  7  6  1  0  0  0  0
  9  8  1  6  0  0  0
  9  7  1  0  0  0  0
 10 15  1  0  0  0  0
 11 12  1  0  0  0  0
 11 10  2  0  0  0  0
 12 13  2  0  0  0  0
 13 14  1  0  0  0  0
 14 21  1  0  0  0  0
 15 14  2  0  0  0  0
 15 16  1  0  0  0  0
 16 17  1  1  0  0  0
 16 18  1  0  0  0  0
 18 19  1  0  0  0  0
 19 20  2  0  0  0  0
 21 22  1  0  0  0  0
 21 19  1  0  0  0  0
 23 31  1  6  0  0  0
 23  1  1  0  0  0  0
 24 23  1  0  0  0  0
 25 24  2  0  0  0  0
 26 25  1  0  0  0  0
 27 26  2  0  0  0  0
 27 29  1  0  0  0  0
 28 27  1  0  0  0  0
 29 30  2  0  0  0  0
 30 24  1  0  0  0  0
 32 31  1  0  0  0  0
 32 34  1  0  0  0  0
 33 32  1  0  0  0  0
 35 36  1  0  0  0  0
 36 32  1  0  0  0  0
 37 36  1  0  0  0  0
M  END
>  <minimizedAffinity>
-10.3839245

$$$$
