
 OpenBabel11232420523D

 37 41  0  0  1  0  0  0  0  0999 V2000
  -21.0220   16.1660   16.8700 C   0  0  0  0  0  0  0  0  0  0  0  0
  -19.9870   15.9880   17.5280 O   0  0  0  0  0  0  0  0  0  0  0  0
  -20.9960   16.2810   15.4880 N   0  0  0  0  0  0  0  0  0  0  0  0
  -19.6670   16.2050   14.8410 C   0  0  0  0  0  2  0  0  0  0  0  0
  -19.6300   16.1460   13.3060 C   0  0  0  0  0  2  0  0  0  0  0  0
  -20.5240   17.1680   12.7620 N   0  0  0  0  0  0  0  0  0  0  0  0
  -21.9160   17.0870   13.2260 C   0  0  1  0  0  3  0  0  0  0  0  0
  -22.6260   15.8010   13.5490 C   0  0  0  0  0  2  0  0  0  0  0  0
  -22.1310   16.6720   14.6680 C   0  0  1  0  0  3  0  0  0  0  0  0
  -20.2070   17.6130   11.4690 C   0  0  0  0  0  0  0  0  0  0  0  0
  -19.9400   16.6820   10.5330 N   0  0  0  0  0  0  0  0  0  0  0  0
  -19.5490   17.1150    9.3260 C   0  0  0  0  0  3  0  0  0  0  0  0
  -19.3290   18.3840    8.9830 N   0  0  0  0  0  0  0  0  0  0  0  0
  -19.5450   19.2790    9.9500 C   0  0  0  0  0  0  0  0  0  0  0  0
  -20.0510   18.9700   11.2030 C   0  0  0  0  0  0  0  0  0  0  0  0
  -20.3460   20.0940   12.1620 C   0  0  2  0  0  3  0  0  0  0  0  0
  -21.7300   20.7080   11.8950 C   0  0  0  0  0  1  0  0  0  0  0  0
  -19.2660   21.1700   12.0340 C   0  0  0  0  0  2  0  0  0  0  0  0
  -19.0640   21.5850   10.5930 C   0  0  0  0  0  0  0  0  0  0  0  0
  -18.7320   22.7240   10.2850 O   0  0  0  0  0  0  0  0  0  0  0  0
  -19.1770   20.5910    9.6630 N   0  0  0  0  0  0  0  0  0  0  0  0
  -18.9130   20.7990    8.7090 H   0  0  0  0  0  0  0  0  0  0  0  0
  -22.3350   16.3990   17.6220 C   0  0  1  0  0  3  0  0  0  0  0  0
  -23.0860   15.1160   17.9410 C   0  0  0  0  0  0  0  0  0  0  0  0
  -22.8530   14.4560   19.1580 C   0  0  0  0  0  3  0  0  0  0  0  0
  -23.5000   13.2510   19.4500 C   0  0  0  0  0  3  0  0  0  0  0  0
  -24.3820   12.6970   18.5270 C   0  0  0  0  0  0  0  0  0  0  0  0
  -25.1690   11.2110   18.8830 Cl  0  0  0  0  0  0  0  0  0  0  0  0
  -24.6230   13.3370   17.3150 C   0  0  0  0  0  3  0  0  0  0  0  0
  -23.9780   14.5410   17.0200 C   0  0  0  0  0  3  0  0  0  0  0  0
  -22.0650   17.1700   18.9400 C   0  0  0  0  0  2  0  0  0  0  0  0
  -21.5590   18.5770   18.7310 N   0  0  0  0  0  4  0  0  0  0  0  0
  -20.7910   18.4850   18.0310 H   0  0  0  0  0  0  0  0  0  0  0  0
  -21.0780   18.8940   19.5830 H   0  0  0  0  0  0  0  0  0  0  0  0
  -22.7000   19.5300   16.7620 C   0  0  0  0  0  1  0  0  0  0  0  0
  -22.5280   19.6260   18.2710 C   0  0  0  0  0  3  0  0  0  0  0  0
  -23.8470   19.4060   19.0020 C   0  0  0  0  0  1  0  0  0  0  0  0
  1  2  2  0  0  0  0
  1 23  1  0  0  0  0
  3  1  1  0  0  0  0
  4  3  1  0  0  0  0
  5  4  1  0  0  0  0
  6  7  1  0  0  0  0
  6  5  1  0  0  0  0
  7  8  1  6  0  0  0
  7  9  1  0  0  0  0
  9  8  1  6  0  0  0
  9  3  1  0  0  0  0
 10  6  1  0  0  0  0
 11 10  2  0  0  0  0
 12 11  1  0  0  0  0
 13 12  2  0  0  0  0
 13 14  1  0  0  0  0
 14 15  2  0  0  0  0
 15 10  1  0  0  0  0
 15 16  1  0  0  0  0
 16 17  1  6  0  0  0
 18 16  1  0  0  0  0
 19 18  1  0  0  0  0
 20 19  2  0  0  0  0
 21 14  1  0  0  0  0
 21 19  1  0  0  0  0
 22 21  1  0  0  0  0
 23 24  1  0  0  0  0
 23 31  1  1  0  0  0
 24 25  1  0  0  0  0
 25 26  2  0  0  0  0
 27 28  1  0  0  0  0
 27 26  1  0  0  0  0
 29 27  2  0  0  0  0
 30 29  1  0  0  0  0
 30 24  2  0  0  0  0
 32 31  1  0  0  0  0
 32 34  1  0  0  0  0
 33 32  1  0  0  0  0
 35 36  1  0  0  0  0
 36 32  1  0  0  0  0
 36 37  1  0  0  0  0
M  END
>  <minimizedAffinity>
-8.6918745

$$$$
