
 OpenBabel11232420523D

 37 41  0  0  1  0  0  0  0  0999 V2000
  -18.1500   25.7030   10.8370 C   0  0  0  0  0  0  0  0  0  0  0  0
  -17.0830   25.1760   11.1820 O   0  0  0  0  0  0  0  0  0  0  0  0
  -18.3570   27.0720   10.9480 N   0  0  0  0  0  0  0  0  0  0  0  0
  -17.2460   27.8650   11.5200 C   0  0  0  0  0  2  0  0  0  0  0  0
  -17.3780   29.3960   11.4830 C   0  0  0  0  0  2  0  0  0  0  0  0
  -18.7130   29.7760   11.9470 N   0  0  0  0  0  0  0  0  0  0  0  0
  -19.8250   29.1650   11.2060 C   0  0  1  0  0  3  0  0  0  0  0  0
  -19.7860   28.8420    9.7370 C   0  0  0  0  0  2  0  0  0  0  0  0
  -19.6330   27.7360   10.7420 C   0  0  1  0  0  3  0  0  0  0  0  0
  -18.8130   31.0680   12.4860 C   0  0  0  0  0  0  0  0  0  0  0  0
  -18.4370   32.1030   11.7100 N   0  0  0  0  0  0  0  0  0  0  0  0
  -18.4480   33.3240   12.2620 C   0  0  0  0  0  3  0  0  0  0  0  0
  -18.7280   33.6050   13.5350 N   0  0  0  0  0  0  0  0  0  0  0  0
  -19.0380   32.5520   14.2950 C   0  0  0  0  0  0  0  0  0  0  0  0
  -19.1650   31.2560   13.8190 C   0  0  0  0  0  0  0  0  0  0  0  0
  -19.6260   30.1790   14.7680 C   0  0  2  0  0  3  0  0  0  0  0  0
  -21.1580   30.1520   14.8820 C   0  0  0  0  0  1  0  0  0  0  0  0
  -19.0040   30.4150   16.1460 C   0  0  0  0  0  2  0  0  0  0  0  0
  -19.2290   31.8340   16.6200 C   0  0  0  0  0  0  0  0  0  0  0  0
  -19.3550   32.1100   17.8080 O   0  0  0  0  0  0  0  0  0  0  0  0
  -19.1830   32.8010   15.6560 N   0  0  0  0  0  0  0  0  0  0  0  0
  -19.1900   33.7680   15.9520 H   0  0  0  0  0  0  0  0  0  0  0  0
  -19.3080   24.7980   10.4110 C   0  0  1  0  0  3  0  0  0  0  0  0
  -18.8890   23.6860    9.4620 C   0  0  0  0  0  0  0  0  0  0  0  0
  -19.8690   22.9360    8.7920 C   0  0  0  0  0  3  0  0  0  0  0  0
  -19.5050   21.8800    7.9510 C   0  0  0  0  0  3  0  0  0  0  0  0
  -18.1610   21.5630    7.7770 C   0  0  0  0  0  0  0  0  0  0  0  0
  -17.7160   20.2580    6.7510 Cl  0  0  0  0  0  0  0  0  0  0  0  0
  -17.1770   22.2940    8.4360 C   0  0  0  0  0  3  0  0  0  0  0  0
  -17.5370   23.3500    9.2780 C   0  0  0  0  0  3  0  0  0  0  0  0
  -19.9850   24.1740   11.6570 C   0  0  0  0  0  2  0  0  0  0  0  0
  -19.2780   22.9490   12.1870 N   0  0  0  0  0  4  0  0  0  0  0  0
  -18.8920   23.2390   13.1110 H   0  0  0  0  0  0  0  0  0  0  0  0
  -18.4390   22.7700   11.6180 H   0  0  0  0  0  0  0  0  0  0  0  0
  -21.5190   21.9370   11.9830 C   0  0  0  0  0  1  0  0  0  0  0  0
  -20.0640   21.6830   12.3510 C   0  0  0  0  0  3  0  0  0  0  0  0
  -19.4380   20.6170   11.4600 C   0  0  0  0  0  1  0  0  0  0  0  0
  1  3  1  0  0  0  0
  1  2  2  0  0  0  0
  3  4  1  0  0  0  0
  5  4  1  0  0  0  0
  5  6  1  0  0  0  0
  6 10  1  0  0  0  0
  7  8  1  6  0  0  0
  7  6  1  0  0  0  0
  9  8  1  6  0  0  0
  9  3  1  0  0  0  0
  9  7  1  0  0  0  0
 10 15  1  0  0  0  0
 11 12  1  0  0  0  0
 11 10  2  0  0  0  0
 12 13  2  0  0  0  0
 13 14  1  0  0  0  0
 14 21  1  0  0  0  0
 15 14  2  0  0  0  0
 15 16  1  0  0  0  0
 16 17  1  1  0  0  0
 16 18  1  0  0  0  0
 18 19  1  0  0  0  0
 19 20  2  0  0  0  0
 21 22  1  0  0  0  0
 21 19  1  0  0  0  0
 23  1  1  0  0  0  0
 23 31  1  1  0  0  0
 24 23  1  0  0  0  0
 25 24  2  0  0  0  0
 26 25  1  0  0  0  0
 27 26  2  0  0  0  0
 27 29  1  0  0  0  0
 28 27  1  0  0  0  0
 29 30  2  0  0  0  0
 30 24  1  0  0  0  0
 31 32  1  0  0  0  0
 32 36  1  0  0  0  0
 32 33  1  0  0  0  0
 34 32  1  0  0  0  0
 35 36  1  0  0  0  0
 37 36  1  0  0  0  0
M  END
>  <minimizedAffinity>
-9.81077766

$$$$
