
 OpenBabel11232420193D

 41 47  0  0  1  0  0  0  0  0999 V2000
    0.5570    5.9300   -6.8860 C   0  0  0  0  0  0  0  0  0  0  0  0
    1.3960    5.1340   -7.5990 N   0  0  0  0  0  0  0  0  0  0  0  0
    2.6670    5.5570   -7.7700 C   0  0  0  0  0  0  0  0  0  0  0  0
    3.5210    4.6680   -8.5570 C   0  0  0  0  0  3  0  0  0  0  0  0
    4.7960    4.9940   -8.7970 C   0  0  0  0  0  3  0  0  0  0  0  0
    5.3270    6.2030   -8.2920 C   0  0  0  0  0  0  0  0  0  0  0  0
    6.5310    6.7120   -8.4090 N   0  0  0  0  0  0  0  0  0  0  0  0
    6.5480    7.9040   -7.7490 N   0  0  0  0  0  0  0  0  0  0  0  0
    5.3520    8.1190   -7.2290 C   0  0  0  0  0  0  0  0  0  0  0  0
    4.5230    7.0560   -7.5390 N   0  0  0  0  0  0  0  0  0  0  0  0
    3.1630    6.7560   -7.2530 C   0  0  0  0  0  0  0  0  0  0  0  0
    2.2970    7.5480   -6.5070 C   0  0  0  0  0  3  0  0  0  0  0  0
    0.9610    7.1450   -6.3050 C   0  0  0  0  0  0  0  0  0  0  0  0
   -3.4670    4.3130   -6.7010 C   0  0  0  0  0  0  0  0  0  0  0  0
   -2.4930    4.0160   -5.7240 C   0  0  0  0  0  3  0  0  0  0  0  0
   -1.1950    4.5400   -5.7810 C   0  0  0  0  0  3  0  0  0  0  0  0
   -0.8140    5.4050   -6.8120 C   0  0  0  0  0  0  0  0  0  0  0  0
   -1.7670    5.7210   -7.7860 C   0  0  0  0  0  3  0  0  0  0  0  0
   -3.0590    5.1830   -7.7330 C   0  0  0  0  0  3  0  0  0  0  0  0
   -4.9120    3.6480   -6.6680 C   0  0  1  0  0  0  0  0  0  0  0  0
   -5.3840    2.8640   -7.9150 C   0  0  0  0  0  2  0  0  0  0  0  0
   -5.8850    1.6880   -7.0140 C   0  0  1  0  0  0  0  0  0  0  0  0
   -5.1390    2.3720   -5.8200 C   0  0  0  0  0  2  0  0  0  0  0  0
   -5.8480    4.7360   -6.2940 N   0  0  0  0  0  4  0  0  0  0  0  0
   -6.8220    4.4270   -6.2100 H   0  0  0  0  0  0  0  0  0  0  0  0
   -5.8260    5.5000   -6.9820 H   0  0  0  0  0  0  0  0  0  0  0  0
   -5.5810    5.1590   -5.3930 H   0  0  0  0  0  0  0  0  0  0  0  0
   -7.4030    1.4970   -6.8860 C   0  0  0  0  0  3  0  0  0  0  0  0
   -8.1400    0.1960   -6.6950 C   0  0  0  0  0  2  0  0  0  0  0  0
   -8.1800    1.2430   -5.6200 C   0  0  0  0  0  2  0  0  0  0  0  0
   -5.2760    0.4240   -7.3800 O   0  0  0  0  0  0  0  0  0  0  0  0
   -4.3130    0.5530   -7.4470 H   0  0  0  0  0  0  0  0  0  0  0  0
    0.0670    7.9870   -5.4930 C   0  0  0  0  0  0  0  0  0  0  0  0
   -0.8380    8.8700   -6.1040 C   0  0  0  0  0  3  0  0  0  0  0  0
   -1.6820    9.6740   -5.3340 C   0  0  0  0  0  3  0  0  0  0  0  0
   -1.6280    9.6130   -3.9430 C   0  0  0  0  0  3  0  0  0  0  0  0
   -0.7310    8.7490   -3.3210 C   0  0  0  0  0  3  0  0  0  0  0  0
    0.1120    7.9430   -4.0900 C   0  0  0  0  0  3  0  0  0  0  0  0
    5.0010    9.3230   -6.4550 C   0  0  0  0  0  3  0  0  0  0  0  0
    3.9750   10.0060   -7.0320 F   0  0  0  0  0  0  0  0  0  0  0  0
    4.5930    9.0040   -5.1960 F   0  0  0  0  0  0  0  0  0  0  0  0
  1 17  1  0  0  0  0
  1 13  1  0  0  0  0
  2  1  2  0  0  0  0
  3  2  1  0  0  0  0
  3 11  2  0  0  0  0
  4  3  1  0  0  0  0
  5  4  2  0  0  0  0
  5  6  1  0  0  0  0
  6 10  1  0  0  0  0
  7  6  2  0  0  0  0
  7  8  1  0  0  0  0
  8  9  2  0  0  0  0
  9 39  1  0  0  0  0
 10 11  1  0  0  0  0
 10  9  1  0  0  0  0
 11 12  1  0  0  0  0
 12 13  2  0  0  0  0
 13 33  1  0  0  0  0
 14 20  1  0  0  0  0
 14 15  1  0  0  0  0
 16 15  2  0  0  0  0
 17 16  1  0  0  0  0
 18 19  1  0  0  0  0
 18 17  2  0  0  0  0
 19 14  2  0  0  0  0
 20 24  1  1  0  0  0
 20 23  1  0  0  0  0
 21 22  1  0  0  0  0
 21 20  1  0  0  0  0
 22 31  1  6  0  0  0
 22 28  1  0  0  0  0
 22 23  1  0  0  0  0
 24 25  1  0  0  0  0
 24 27  1  0  0  0  0
 26 24  1  0  0  0  0
 28 29  1  0  0  0  0
 28 30  1  0  0  0  0
 29 30  1  0  0  0  0
 32 31  1  0  0  0  0
 33 38  1  0  0  0  0
 34 33  2  0  0  0  0
 34 35  1  0  0  0  0
 35 36  2  0  0  0  0
 36 37  1  0  0  0  0
 38 37  2  0  0  0  0
 39 41  1  0  0  0  0
 40 39  1  0  0  0  0
M  END
>  <minimizedAffinity>
-12.3618727

$$$$
