
 OpenBabel11232420193D

 41 47  0  0  1  0  0  0  0  0999 V2000
    0.5570    5.9300   -6.8860 C   0  0  0  0  0  0  0  0  0  0  0  0
    1.3960    5.1340   -7.5990 N   0  0  0  0  0  0  0  0  0  0  0  0
    2.6670    5.5570   -7.7700 C   0  0  0  0  0  0  0  0  0  0  0  0
    3.5210    4.6680   -8.5570 C   0  0  0  0  0  3  0  0  0  0  0  0
    4.7960    4.9940   -8.7970 C   0  0  0  0  0  3  0  0  0  0  0  0
    5.3270    6.2030   -8.2920 C   0  0  0  0  0  0  0  0  0  0  0  0
    6.5310    6.7120   -8.4090 N   0  0  0  0  0  0  0  0  0  0  0  0
    6.5480    7.9040   -7.7490 N   0  0  0  0  0  0  0  0  0  0  0  0
    5.3520    8.1190   -7.2290 C   0  0  0  0  0  0  0  0  0  0  0  0
    4.5230    7.0560   -7.5390 N   0  0  0  0  0  0  0  0  0  0  0  0
    3.1630    6.7560   -7.2530 C   0  0  0  0  0  0  0  0  0  0  0  0
    2.2970    7.5480   -6.5070 C   0  0  0  0  0  3  0  0  0  0  0  0
    0.9610    7.1450   -6.3050 C   0  0  0  0  0  0  0  0  0  0  0  0
   -3.4670    4.3130   -6.7010 C   0  0  0  0  0  0  0  0  0  0  0  0
   -2.4930    4.0160   -5.7240 C   0  0  0  0  0  3  0  0  0  0  0  0
   -1.1950    4.5400   -5.7810 C   0  0  0  0  0  3  0  0  0  0  0  0
   -0.8140    5.4050   -6.8120 C   0  0  0  0  0  0  0  0  0  0  0  0
   -1.7670    5.7210   -7.7860 C   0  0  0  0  0  3  0  0  0  0  0  0
   -3.0590    5.1830   -7.7330 C   0  0  0  0  0  3  0  0  0  0  0  0
   -4.9120    3.6480   -6.6680 C   0  0  1  0  0  0  0  0  0  0  0  0
   -5.3840    2.8640   -7.9150 C   0  0  0  0  0  2  0  0  0  0  0  0
   -5.8850    1.6880   -7.0140 C   0  0  1  0  0  0  0  0  0  0  0  0
   -5.1390    2.3720   -5.8200 C   0  0  0  0  0  2  0  0  0  0  0  0
   -5.8480    4.7360   -6.2940 N   0  0  0  0  0  4  0  0  0  0  0  0
   -6.8220    4.4270   -6.2100 H   0  0  0  0  0  0  0  0  0  0  0  0
   -5.8260    5.5000   -6.9820 H   0  0  0  0  0  0  0  0  0  0  0  0
   -5.5810    5.1590   -5.3930 H   0  0  0  0  0  0  0  0  0  0  0  0
   -7.4030    1.4970   -6.8860 C   0  0  0  0  0  3  0  0  0  0  0  0
   -8.1400    0.1960   -6.6950 C   0  0  0  0  0  2  0  0  0  0  0  0
   -8.1800    1.2430   -5.6200 C   0  0  0  0  0  2  0  0  0  0  0  0
   -5.2760    0.4240   -7.3800 O   0  0  0  0  0  0  0  0  0  0  0  0
   -4.3130    0.5530   -7.4470 H   0  0  0  0  0  0  0  0  0  0  0  0
    0.0670    7.9870   -5.4930 C   0  0  0  0  0  0  0  0  0  0  0  0
   -0.8380    8.8700   -6.1040 C   0  0  0  0  0  3  0  0  0  0  0  0
   -1.6820    9.6740   -5.3340 C   0  0  0  0  0  3  0  0  0  0  0  0
   -1.6280    9.6130   -3.9430 C   0  0  0  0  0  3  0  0  0  0  0  0
   -0.7310    8.7490   -3.3210 C   0  0  0  0  0  3  0  0  0  0  0  0
    0.1120    7.9430   -4.0900 C   0  0  0  0  0  3  0  0  0  0  0  0
    5.0010    9.3230   -6.4550 C   0  0  0  0  0  3  0  0  0  0  0  0
    3.9750   10.0060   -7.0320 F   0  0  0  0  0  0  0  0  0  0  0  0
    4.5930    9.0040   -5.1960 F   0  0  0  0  0  0  0  0  0  0  0  0
  1 17  1  0  0  0  0
  1 13  1  0  0  0  0
  2  1  2  0  0  0  0
  3  2  1  0  0  0  0
  3 11  2  0  0  0  0
  4  3  1  0  0  0  0
  5  4  2  0  0  0  0
  5  6  1  0  0  0  0
  6 10  1  0  0  0  0
  7  6  2  0  0  0  0
  7  8  1  0  0  0  0
  8  9  2  0  0  0  0
  9 39  1  0  0  0  0
 10 11  1  0  0  0  0
 10  9  1  0  0  0  0
 11 12  1  0  0  0  0
 12 13  2  0  0  0  0
 13 33  1  0  0  0  0
 14 20  1  0  0  0  0
 14 15  1  0  0  0  0
 16 15  2  0  0  0  0
 17 16  1  0  0  0  0
 18 19  1  0  0  0  0
 18 17  2  0  0  0  0
 19 14  2  0  0  0  0
 20 24  1  1  0  0  0
 20 23  1  0  0  0  0
 21 22  1  0  0  0  0
 21 20  1  0  0  0  0
 22 31  1  6  0  0  0
 22 28  1  0  0  0  0
 22 23  1  0  0  0  0
 24 25  1  0  0  0  0
 24 27  1  0  0  0  0
 26 24  1  0  0  0  0
 28 29  1  0  0  0  0
 28 30  1  0  0  0  0
 29 30  1  0  0  0  0
 32 31  1  0  0  0  0
 33 38  1  0  0  0  0
 34 33  2  0  0  0  0
 34 35  1  0  0  0  0
 35 36  2  0  0  0  0
 36 37  1  0  0  0  0
 38 37  2  0  0  0  0
 39 41  1  0  0  0  0
 40 39  1  0  0  0  0
M  END
>  <minimizedAffinity>
-12.3618727

$$$$

 OpenBabel11232420193D

 41 47  0  0  1  0  0  0  0  0999 V2000
    0.6370    5.8660   -7.0500 C   0  0  0  0  0  0  0  0  0  0  0  0
    1.5630    5.1310   -7.7190 N   0  0  0  0  0  0  0  0  0  0  0  0
    2.7960    5.6620   -7.8700 C   0  0  0  0  0  0  0  0  0  0  0  0
    3.7470    4.8330   -8.6100 C   0  0  0  0  0  3  0  0  0  0  0  0
    4.9940    5.2670   -8.8270 C   0  0  0  0  0  3  0  0  0  0  0  0
    5.4010    6.5320   -8.3430 C   0  0  0  0  0  0  0  0  0  0  0  0
    6.5560    7.1440   -8.4460 N   0  0  0  0  0  0  0  0  0  0  0  0
    6.4490    8.3500   -7.8190 N   0  0  0  0  0  0  0  0  0  0  0  0
    5.2240    8.4700   -7.3360 C   0  0  0  0  0  0  0  0  0  0  0  0
    4.5020    7.3280   -7.6360 N   0  0  0  0  0  0  0  0  0  0  0  0
    3.1680    6.9140   -7.3760 C   0  0  0  0  0  0  0  0  0  0  0  0
    2.2140    7.6450   -6.6750 C   0  0  0  0  0  3  0  0  0  0  0  0
    0.9150    7.1280   -6.4950 C   0  0  0  0  0  0  0  0  0  0  0  0
   -3.2780    4.0070   -6.8230 C   0  0  0  0  0  0  0  0  0  0  0  0
   -3.0850    5.2810   -7.3980 C   0  0  0  0  0  3  0  0  0  0  0  0
   -1.8210    5.8800   -7.4750 C   0  0  0  0  0  3  0  0  0  0  0  0
   -0.6830    5.2220   -6.9960 C   0  0  0  0  0  0  0  0  0  0  0  0
   -0.8510    3.9540   -6.4300 C   0  0  0  0  0  3  0  0  0  0  0  0
   -2.1190    3.3640   -6.3430 C   0  0  0  0  0  3  0  0  0  0  0  0
   -4.7290    3.3720   -6.6700 C   0  0  1  0  0  0  0  0  0  0  0  0
   -4.8600    2.0170   -5.9360 C   0  0  0  0  0  2  0  0  0  0  0  0
   -6.0680    2.5600   -5.1030 C   0  0  1  0  0  0  0  0  0  0  0  0
   -5.7190    3.9840   -5.6490 C   0  0  0  0  0  2  0  0  0  0  0  0
   -5.2990    3.3330   -8.0390 N   0  0  0  0  0  4  0  0  0  0  0  0
   -6.2560    2.9660   -8.0740 H   0  0  0  0  0  0  0  0  0  0  0  0
   -4.7240    2.7540   -8.6660 H   0  0  0  0  0  0  0  0  0  0  0  0
   -5.3160    4.2730   -8.4580 H   0  0  0  0  0  0  0  0  0  0  0  0
   -7.4580    1.9950   -5.4290 C   0  0  0  0  0  3  0  0  0  0  0  0
   -7.7690    0.6720   -6.0810 C   0  0  0  0  0  2  0  0  0  0  0  0
   -8.2030    0.9290   -4.6670 C   0  0  0  0  0  2  0  0  0  0  0  0
   -5.8350    2.4550   -3.6760 O   0  0  0  0  0  0  0  0  0  0  0  0
   -4.9570    2.8250   -3.4770 H   0  0  0  0  0  0  0  0  0  0  0  0
   -0.0730    7.9070   -5.7300 C   0  0  0  0  0  0  0  0  0  0  0  0
   -0.4750    9.1800   -6.1640 C   0  0  0  0  0  3  0  0  0  0  0  0
   -1.4070    9.9230   -5.4350 C   0  0  0  0  0  3  0  0  0  0  0  0
   -1.9460    9.4060   -4.2590 C   0  0  0  0  0  3  0  0  0  0  0  0
   -1.5520    8.1480   -3.8090 C   0  0  0  0  0  3  0  0  0  0  0  0
   -0.6210    7.4040   -4.5390 C   0  0  0  0  0  3  0  0  0  0  0  0
    4.7460    9.6570   -6.6060 C   0  0  0  0  0  3  0  0  0  0  0  0
    3.6710   10.2220   -7.2220 F   0  0  0  0  0  0  0  0  0  0  0  0
    4.3450    9.3380   -5.3450 F   0  0  0  0  0  0  0  0  0  0  0  0
  1 17  1  0  0  0  0
  1 13  1  0  0  0  0
  2  1  2  0  0  0  0
  3  2  1  0  0  0  0
  3 11  2  0  0  0  0
  4  3  1  0  0  0  0
  5  4  2  0  0  0  0
  5  6  1  0  0  0  0
  6 10  1  0  0  0  0
  7  6  2  0  0  0  0
  7  8  1  0  0  0  0
  8  9  2  0  0  0  0
  9 39  1  0  0  0  0
 10 11  1  0  0  0  0
 10  9  1  0  0  0  0
 11 12  1  0  0  0  0
 12 13  2  0  0  0  0
 13 33  1  0  0  0  0
 14 20  1  0  0  0  0
 14 19  1  0  0  0  0
 15 14  2  0  0  0  0
 16 15  1  0  0  0  0
 16 17  2  0  0  0  0
 17 18  1  0  0  0  0
 18 19  2  0  0  0  0
 20 24  1  6  0  0  0
 20 21  1  0  0  0  0
 20 23  1  0  0  0  0
 21 22  1  0  0  0  0
 22 31  1  1  0  0  0
 23 22  1  0  0  0  0
 25 24  1  0  0  0  0
 26 24  1  0  0  0  0
 27 24  1  0  0  0  0
 28 22  1  0  0  0  0
 28 30  1  0  0  0  0
 29 28  1  0  0  0  0
 29 30  1  0  0  0  0
 31 32  1  0  0  0  0
 33 38  1  0  0  0  0
 34 33  2  0  0  0  0
 34 35  1  0  0  0  0
 35 36  2  0  0  0  0
 36 37  1  0  0  0  0
 38 37  2  0  0  0  0
 39 41  1  0  0  0  0
 40 39  1  0  0  0  0
M  END
>  <minimizedAffinity>
-10.8669758

$$$$

 OpenBabel11232420193D

 41 47  0  0  1  0  0  0  0  0999 V2000
    0.1820    6.1510   -6.1910 C   0  0  0  0  0  0  0  0  0  0  0  0
    0.0980    7.0960   -5.2190 N   0  0  0  0  0  0  0  0  0  0  0  0
    1.2030    7.8270   -4.9570 C   0  0  0  0  0  0  0  0  0  0  0  0
    1.0590    8.8190   -3.8930 C   0  0  0  0  0  3  0  0  0  0  0  0
    2.0940    9.5920   -3.5440 C   0  0  0  0  0  3  0  0  0  0  0  0
    3.3380    9.4530   -4.2040 C   0  0  0  0  0  0  0  0  0  0  0  0
    4.4670   10.0940   -4.0210 N   0  0  0  0  0  0  0  0  0  0  0  0
    5.3810    9.5940   -4.9010 N   0  0  0  0  0  0  0  0  0  0  0  0
    4.8030    8.6460   -5.6190 C   0  0  0  0  0  0  0  0  0  0  0  0
    3.4850    8.5120   -5.2210 N   0  0  0  0  0  0  0  0  0  0  0  0
    2.4170    7.6690   -5.6310 C   0  0  0  0  0  0  0  0  0  0  0  0
    2.4800    6.7120   -6.6380 C   0  0  0  0  0  3  0  0  0  0  0  0
    1.3500    5.9260   -6.9430 C   0  0  0  0  0  0  0  0  0  0  0  0
   -3.5080    3.9040   -6.6100 C   0  0  0  0  0  0  0  0  0  0  0  0
   -3.3050    5.1420   -7.2570 C   0  0  0  0  0  3  0  0  0  0  0  0
   -2.1130    5.8650   -7.1250 C   0  0  0  0  0  3  0  0  0  0  0  0
   -1.0560    5.3750   -6.3520 C   0  0  0  0  0  0  0  0  0  0  0  0
   -1.2310    4.1450   -5.7090 C   0  0  0  0  0  3  0  0  0  0  0  0
   -2.4300    3.4310   -5.8320 C   0  0  0  0  0  3  0  0  0  0  0  0
   -4.8950    3.1310   -6.7030 C   0  0  1  0  0  0  0  0  0  0  0  0
   -5.4960    2.8750   -8.1050 C   0  0  0  0  0  2  0  0  0  0  0  0
   -5.7980    1.3880   -7.7290 C   0  0  1  0  0  0  0  0  0  0  0  0
   -4.9290    1.6040   -6.4460 C   0  0  0  0  0  2  0  0  0  0  0  0
   -5.8260    3.8640   -5.8120 N   0  0  0  0  0  4  0  0  0  0  0  0
   -6.7600    3.4430   -5.7610 H   0  0  0  0  0  0  0  0  0  0  0  0
   -5.9440    4.8390   -6.1160 H   0  0  0  0  0  0  0  0  0  0  0  0
   -5.4580    3.9100   -4.8510 H   0  0  0  0  0  0  0  0  0  0  0  0
   -7.2700    0.9970   -7.5320 C   0  0  0  0  0  3  0  0  0  0  0  0
   -7.7960   -0.2500   -6.8700 C   0  0  0  0  0  2  0  0  0  0  0  0
   -8.0690    1.0920   -6.2570 C   0  0  0  0  0  2  0  0  0  0  0  0
   -5.1790    0.4560   -8.6520 O   0  0  0  0  0  0  0  0  0  0  0  0
   -4.2450    0.7050   -8.7620 H   0  0  0  0  0  0  0  0  0  0  0  0
    1.4300    4.9340   -8.0280 C   0  0  0  0  0  0  0  0  0  0  0  0
    2.6710    4.5570   -8.5660 C   0  0  0  0  0  3  0  0  0  0  0  0
    2.7470    3.6220   -9.6010 C   0  0  0  0  0  3  0  0  0  0  0  0
    1.5840    3.0550  -10.1170 C   0  0  0  0  0  3  0  0  0  0  0  0
    0.3440    3.4230   -9.6000 C   0  0  0  0  0  3  0  0  0  0  0  0
    0.2670    4.3570   -8.5650 C   0  0  0  0  0  3  0  0  0  0  0  0
    5.4990    7.8730   -6.6640 C   0  0  0  0  0  3  0  0  0  0  0  0
    5.9680    8.6820   -7.6530 F   0  0  0  0  0  0  0  0  0  0  0  0
    6.5770    7.2130   -6.1600 F   0  0  0  0  0  0  0  0  0  0  0  0
  1  2  1  0  0  0  0
  2  3  2  0  0  0  0
  3  4  1  0  0  0  0
  4  5  2  0  0  0  0
  6  7  2  0  0  0  0
  6  5  1  0  0  0  0
  8  7  1  0  0  0  0
  9 10  1  0  0  0  0
  9  8  2  0  0  0  0
 10  6  1  0  0  0  0
 11 10  1  0  0  0  0
 11  3  1  0  0  0  0
 12 11  2  0  0  0  0
 13 12  1  0  0  0  0
 13  1  2  0  0  0  0
 14 19  1  0  0  0  0
 15 16  1  0  0  0  0
 15 14  2  0  0  0  0
 16 17  2  0  0  0  0
 17  1  1  0  0  0  0
 17 18  1  0  0  0  0
 19 18  2  0  0  0  0
 20 14  1  0  0  0  0
 20 23  1  0  0  0  0
 20 24  1  1  0  0  0
 21 22  1  0  0  0  0
 21 20  1  0  0  0  0
 22 31  1  6  0  0  0
 22 28  1  0  0  0  0
 22 23  1  0  0  0  0
 24 25  1  0  0  0  0
 24 27  1  0  0  0  0
 26 24  1  0  0  0  0
 28 29  1  0  0  0  0
 28 30  1  0  0  0  0
 29 30  1  0  0  0  0
 32 31  1  0  0  0  0
 33 13  1  0  0  0  0
 34 33  2  0  0  0  0
 35 34  1  0  0  0  0
 36 35  2  0  0  0  0
 36 37  1  0  0  0  0
 37 38  2  0  0  0  0
 38 33  1  0  0  0  0
 39 41  1  0  0  0  0
 39  9  1  0  0  0  0
 40 39  1  0  0  0  0
M  END
>  <minimizedAffinity>
-10.320878

$$$$

 OpenBabel11232420193D

 41 47  0  0  1  0  0  0  0  0999 V2000
    0.3930    6.4770   -6.6090 C   0  0  0  0  0  0  0  0  0  0  0  0
    1.2770    5.6780   -7.2610 N   0  0  0  0  0  0  0  0  0  0  0  0
    2.5310    6.1450   -7.4410 C   0  0  0  0  0  0  0  0  0  0  0  0
    3.4350    5.2500   -8.1610 C   0  0  0  0  0  3  0  0  0  0  0  0
    4.6990    5.6170   -8.4030 C   0  0  0  0  0  3  0  0  0  0  0  0
    5.1690    6.8770   -7.9650 C   0  0  0  0  0  0  0  0  0  0  0  0
    6.3500    7.4300   -8.0970 N   0  0  0  0  0  0  0  0  0  0  0  0
    6.3060    8.6600   -7.5100 N   0  0  0  0  0  0  0  0  0  0  0  0
    5.0930    8.8530   -7.0210 C   0  0  0  0  0  0  0  0  0  0  0  0
    4.3160    7.7370   -7.2770 N   0  0  0  0  0  0  0  0  0  0  0  0
    2.9660    7.3940   -6.9920 C   0  0  0  0  0  0  0  0  0  0  0  0
    2.0540    8.1910   -6.3070 C   0  0  0  0  0  3  0  0  0  0  0  0
    0.7340    7.7420   -6.0980 C   0  0  0  0  0  0  0  0  0  0  0  0
   -3.5590    4.7060   -6.3080 C   0  0  0  0  0  0  0  0  0  0  0  0
   -3.0160    5.5110   -5.2830 C   0  0  0  0  0  3  0  0  0  0  0  0
   -1.7430    6.0860   -5.3820 C   0  0  0  0  0  3  0  0  0  0  0  0
   -0.9560    5.8980   -6.5220 C   0  0  0  0  0  0  0  0  0  0  0  0
   -1.4770    5.1110   -7.5550 C   0  0  0  0  0  3  0  0  0  0  0  0
   -2.7460    4.5270   -7.4470 C   0  0  0  0  0  3  0  0  0  0  0  0
   -4.9730    3.9950   -6.1510 C   0  0  1  0  0  0  0  0  0  0  0  0
   -4.9990    2.4690   -5.8970 C   0  0  0  0  0  2  0  0  0  0  0  0
   -6.0500    2.6540   -4.7550 C   0  0  1  0  0  0  0  0  0  0  0  0
   -5.7780    4.1920   -4.8430 C   0  0  0  0  0  2  0  0  0  0  0  0
   -5.7560    4.3840   -7.3490 N   0  0  0  0  0  4  0  0  0  0  0  0
   -6.7100    4.0080   -7.3540 H   0  0  0  0  0  0  0  0  0  0  0  0
   -5.2960    4.0690   -8.2130 H   0  0  0  0  0  0  0  0  0  0  0  0
   -5.8300    5.4080   -7.4240 H   0  0  0  0  0  0  0  0  0  0  0  0
   -7.4810    2.1680   -5.0290 C   0  0  0  0  0  3  0  0  0  0  0  0
   -7.9460    1.3270   -6.1890 C   0  0  0  0  0  2  0  0  0  0  0  0
   -8.0270    0.7840   -4.7920 C   0  0  0  0  0  2  0  0  0  0  0  0
   -5.5920    2.0950   -3.4980 O   0  0  0  0  0  0  0  0  0  0  0  0
   -4.6890    2.4160   -3.3270 H   0  0  0  0  0  0  0  0  0  0  0  0
   -0.2090    8.5910   -5.3520 C   0  0  0  0  0  0  0  0  0  0  0  0
   -0.2110    8.5980   -3.9480 C   0  0  0  0  0  3  0  0  0  0  0  0
   -1.1110    9.3970   -3.2380 C   0  0  0  0  0  3  0  0  0  0  0  0
   -2.0260   10.1950   -3.9210 C   0  0  0  0  0  3  0  0  0  0  0  0
   -2.0430   10.1940   -5.3140 C   0  0  0  0  0  3  0  0  0  0  0  0
   -1.1420    9.3960   -6.0240 C   0  0  0  0  0  3  0  0  0  0  0  0
    4.6770   10.0850   -6.3260 C   0  0  0  0  0  3  0  0  0  0  0  0
    3.3330   10.1070   -6.1120 F   0  0  0  0  0  0  0  0  0  0  0  0
    5.2660   10.1880   -5.1030 F   0  0  0  0  0  0  0  0  0  0  0  0
  1 17  1  0  0  0  0
  1 13  1  0  0  0  0
  2  1  2  0  0  0  0
  3  2  1  0  0  0  0
  3 11  2  0  0  0  0
  4  3  1  0  0  0  0
  5  4  2  0  0  0  0
  5  6  1  0  0  0  0
  6 10  1  0  0  0  0
  7  6  2  0  0  0  0
  7  8  1  0  0  0  0
  8  9  2  0  0  0  0
  9 39  1  0  0  0  0
 10  9  1  0  0  0  0
 10 11  1  0  0  0  0
 11 12  1  0  0  0  0
 12 13  2  0  0  0  0
 13 33  1  0  0  0  0
 14 20  1  0  0  0  0
 14 15  1  0  0  0  0
 16 15  2  0  0  0  0
 17 16  1  0  0  0  0
 18 19  1  0  0  0  0
 18 17  2  0  0  0  0
 19 14  2  0  0  0  0
 20 24  1  6  0  0  0
 20 21  1  0  0  0  0
 20 23  1  0  0  0  0
 21 22  1  0  0  0  0
 22 31  1  1  0  0  0
 23 22  1  0  0  0  0
 25 24  1  0  0  0  0
 26 24  1  0  0  0  0
 27 24  1  0  0  0  0
 28 30  1  0  0  0  0
 28 22  1  0  0  0  0
 29 28  1  0  0  0  0
 29 30  1  0  0  0  0
 31 32  1  0  0  0  0
 33 34  1  0  0  0  0
 34 35  2  0  0  0  0
 36 35  1  0  0  0  0
 37 36  2  0  0  0  0
 38 33  2  0  0  0  0
 38 37  1  0  0  0  0
 39 40  1  0  0  0  0
 39 41  1  0  0  0  0
M  END
>  <minimizedAffinity>
-9.87426758

$$$$

 OpenBabel11232420193D

 41 47  0  0  1  0  0  0  0  0999 V2000
   -2.2210    4.7890   -6.0080 C   0  0  0  0  0  0  0  0  0  0  0  0
   -3.1630    4.9720   -5.0470 N   0  0  0  0  0  0  0  0  0  0  0  0
   -4.2670    4.1960   -5.0960 C   0  0  0  0  0  0  0  0  0  0  0  0
   -5.2540    4.4450   -4.0460 C   0  0  0  0  0  3  0  0  0  0  0  0
   -6.3900    3.7390   -4.0050 C   0  0  0  0  0  3  0  0  0  0  0  0
   -6.6450    2.7470   -4.9800 C   0  0  0  0  0  0  0  0  0  0  0  0
   -7.6790    1.9540   -5.1270 N   0  0  0  0  0  0  0  0  0  0  0  0
   -7.4580    1.1750   -6.2240 N   0  0  0  0  0  0  0  0  0  0  0  0
   -6.2860    1.4980   -6.7440 C   0  0  0  0  0  0  0  0  0  0  0  0
   -5.7110    2.5000   -5.9830 N   0  0  0  0  0  0  0  0  0  0  0  0
   -4.4880    3.2190   -6.0700 C   0  0  0  0  0  0  0  0  0  0  0  0
   -3.5030    3.0300   -7.0340 C   0  0  0  0  0  3  0  0  0  0  0  0
   -2.3350    3.8200   -7.0210 C   0  0  0  0  0  0  0  0  0  0  0  0
    1.1520    7.4970   -5.6380 C   0  0  0  0  0  0  0  0  0  0  0  0
    1.0990    6.4950   -6.6310 C   0  0  0  0  0  3  0  0  0  0  0  0
    0.0090    5.6240   -6.7530 C   0  0  0  0  0  3  0  0  0  0  0  0
   -1.0920    5.7250   -5.8960 C   0  0  0  0  0  0  0  0  0  0  0  0
   -1.0650    6.7170   -4.9100 C   0  0  0  0  0  3  0  0  0  0  0  0
    0.0330    7.5770   -4.7820 C   0  0  0  0  0  3  0  0  0  0  0  0
    2.4300    8.4280   -5.4590 C   0  0  1  0  0  0  0  0  0  0  0  0
    3.8280    7.7870   -5.6170 C   0  0  0  0  0  2  0  0  0  0  0  0
    4.2930    8.9720   -6.5250 C   0  0  1  0  0  0  0  0  0  0  0  0
    2.7990    9.4300   -6.5800 C   0  0  0  0  0  2  0  0  0  0  0  0
    2.2590    9.1000   -4.1480 N   0  0  0  0  0  4  0  0  0  0  0  0
    3.0120    9.7580   -3.9240 H   0  0  0  0  0  0  0  0  0  0  0  0
    2.2100    8.4160   -3.3820 H   0  0  0  0  0  0  0  0  0  0  0  0
    1.3730    9.6250   -4.1160 H   0  0  0  0  0  0  0  0  0  0  0  0
    5.3160    9.9530   -5.9330 C   0  0  0  0  0  3  0  0  0  0  0  0
    5.0230   11.1800   -5.1090 C   0  0  0  0  0  2  0  0  0  0  0  0
    5.7700   10.0310   -4.4980 C   0  0  0  0  0  2  0  0  0  0  0  0
    4.7670    8.5140   -7.8170 O   0  0  0  0  0  0  0  0  0  0  0  0
    4.1080    7.9020   -8.1890 H   0  0  0  0  0  0  0  0  0  0  0  0
   -1.2940    3.5890   -8.0360 C   0  0  0  0  0  0  0  0  0  0  0  0
   -1.4460    4.0770   -9.3440 C   0  0  0  0  0  3  0  0  0  0  0  0
   -0.4620    3.8510  -10.3100 C   0  0  0  0  0  3  0  0  0  0  0  0
    0.6840    3.1300   -9.9840 C   0  0  0  0  0  3  0  0  0  0  0  0
    0.8480    2.6330   -8.6940 C   0  0  0  0  0  3  0  0  0  0  0  0
   -0.1350    2.8590   -7.7270 C   0  0  0  0  0  3  0  0  0  0  0  0
   -5.7250    0.8660   -7.9520 C   0  0  0  0  0  3  0  0  0  0  0  0
   -5.6100    1.7580   -8.9740 F   0  0  0  0  0  0  0  0  0  0  0  0
   -4.4750    0.3770   -7.7230 F   0  0  0  0  0  0  0  0  0  0  0  0
  1 17  1  0  0  0  0
  1  2  1  0  0  0  0
  3  2  2  0  0  0  0
  3  4  1  0  0  0  0
  4  5  2  0  0  0  0
  6  5  1  0  0  0  0
  7  6  2  0  0  0  0
  8  7  1  0  0  0  0
  9  8  2  0  0  0  0
  9 10  1  0  0  0  0
 10  6  1  0  0  0  0
 11 10  1  0  0  0  0
 11  3  1  0  0  0  0
 12 13  1  0  0  0  0
 12 11  2  0  0  0  0
 13  1  2  0  0  0  0
 14 20  1  0  0  0  0
 14 19  1  0  0  0  0
 15 14  2  0  0  0  0
 16 15  1  0  0  0  0
 16 17  2  0  0  0  0
 17 18  1  0  0  0  0
 18 19  2  0  0  0  0
 20 24  1  1  0  0  0
 21 20  1  0  0  0  0
 22 31  1  6  0  0  0
 22 28  1  0  0  0  0
 22 21  1  0  0  0  0
 23 22  1  0  0  0  0
 23 20  1  0  0  0  0
 24 27  1  0  0  0  0
 24 25  1  0  0  0  0
 24 26  1  0  0  0  0
 28 29  1  0  0  0  0
 28 30  1  0  0  0  0
 29 30  1  0  0  0  0
 32 31  1  0  0  0  0
 33 38  1  0  0  0  0
 33 13  1  0  0  0  0
 34 33  2  0  0  0  0
 35 36  2  0  0  0  0
 35 34  1  0  0  0  0
 36 37  1  0  0  0  0
 37 38  2  0  0  0  0
 39 41  1  0  0  0  0
 39  9  1  0  0  0  0
 40 39  1  0  0  0  0
M  END
>  <minimizedAffinity>
-9.58047295

$$$$
