
 OpenBabel11232420193D

 41 47  0  0  1  0  0  0  0  0999 V2000
   -2.2210    4.7890   -6.0080 C   0  0  0  0  0  0  0  0  0  0  0  0
   -3.1630    4.9720   -5.0470 N   0  0  0  0  0  0  0  0  0  0  0  0
   -4.2670    4.1960   -5.0960 C   0  0  0  0  0  0  0  0  0  0  0  0
   -5.2540    4.4450   -4.0460 C   0  0  0  0  0  3  0  0  0  0  0  0
   -6.3900    3.7390   -4.0050 C   0  0  0  0  0  3  0  0  0  0  0  0
   -6.6450    2.7470   -4.9800 C   0  0  0  0  0  0  0  0  0  0  0  0
   -7.6790    1.9540   -5.1270 N   0  0  0  0  0  0  0  0  0  0  0  0
   -7.4580    1.1750   -6.2240 N   0  0  0  0  0  0  0  0  0  0  0  0
   -6.2860    1.4980   -6.7440 C   0  0  0  0  0  0  0  0  0  0  0  0
   -5.7110    2.5000   -5.9830 N   0  0  0  0  0  0  0  0  0  0  0  0
   -4.4880    3.2190   -6.0700 C   0  0  0  0  0  0  0  0  0  0  0  0
   -3.5030    3.0300   -7.0340 C   0  0  0  0  0  3  0  0  0  0  0  0
   -2.3350    3.8200   -7.0210 C   0  0  0  0  0  0  0  0  0  0  0  0
    1.1520    7.4970   -5.6380 C   0  0  0  0  0  0  0  0  0  0  0  0
    1.0990    6.4950   -6.6310 C   0  0  0  0  0  3  0  0  0  0  0  0
    0.0090    5.6240   -6.7530 C   0  0  0  0  0  3  0  0  0  0  0  0
   -1.0920    5.7250   -5.8960 C   0  0  0  0  0  0  0  0  0  0  0  0
   -1.0650    6.7170   -4.9100 C   0  0  0  0  0  3  0  0  0  0  0  0
    0.0330    7.5770   -4.7820 C   0  0  0  0  0  3  0  0  0  0  0  0
    2.4300    8.4280   -5.4590 C   0  0  1  0  0  0  0  0  0  0  0  0
    3.8280    7.7870   -5.6170 C   0  0  0  0  0  2  0  0  0  0  0  0
    4.2930    8.9720   -6.5250 C   0  0  1  0  0  0  0  0  0  0  0  0
    2.7990    9.4300   -6.5800 C   0  0  0  0  0  2  0  0  0  0  0  0
    2.2590    9.1000   -4.1480 N   0  0  0  0  0  4  0  0  0  0  0  0
    3.0120    9.7580   -3.9240 H   0  0  0  0  0  0  0  0  0  0  0  0
    2.2100    8.4160   -3.3820 H   0  0  0  0  0  0  0  0  0  0  0  0
    1.3730    9.6250   -4.1160 H   0  0  0  0  0  0  0  0  0  0  0  0
    5.3160    9.9530   -5.9330 C   0  0  0  0  0  3  0  0  0  0  0  0
    5.0230   11.1800   -5.1090 C   0  0  0  0  0  2  0  0  0  0  0  0
    5.7700   10.0310   -4.4980 C   0  0  0  0  0  2  0  0  0  0  0  0
    4.7670    8.5140   -7.8170 O   0  0  0  0  0  0  0  0  0  0  0  0
    4.1080    7.9020   -8.1890 H   0  0  0  0  0  0  0  0  0  0  0  0
   -1.2940    3.5890   -8.0360 C   0  0  0  0  0  0  0  0  0  0  0  0
   -1.4460    4.0770   -9.3440 C   0  0  0  0  0  3  0  0  0  0  0  0
   -0.4620    3.8510  -10.3100 C   0  0  0  0  0  3  0  0  0  0  0  0
    0.6840    3.1300   -9.9840 C   0  0  0  0  0  3  0  0  0  0  0  0
    0.8480    2.6330   -8.6940 C   0  0  0  0  0  3  0  0  0  0  0  0
   -0.1350    2.8590   -7.7270 C   0  0  0  0  0  3  0  0  0  0  0  0
   -5.7250    0.8660   -7.9520 C   0  0  0  0  0  3  0  0  0  0  0  0
   -5.6100    1.7580   -8.9740 F   0  0  0  0  0  0  0  0  0  0  0  0
   -4.4750    0.3770   -7.7230 F   0  0  0  0  0  0  0  0  0  0  0  0
  1 17  1  0  0  0  0
  1  2  1  0  0  0  0
  3  2  2  0  0  0  0
  3  4  1  0  0  0  0
  4  5  2  0  0  0  0
  6  5  1  0  0  0  0
  7  6  2  0  0  0  0
  8  7  1  0  0  0  0
  9  8  2  0  0  0  0
  9 10  1  0  0  0  0
 10  6  1  0  0  0  0
 11 10  1  0  0  0  0
 11  3  1  0  0  0  0
 12 13  1  0  0  0  0
 12 11  2  0  0  0  0
 13  1  2  0  0  0  0
 14 20  1  0  0  0  0
 14 19  1  0  0  0  0
 15 14  2  0  0  0  0
 16 15  1  0  0  0  0
 16 17  2  0  0  0  0
 17 18  1  0  0  0  0
 18 19  2  0  0  0  0
 20 24  1  1  0  0  0
 21 20  1  0  0  0  0
 22 31  1  6  0  0  0
 22 28  1  0  0  0  0
 22 21  1  0  0  0  0
 23 22  1  0  0  0  0
 23 20  1  0  0  0  0
 24 27  1  0  0  0  0
 24 25  1  0  0  0  0
 24 26  1  0  0  0  0
 28 29  1  0  0  0  0
 28 30  1  0  0  0  0
 29 30  1  0  0  0  0
 32 31  1  0  0  0  0
 33 38  1  0  0  0  0
 33 13  1  0  0  0  0
 34 33  2  0  0  0  0
 35 36  2  0  0  0  0
 35 34  1  0  0  0  0
 36 37  1  0  0  0  0
 37 38  2  0  0  0  0
 39 41  1  0  0  0  0
 39  9  1  0  0  0  0
 40 39  1  0  0  0  0
M  END
>  <minimizedAffinity>
-9.58047295

$$$$
