
 OpenBabel11232420193D

 41 47  0  0  1  0  0  0  0  0999 V2000
    0.3930    6.4770   -6.6090 C   0  0  0  0  0  0  0  0  0  0  0  0
    1.2770    5.6780   -7.2610 N   0  0  0  0  0  0  0  0  0  0  0  0
    2.5310    6.1450   -7.4410 C   0  0  0  0  0  0  0  0  0  0  0  0
    3.4350    5.2500   -8.1610 C   0  0  0  0  0  3  0  0  0  0  0  0
    4.6990    5.6170   -8.4030 C   0  0  0  0  0  3  0  0  0  0  0  0
    5.1690    6.8770   -7.9650 C   0  0  0  0  0  0  0  0  0  0  0  0
    6.3500    7.4300   -8.0970 N   0  0  0  0  0  0  0  0  0  0  0  0
    6.3060    8.6600   -7.5100 N   0  0  0  0  0  0  0  0  0  0  0  0
    5.0930    8.8530   -7.0210 C   0  0  0  0  0  0  0  0  0  0  0  0
    4.3160    7.7370   -7.2770 N   0  0  0  0  0  0  0  0  0  0  0  0
    2.9660    7.3940   -6.9920 C   0  0  0  0  0  0  0  0  0  0  0  0
    2.0540    8.1910   -6.3070 C   0  0  0  0  0  3  0  0  0  0  0  0
    0.7340    7.7420   -6.0980 C   0  0  0  0  0  0  0  0  0  0  0  0
   -3.5590    4.7060   -6.3080 C   0  0  0  0  0  0  0  0  0  0  0  0
   -3.0160    5.5110   -5.2830 C   0  0  0  0  0  3  0  0  0  0  0  0
   -1.7430    6.0860   -5.3820 C   0  0  0  0  0  3  0  0  0  0  0  0
   -0.9560    5.8980   -6.5220 C   0  0  0  0  0  0  0  0  0  0  0  0
   -1.4770    5.1110   -7.5550 C   0  0  0  0  0  3  0  0  0  0  0  0
   -2.7460    4.5270   -7.4470 C   0  0  0  0  0  3  0  0  0  0  0  0
   -4.9730    3.9950   -6.1510 C   0  0  1  0  0  0  0  0  0  0  0  0
   -4.9990    2.4690   -5.8970 C   0  0  0  0  0  2  0  0  0  0  0  0
   -6.0500    2.6540   -4.7550 C   0  0  1  0  0  0  0  0  0  0  0  0
   -5.7780    4.1920   -4.8430 C   0  0  0  0  0  2  0  0  0  0  0  0
   -5.7560    4.3840   -7.3490 N   0  0  0  0  0  4  0  0  0  0  0  0
   -6.7100    4.0080   -7.3540 H   0  0  0  0  0  0  0  0  0  0  0  0
   -5.2960    4.0690   -8.2130 H   0  0  0  0  0  0  0  0  0  0  0  0
   -5.8300    5.4080   -7.4240 H   0  0  0  0  0  0  0  0  0  0  0  0
   -7.4810    2.1680   -5.0290 C   0  0  0  0  0  3  0  0  0  0  0  0
   -7.9460    1.3270   -6.1890 C   0  0  0  0  0  2  0  0  0  0  0  0
   -8.0270    0.7840   -4.7920 C   0  0  0  0  0  2  0  0  0  0  0  0
   -5.5920    2.0950   -3.4980 O   0  0  0  0  0  0  0  0  0  0  0  0
   -4.6890    2.4160   -3.3270 H   0  0  0  0  0  0  0  0  0  0  0  0
   -0.2090    8.5910   -5.3520 C   0  0  0  0  0  0  0  0  0  0  0  0
   -0.2110    8.5980   -3.9480 C   0  0  0  0  0  3  0  0  0  0  0  0
   -1.1110    9.3970   -3.2380 C   0  0  0  0  0  3  0  0  0  0  0  0
   -2.0260   10.1950   -3.9210 C   0  0  0  0  0  3  0  0  0  0  0  0
   -2.0430   10.1940   -5.3140 C   0  0  0  0  0  3  0  0  0  0  0  0
   -1.1420    9.3960   -6.0240 C   0  0  0  0  0  3  0  0  0  0  0  0
    4.6770   10.0850   -6.3260 C   0  0  0  0  0  3  0  0  0  0  0  0
    3.3330   10.1070   -6.1120 F   0  0  0  0  0  0  0  0  0  0  0  0
    5.2660   10.1880   -5.1030 F   0  0  0  0  0  0  0  0  0  0  0  0
  1 17  1  0  0  0  0
  1 13  1  0  0  0  0
  2  1  2  0  0  0  0
  3  2  1  0  0  0  0
  3 11  2  0  0  0  0
  4  3  1  0  0  0  0
  5  4  2  0  0  0  0
  5  6  1  0  0  0  0
  6 10  1  0  0  0  0
  7  6  2  0  0  0  0
  7  8  1  0  0  0  0
  8  9  2  0  0  0  0
  9 39  1  0  0  0  0
 10  9  1  0  0  0  0
 10 11  1  0  0  0  0
 11 12  1  0  0  0  0
 12 13  2  0  0  0  0
 13 33  1  0  0  0  0
 14 20  1  0  0  0  0
 14 15  1  0  0  0  0
 16 15  2  0  0  0  0
 17 16  1  0  0  0  0
 18 19  1  0  0  0  0
 18 17  2  0  0  0  0
 19 14  2  0  0  0  0
 20 24  1  6  0  0  0
 20 21  1  0  0  0  0
 20 23  1  0  0  0  0
 21 22  1  0  0  0  0
 22 31  1  1  0  0  0
 23 22  1  0  0  0  0
 25 24  1  0  0  0  0
 26 24  1  0  0  0  0
 27 24  1  0  0  0  0
 28 30  1  0  0  0  0
 28 22  1  0  0  0  0
 29 28  1  0  0  0  0
 29 30  1  0  0  0  0
 31 32  1  0  0  0  0
 33 34  1  0  0  0  0
 34 35  2  0  0  0  0
 36 35  1  0  0  0  0
 37 36  2  0  0  0  0
 38 33  2  0  0  0  0
 38 37  1  0  0  0  0
 39 40  1  0  0  0  0
 39 41  1  0  0  0  0
M  END
>  <minimizedAffinity>
-9.87426758

$$$$
