
 OpenBabel10152419593D

 32 35  0  0  0  0  0  0  0  0999 V2000
   -1.3950  -11.8110  -21.2020 C   0  0  0  0  0  0  0  0  0  0  0  0
   -0.5430  -12.6080  -21.9800 C   0  0  0  0  0  3  0  0  0  0  0  0
    0.0660  -12.0610  -23.0970 C   0  0  0  0  0  3  0  0  0  0  0  0
   -0.1760  -10.7270  -23.4140 C   0  0  0  0  0  3  0  0  0  0  0  0
   -1.0290   -9.9150  -22.6170 C   0  0  0  0  0  0  0  0  0  0  0  0
   -1.2910   -8.5520  -22.8700 C   0  0  0  0  0  0  0  0  0  0  0  0
   -0.6640   -7.9030  -23.9270 N   0  0  0  0  0  0  0  0  0  0  0  0
   -2.1540   -7.8460  -22.1220 N   0  0  0  0  0  0  0  0  0  0  0  0
   -2.7090   -8.4730  -21.0850 C   0  0  0  0  0  3  0  0  0  0  0  0
   -2.4860   -9.7370  -20.7200 N   0  0  0  0  0  0  0  0  0  0  0  0
   -1.6660  -10.4690  -21.4930 C   0  0  0  0  0  0  0  0  0  0  0  0
    0.2970   -8.1650  -24.1020 H   0  0  0  0  0  0  0  0  0  0  0  0
   -3.3200  -12.8470  -20.2140 N   0  0  0  0  0  0  0  0  0  0  0  0
   -2.0230  -12.4520  -20.0350 C   0  0  0  0  0  0  0  0  0  0  0  0
   -1.4450  -12.5530  -18.9640 O   0  0  0  0  0  0  0  0  0  0  0  0
   -3.7880  -13.2880  -19.4330 H   0  0  0  0  0  0  0  0  0  0  0  0
   -3.8040  -12.7790  -21.0970 H   0  0  0  0  0  0  0  0  0  0  0  0
   -1.0110   -6.5360  -24.2700 C   0  0  0  0  0  2  0  0  0  0  0  0
   -0.2030   -6.1270  -25.4800 C   0  0  0  0  0  0  0  0  0  0  0  0
   -0.4730   -4.9440  -26.1740 C   0  0  0  0  0  3  0  0  0  0  0  0
    0.2680   -4.6220  -27.3090 C   0  0  0  0  0  3  0  0  0  0  0  0
    1.2750   -5.4800  -27.7650 C   0  0  0  0  0  3  0  0  0  0  0  0
    1.5580   -6.6760  -27.1020 C   0  0  0  0  0  0  0  0  0  0  0  0
    0.8100   -6.9790  -25.9540 C   0  0  0  0  0  3  0  0  0  0  0  0
    2.5650   -7.5680  -27.4870 N   0  0  0  0  0  0  0  0  0  0  0  0
    3.0010   -8.8160  -27.0580 C   0  0  0  0  0  0  0  0  0  0  0  0
    2.2370   -9.6810  -26.2840 C   0  0  0  0  0  3  0  0  0  0  0  0
    2.7590  -10.9230  -25.9190 C   0  0  0  0  0  3  0  0  0  0  0  0
    4.0310  -11.2750  -26.3430 C   0  0  0  0  0  3  0  0  0  0  0  0
    4.7220  -10.3710  -27.1250 C   0  0  0  0  0  3  0  0  0  0  0  0
    4.2330   -9.1650  -27.4910 N   0  0  0  0  0  0  0  0  0  0  0  0
    3.2390   -7.1990  -28.1500 H   0  0  0  0  0  0  0  0  0  0  0  0
  1 14  1  0  0  0  0
  2  1  2  0  0  0  0
  3  2  1  0  0  0  0
  4  3  2  0  0  0  0
  4  5  1  0  0  0  0
  5 11  1  0  0  0  0
  6  5  2  0  0  0  0
  6  8  1  0  0  0  0
  7  6  1  0  0  0  0
  8  9  2  0  0  0  0
  9 10  1  0  0  0  0
 11  1  1  0  0  0  0
 11 10  2  0  0  0  0
 12  7  1  0  0  0  0
 13 14  1  0  0  0  0
 13 16  1  0  0  0  0
 14 15  2  0  0  0  0
 17 13  1  0  0  0  0
 18  7  1  0  0  0  0
 19 18  1  0  0  0  0
 20 19  2  0  0  0  0
 21 20  1  0  0  0  0
 22 21  2  0  0  0  0
 22 23  1  0  0  0  0
 23 24  2  0  0  0  0
 24 19  1  0  0  0  0
 25 23  1  0  0  0  0
 25 26  1  0  0  0  0
 26 27  1  0  0  0  0
 27 28  2  0  0  0  0
 29 28  1  0  0  0  0
 30 29  2  0  0  0  0
 31 30  1  0  0  0  0
 31 26  2  0  0  0  0
 32 25  1  0  0  0  0
M  END
>  <minimizedAffinity>
-10.6893482

$$$$
