
 OpenBabel10152419593D

 32 35  0  0  0  0  0  0  0  0999 V2000
   -2.5300   -8.3950  -22.0920 C   0  0  0  0  0  0  0  0  0  0  0  0
   -2.8830   -7.5070  -23.1180 C   0  0  0  0  0  3  0  0  0  0  0  0
   -2.4050   -7.7260  -24.3990 C   0  0  0  0  0  3  0  0  0  0  0  0
   -1.5940   -8.8320  -24.6380 C   0  0  0  0  0  3  0  0  0  0  0  0
   -1.2480   -9.7410  -23.5990 C   0  0  0  0  0  0  0  0  0  0  0  0
   -0.4550  -10.8930  -23.7840 C   0  0  0  0  0  0  0  0  0  0  0  0
    0.0040  -11.2300  -25.0520 N   0  0  0  0  0  0  0  0  0  0  0  0
   -0.1060  -11.6850  -22.7580 N   0  0  0  0  0  0  0  0  0  0  0  0
   -0.5960  -11.3720  -21.5580 C   0  0  0  0  0  3  0  0  0  0  0  0
   -1.4020  -10.3440  -21.2830 N   0  0  0  0  0  0  0  0  0  0  0  0
   -1.7130   -9.5130  -22.2930 C   0  0  0  0  0  0  0  0  0  0  0  0
   -0.6340  -11.0580  -25.8160 H   0  0  0  0  0  0  0  0  0  0  0  0
   -4.3740   -7.7340  -20.7050 N   0  0  0  0  0  0  0  0  0  0  0  0
   -3.0580   -8.1020  -20.7480 C   0  0  0  0  0  0  0  0  0  0  0  0
   -2.3450   -8.1160  -19.7560 O   0  0  0  0  0  0  0  0  0  0  0  0
   -4.7730   -7.5210  -19.8010 H   0  0  0  0  0  0  0  0  0  0  0  0
   -4.9760   -7.7290  -21.5170 H   0  0  0  0  0  0  0  0  0  0  0  0
    0.9160  -12.3440  -25.2380 C   0  0  0  0  0  2  0  0  0  0  0  0
    2.2120  -11.8120  -25.8070 C   0  0  0  0  0  0  0  0  0  0  0  0
    3.3880  -12.5660  -25.7770 C   0  0  0  0  0  3  0  0  0  0  0  0
    4.5710  -12.0240  -26.2750 C   0  0  0  0  0  3  0  0  0  0  0  0
    4.5920  -10.7250  -26.7960 C   0  0  0  0  0  3  0  0  0  0  0  0
    3.4360   -9.9420  -26.8260 C   0  0  0  0  0  0  0  0  0  0  0  0
    2.2510  -10.5070  -26.3310 C   0  0  0  0  0  3  0  0  0  0  0  0
    3.3790   -8.6470  -27.3530 N   0  0  0  0  0  0  0  0  0  0  0  0
    2.4760   -7.5910  -27.2930 C   0  0  0  0  0  0  0  0  0  0  0  0
    1.4890   -7.4690  -26.3220 C   0  0  0  0  0  3  0  0  0  0  0  0
    0.6420   -6.3600  -26.3370 C   0  0  0  0  0  3  0  0  0  0  0  0
    0.8060   -5.3930  -27.3180 C   0  0  0  0  0  3  0  0  0  0  0  0
    1.8210   -5.5760  -28.2370 C   0  0  0  0  0  3  0  0  0  0  0  0
    2.6540   -6.6410  -28.2380 N   0  0  0  0  0  0  0  0  0  0  0  0
    4.0810   -8.4340  -28.0530 H   0  0  0  0  0  0  0  0  0  0  0  0
  1 14  1  0  0  0  0
  2  1  2  0  0  0  0
  3  2  1  0  0  0  0
  4  3  2  0  0  0  0
  4  5  1  0  0  0  0
  5 11  1  0  0  0  0
  6  5  2  0  0  0  0
  6  8  1  0  0  0  0
  7  6  1  0  0  0  0
  8  9  2  0  0  0  0
  9 10  1  0  0  0  0
 11  1  1  0  0  0  0
 11 10  2  0  0  0  0
 12  7  1  0  0  0  0
 13 16  1  0  0  0  0
 14 13  1  0  0  0  0
 14 15  2  0  0  0  0
 17 13  1  0  0  0  0
 18  7  1  0  0  0  0
 19 20  1  0  0  0  0
 19 18  1  0  0  0  0
 21 20  2  0  0  0  0
 22 21  1  0  0  0  0
 23 22  2  0  0  0  0
 23 24  1  0  0  0  0
 24 19  2  0  0  0  0
 25 26  1  0  0  0  0
 25 23  1  0  0  0  0
 26 27  1  0  0  0  0
 28 27  2  0  0  0  0
 29 28  1  0  0  0  0
 30 29  2  0  0  0  0
 31 30  1  0  0  0  0
 31 26  2  0  0  0  0
 32 25  1  0  0  0  0
M  END
>  <minimizedAffinity>
-8.47217083

$$$$
