
 OpenBabel10152419593D

 32 35  0  0  0  0  0  0  0  0999 V2000
   -0.0320   -4.1110  -26.9550 C   0  0  0  0  0  0  0  0  0  0  0  0
    0.6030   -4.1310  -28.2040 C   0  0  0  0  0  3  0  0  0  0  0  0
    1.4520   -5.1790  -28.5180 C   0  0  0  0  0  3  0  0  0  0  0  0
    1.6430   -6.1960  -27.5860 C   0  0  0  0  0  3  0  0  0  0  0  0
    0.9870   -6.1840  -26.3240 C   0  0  0  0  0  0  0  0  0  0  0  0
    1.1180   -7.1970  -25.3510 C   0  0  0  0  0  0  0  0  0  0  0  0
    1.8900   -8.3220  -25.6130 N   0  0  0  0  0  0  0  0  0  0  0  0
    0.5250   -7.1060  -24.1500 N   0  0  0  0  0  0  0  0  0  0  0  0
   -0.2500   -6.0420  -23.9360 C   0  0  0  0  0  3  0  0  0  0  0  0
   -0.4910   -5.0590  -24.8060 N   0  0  0  0  0  0  0  0  0  0  0  0
    0.1410   -5.1120  -25.9910 C   0  0  0  0  0  0  0  0  0  0  0  0
    1.8510   -8.6780  -26.5580 H   0  0  0  0  0  0  0  0  0  0  0  0
   -0.3220   -1.7350  -26.7870 N   0  0  0  0  0  0  0  0  0  0  0  0
   -0.9110   -2.9640  -26.6740 C   0  0  0  0  0  0  0  0  0  0  0  0
   -2.0640   -3.1100  -26.2960 O   0  0  0  0  0  0  0  0  0  0  0  0
   -0.8920   -0.9220  -26.5970 H   0  0  0  0  0  0  0  0  0  0  0  0
    0.6270   -1.6020  -27.1080 H   0  0  0  0  0  0  0  0  0  0  0  0
    2.1280   -9.3140  -24.5800 C   0  0  0  0  0  2  0  0  0  0  0  0
    1.1300  -10.4360  -24.7560 C   0  0  0  0  0  0  0  0  0  0  0  0
    1.1210  -11.2340  -25.9020 C   0  0  0  0  0  3  0  0  0  0  0  0
    0.1590  -12.2320  -26.0450 C   0  0  0  0  0  3  0  0  0  0  0  0
   -0.8050  -12.4340  -25.0510 C   0  0  0  0  0  3  0  0  0  0  0  0
   -0.8310  -11.6420  -23.9000 C   0  0  0  0  0  0  0  0  0  0  0  0
    0.1520  -10.6500  -23.7680 C   0  0  0  0  0  3  0  0  0  0  0  0
   -1.7500  -11.8030  -22.8570 N   0  0  0  0  0  0  0  0  0  0  0  0
   -1.6790  -12.1910  -21.5250 C   0  0  0  0  0  0  0  0  0  0  0  0
   -0.5080  -12.1840  -20.7760 C   0  0  0  0  0  3  0  0  0  0  0  0
   -0.5440  -12.5760  -19.4370 C   0  0  0  0  0  3  0  0  0  0  0  0
   -1.7520  -12.9580  -18.8740 C   0  0  0  0  0  3  0  0  0  0  0  0
   -2.8760  -12.9210  -19.6760 C   0  0  0  0  0  3  0  0  0  0  0  0
   -2.8620  -12.5430  -20.9740 N   0  0  0  0  0  0  0  0  0  0  0  0
   -2.7260  -11.7580  -23.1300 H   0  0  0  0  0  0  0  0  0  0  0  0
  1 14  1  0  0  0  0
  1 11  1  0  0  0  0
  2  1  2  0  0  0  0
  3  2  1  0  0  0  0
  3  4  2  0  0  0  0
  4  5  1  0  0  0  0
  5 11  2  0  0  0  0
  5  6  1  0  0  0  0
  6  8  2  0  0  0  0
  7  6  1  0  0  0  0
  7 18  1  0  0  0  0
  8  9  1  0  0  0  0
 10  9  2  0  0  0  0
 11 10  1  0  0  0  0
 12  7  1  0  0  0  0
 13 14  1  0  0  0  0
 13 16  1  0  0  0  0
 14 15  2  0  0  0  0
 17 13  1  0  0  0  0
 19 18  1  0  0  0  0
 19 24  1  0  0  0  0
 20 19  2  0  0  0  0
 21 20  1  0  0  0  0
 21 22  2  0  0  0  0
 22 23  1  0  0  0  0
 23 24  2  0  0  0  0
 23 25  1  0  0  0  0
 25 26  1  0  0  0  0
 26 31  2  0  0  0  0
 26 27  1  0  0  0  0
 27 28  2  0  0  0  0
 28 29  1  0  0  0  0
 30 29  2  0  0  0  0
 31 30  1  0  0  0  0
 32 25  1  0  0  0  0
M  END
>  <minimizedAffinity>
-8.36044693

$$$$
