
 OpenBabel10152419593D

 32 35  0  0  0  0  0  0  0  0999 V2000
   -1.2070  -10.7670  -22.2460 C   0  0  0  0  0  0  0  0  0  0  0  0
   -1.8160   -9.5270  -22.4900 C   0  0  0  0  0  3  0  0  0  0  0  0
   -1.2870   -8.6900  -23.4570 C   0  0  0  0  0  3  0  0  0  0  0  0
   -0.1680   -9.1060  -24.1730 C   0  0  0  0  0  3  0  0  0  0  0  0
    0.4410  -10.3700  -23.9350 C   0  0  0  0  0  0  0  0  0  0  0  0
    1.5580  -10.8590  -24.6450 C   0  0  0  0  0  0  0  0  0  0  0  0
    2.1070  -10.1160  -25.6840 N   0  0  0  0  0  0  0  0  0  0  0  0
    2.1330  -12.0330  -24.3400 N   0  0  0  0  0  0  0  0  0  0  0  0
    1.5630  -12.7520  -23.3730 C   0  0  0  0  0  3  0  0  0  0  0  0
    0.4730  -12.4140  -22.6810 N   0  0  0  0  0  0  0  0  0  0  0  0
   -0.0780  -11.2160  -22.9410 C   0  0  0  0  0  0  0  0  0  0  0  0
    1.4510   -9.6150  -26.2670 H   0  0  0  0  0  0  0  0  0  0  0  0
   -2.1580  -12.8700  -21.5880 N   0  0  0  0  0  0  0  0  0  0  0  0
   -1.8070  -11.6070  -21.1960 C   0  0  0  0  0  0  0  0  0  0  0  0
   -2.0400  -11.1770  -20.0770 O   0  0  0  0  0  0  0  0  0  0  0  0
   -2.5780  -13.4770  -20.8970 H   0  0  0  0  0  0  0  0  0  0  0  0
   -1.9610  -13.2400  -22.5070 H   0  0  0  0  0  0  0  0  0  0  0  0
    3.3240  -10.5510  -26.3450 C   0  0  0  0  0  2  0  0  0  0  0  0
    3.6160   -9.6000  -27.4830 C   0  0  0  0  0  0  0  0  0  0  0  0
    4.4430   -9.9660  -28.5480 C   0  0  0  0  0  3  0  0  0  0  0  0
    4.7210   -9.0460  -29.5570 C   0  0  0  0  0  3  0  0  0  0  0  0
    4.1850   -7.7550  -29.5070 C   0  0  0  0  0  3  0  0  0  0  0  0
    3.3670   -7.3550  -28.4480 C   0  0  0  0  0  0  0  0  0  0  0  0
    3.0880   -8.2970  -27.4460 C   0  0  0  0  0  3  0  0  0  0  0  0
    2.7790   -6.0890  -28.3450 N   0  0  0  0  0  0  0  0  0  0  0  0
    1.6180   -5.5790  -27.7750 C   0  0  0  0  0  0  0  0  0  0  0  0
    0.8800   -6.2350  -26.7970 C   0  0  0  0  0  3  0  0  0  0  0  0
   -0.2630   -5.6300  -26.2750 C   0  0  0  0  0  3  0  0  0  0  0  0
   -0.6390   -4.3770  -26.7360 C   0  0  0  0  0  3  0  0  0  0  0  0
    0.1550   -3.7800  -27.6950 C   0  0  0  0  0  3  0  0  0  0  0  0
    1.2670   -4.3490  -28.2120 N   0  0  0  0  0  0  0  0  0  0  0  0
    3.2040   -5.3670  -28.9170 H   0  0  0  0  0  0  0  0  0  0  0  0
  1 14  1  0  0  0  0
  2  1  1  0  0  0  0
  3  2  2  0  0  0  0
  4  5  2  0  0  0  0
  4  3  1  0  0  0  0
  5 11  1  0  0  0  0
  6  8  2  0  0  0  0
  6  5  1  0  0  0  0
  7  6  1  0  0  0  0
  8  9  1  0  0  0  0
  9 10  2  0  0  0  0
 11 10  1  0  0  0  0
 11  1  2  0  0  0  0
 12  7  1  0  0  0  0
 13 14  1  0  0  0  0
 13 16  1  0  0  0  0
 14 15  2  0  0  0  0
 17 13  1  0  0  0  0
 18  7  1  0  0  0  0
 19 24  1  0  0  0  0
 19 18  1  0  0  0  0
 20 19  2  0  0  0  0
 21 22  2  0  0  0  0
 21 20  1  0  0  0  0
 22 23  1  0  0  0  0
 23 25  1  0  0  0  0
 23 24  2  0  0  0  0
 25 26  1  0  0  0  0
 26 27  1  0  0  0  0
 27 28  2  0  0  0  0
 29 28  1  0  0  0  0
 30 29  2  0  0  0  0
 31 26  2  0  0  0  0
 31 30  1  0  0  0  0
 32 25  1  0  0  0  0
M  END
>  <minimizedAffinity>
-9.38739586

$$$$
