
 OpenBabel10152419593D

 32 35  0  0  0  0  0  0  0  0999 V2000
   -2.0310   -9.3340  -21.8660 C   0  0  0  0  0  0  0  0  0  0  0  0
   -1.8030  -10.1510  -20.7500 C   0  0  0  0  0  3  0  0  0  0  0  0
   -1.0580  -11.3100  -20.8970 C   0  0  0  0  0  3  0  0  0  0  0  0
   -0.5450  -11.6290  -22.1510 C   0  0  0  0  0  3  0  0  0  0  0  0
   -0.7650  -10.7920  -23.2810 C   0  0  0  0  0  0  0  0  0  0  0  0
   -0.2490  -11.0460  -24.5690 C   0  0  0  0  0  0  0  0  0  0  0  0
    0.5700  -12.1470  -24.7900 N   0  0  0  0  0  0  0  0  0  0  0  0
   -0.5380  -10.2580  -25.6170 N   0  0  0  0  0  0  0  0  0  0  0  0
   -1.2860   -9.1800  -25.3740 C   0  0  0  0  0  3  0  0  0  0  0  0
   -1.7730   -8.8140  -24.1870 N   0  0  0  0  0  0  0  0  0  0  0  0
   -1.5370   -9.6260  -23.1430 C   0  0  0  0  0  0  0  0  0  0  0  0
    1.2170  -12.3760  -24.0480 H   0  0  0  0  0  0  0  0  0  0  0  0
   -2.2120   -6.9420  -21.9350 N   0  0  0  0  0  0  0  0  0  0  0  0
   -2.8400   -8.1230  -21.6500 C   0  0  0  0  0  0  0  0  0  0  0  0
   -3.9660   -8.1740  -21.1790 O   0  0  0  0  0  0  0  0  0  0  0  0
   -2.7330   -6.0870  -21.7950 H   0  0  0  0  0  0  0  0  0  0  0  0
   -1.2850   -6.8890  -22.3340 H   0  0  0  0  0  0  0  0  0  0  0  0
    1.0120  -12.4860  -26.1300 C   0  0  0  0  0  2  0  0  0  0  0  0
    2.3100  -11.7610  -26.4030 C   0  0  0  0  0  0  0  0  0  0  0  0
    3.5480  -12.3570  -26.1480 C   0  0  0  0  0  3  0  0  0  0  0  0
    4.7220  -11.6410  -26.3750 C   0  0  0  0  0  3  0  0  0  0  0  0
    4.6690  -10.3250  -26.8480 C   0  0  0  0  0  3  0  0  0  0  0  0
    3.4470   -9.6970  -27.0970 C   0  0  0  0  0  0  0  0  0  0  0  0
    2.2750  -10.4360  -26.8740 C   0  0  0  0  0  3  0  0  0  0  0  0
    3.3200   -8.3940  -27.5910 N   0  0  0  0  0  0  0  0  0  0  0  0
    2.3960   -7.3650  -27.4490 C   0  0  0  0  0  0  0  0  0  0  0  0
    1.4720   -7.2900  -26.4130 C   0  0  0  0  0  3  0  0  0  0  0  0
    0.5970   -6.2050  -26.3490 C   0  0  0  0  0  3  0  0  0  0  0  0
    0.6700   -5.2150  -27.3170 C   0  0  0  0  0  3  0  0  0  0  0  0
    1.6260   -5.3510  -28.3040 C   0  0  0  0  0  3  0  0  0  0  0  0
    2.4840   -6.3930  -28.3830 N   0  0  0  0  0  0  0  0  0  0  0  0
    3.9680   -8.1480  -28.3320 H   0  0  0  0  0  0  0  0  0  0  0  0
  1 14  1  0  0  0  0
  1  2  1  0  0  0  0
  3  2  2  0  0  0  0
  4  3  1  0  0  0  0
  5 11  1  0  0  0  0
  5  4  2  0  0  0  0
  6  5  1  0  0  0  0
  7  6  1  0  0  0  0
  7 12  1  0  0  0  0
  8  9  1  0  0  0  0
  8  6  2  0  0  0  0
  9 10  2  0  0  0  0
 10 11  1  0  0  0  0
 11  1  2  0  0  0  0
 13 16  1  0  0  0  0
 13 14  1  0  0  0  0
 14 15  2  0  0  0  0
 17 13  1  0  0  0  0
 18  7  1  0  0  0  0
 19 20  1  0  0  0  0
 19 18  1  0  0  0  0
 21 20  2  0  0  0  0
 22 21  1  0  0  0  0
 23 24  1  0  0  0  0
 23 22  2  0  0  0  0
 24 19  2  0  0  0  0
 25 26  1  0  0  0  0
 25 23  1  0  0  0  0
 26 27  1  0  0  0  0
 27 28  2  0  0  0  0
 29 28  1  0  0  0  0
 30 29  2  0  0  0  0
 31 30  1  0  0  0  0
 31 26  2  0  0  0  0
 32 25  1  0  0  0  0
M  END
>  <minimizedAffinity>
-8.71871948

$$$$
