
 OpenBabel10152419593D

 32 35  0  0  0  0  0  0  0  0999 V2000
   -0.4390   -4.3080  -25.9320 C   0  0  0  0  0  0  0  0  0  0  0  0
   -0.8010   -4.6210  -24.6140 C   0  0  0  0  0  3  0  0  0  0  0  0
   -0.3110   -5.7770  -24.0310 C   0  0  0  0  0  3  0  0  0  0  0  0
    0.5400   -6.5970  -24.7680 C   0  0  0  0  0  3  0  0  0  0  0  0
    0.9180   -6.2730  -26.1010 C   0  0  0  0  0  0  0  0  0  0  0  0
    1.7970   -7.0470  -26.8870 C   0  0  0  0  0  0  0  0  0  0  0  0
    2.3930   -8.1840  -26.3560 N   0  0  0  0  0  0  0  0  0  0  0  0
    2.0730   -6.7300  -28.1620 N   0  0  0  0  0  0  0  0  0  0  0  0
    1.5290   -5.6090  -28.6380 C   0  0  0  0  0  3  0  0  0  0  0  0
    0.7360   -4.7740  -27.9640 N   0  0  0  0  0  0  0  0  0  0  0  0
    0.4080   -5.1110  -26.7050 C   0  0  0  0  0  0  0  0  0  0  0  0
    2.6700   -8.1290  -25.3850 H   0  0  0  0  0  0  0  0  0  0  0  0
   -0.0850   -2.1830  -26.9880 N   0  0  0  0  0  0  0  0  0  0  0  0
   -1.0020   -3.0720  -26.5010 C   0  0  0  0  0  0  0  0  0  0  0  0
   -2.2000   -2.8340  -26.4710 O   0  0  0  0  0  0  0  0  0  0  0  0
   -0.4320   -1.3190  -27.3840 H   0  0  0  0  0  0  0  0  0  0  0  0
    0.9060   -2.3740  -27.0290 H   0  0  0  0  0  0  0  0  0  0  0  0
    3.2060   -9.0530  -27.1870 C   0  0  0  0  0  2  0  0  0  0  0  0
    3.2690  -10.4160  -26.5360 C   0  0  0  0  0  0  0  0  0  0  0  0
    4.2710  -11.3350  -26.8580 C   0  0  0  0  0  3  0  0  0  0  0  0
    4.2710  -12.5960  -26.2670 C   0  0  0  0  0  3  0  0  0  0  0  0
    3.2680  -12.9540  -25.3590 C   0  0  0  0  0  3  0  0  0  0  0  0
    2.2450  -12.0620  -25.0280 C   0  0  0  0  0  0  0  0  0  0  0  0
    2.2660  -10.7920  -25.6250 C   0  0  0  0  0  3  0  0  0  0  0  0
    1.2240  -12.3430  -24.1130 N   0  0  0  0  0  0  0  0  0  0  0  0
    0.2950  -11.5920  -23.4020 C   0  0  0  0  0  0  0  0  0  0  0  0
   -0.0730  -10.2940  -23.7380 C   0  0  0  0  0  3  0  0  0  0  0  0
   -1.0300   -9.6300  -22.9710 C   0  0  0  0  0  3  0  0  0  0  0  0
   -1.6040  -10.2800  -21.8890 C   0  0  0  0  0  3  0  0  0  0  0  0
   -1.2010  -11.5750  -21.6290 C   0  0  0  0  0  3  0  0  0  0  0  0
   -0.2770  -12.2370  -22.3620 N   0  0  0  0  0  0  0  0  0  0  0  0
    1.2100  -13.2950  -23.7600 H   0  0  0  0  0  0  0  0  0  0  0  0
  1  2  1  0  0  0  0
  2  3  2  0  0  0  0
  4  3  1  0  0  0  0
  5  4  2  0  0  0  0
  6  7  1  0  0  0  0
  6  5  1  0  0  0  0
  7 12  1  0  0  0  0
  8  6  2  0  0  0  0
  9  8  1  0  0  0  0
  9 10  2  0  0  0  0
 10 11  1  0  0  0  0
 11  5  1  0  0  0  0
 11  1  2  0  0  0  0
 13 14  1  0  0  0  0
 14 15  2  0  0  0  0
 14  1  1  0  0  0  0
 16 13  1  0  0  0  0
 17 13  1  0  0  0  0
 18 19  1  0  0  0  0
 18  7  1  0  0  0  0
 19 24  1  0  0  0  0
 20 19  2  0  0  0  0
 20 21  1  0  0  0  0
 21 22  2  0  0  0  0
 22 23  1  0  0  0  0
 23 25  1  0  0  0  0
 24 23  2  0  0  0  0
 25 32  1  0  0  0  0
 25 26  1  0  0  0  0
 26 31  1  0  0  0  0
 27 26  2  0  0  0  0
 27 28  1  0  0  0  0
 28 29  2  0  0  0  0
 29 30  1  0  0  0  0
 31 30  2  0  0  0  0
M  END
>  <minimizedAffinity>
-8.61959553

$$$$
