
 OpenBabel11232420433D

 39 45  0  0  1  0  0  0  0  0999 V2000
  -18.7350   30.4820   12.9880 C   0  0  0  0  0  0  0  0  0  0  0  0
  -19.5790   30.8090   14.0290 N   0  0  0  0  0  0  0  0  0  0  0  0
  -19.1990   31.9960   14.4430 C   0  0  0  0  0  0  0  0  0  0  0  0
  -18.1550   32.4550   13.6880 N   0  0  0  0  0  0  0  0  0  0  0  0
  -17.8390   31.5150   12.7330 C   0  0  0  0  0  0  0  0  0  0  0  0
  -17.6430   33.8010   13.8560 C   0  0  0  0  0  2  0  0  0  0  0  0
  -17.7890   34.2920   15.2060 O   0  0  0  0  0  0  0  0  0  0  0  0
  -18.9510   33.9540   15.8560 C   0  0  0  0  0  0  0  0  0  0  0  0
  -19.3310   34.7620   16.9280 C   0  0  0  0  0  3  0  0  0  0  0  0
  -20.4830   34.4550   17.6550 C   0  0  0  0  0  3  0  0  0  0  0  0
  -21.2420   33.3350   17.3160 C   0  0  0  0  0  3  0  0  0  0  0  0
  -20.8450   32.5200   16.2560 C   0  0  0  0  0  0  0  0  0  0  0  0
  -21.5960   31.4480   15.9640 F   0  0  0  0  0  0  0  0  0  0  0  0
  -19.6980   32.8160   15.5230 C   0  0  0  0  0  0  0  0  0  0  0  0
  -16.8280   31.7130   11.7040 C   0  0  0  0  0  0  0  0  0  0  0  0
  -17.1250   32.4400   10.5460 C   0  0  0  0  0  3  0  0  0  0  0  0
  -16.1540   32.6190    9.5590 C   0  0  0  0  0  3  0  0  0  0  0  0
  -14.8820   32.0740    9.7260 C   0  0  0  0  0  3  0  0  0  0  0  0
  -14.5770   31.3500   10.8790 C   0  0  0  0  0  3  0  0  0  0  0  0
  -15.5470   31.1720   11.8670 C   0  0  0  0  0  3  0  0  0  0  0  0
  -19.2660   26.6130   11.1530 C   0  0  0  0  0  0  0  0  0  0  0  0
  -20.3000   27.5670   11.2240 C   0  0  0  0  0  3  0  0  0  0  0  0
  -20.1050   28.8290   11.7950 C   0  0  0  0  0  3  0  0  0  0  0  0
  -18.8600   29.2000   12.3110 C   0  0  0  0  0  0  0  0  0  0  0  0
  -17.8110   28.2850   12.2280 C   0  0  0  0  0  3  0  0  0  0  0  0
  -18.0120   27.0210   11.6560 C   0  0  0  0  0  3  0  0  0  0  0  0
  -19.5010   25.1680   10.5690 C   0  0  2  0  0  0  0  0  0  0  0  0
  -19.0030   23.9300   11.3680 C   0  0  0  0  0  2  0  0  0  0  0  0
  -18.7540   23.2170    9.9930 C   0  0  1  0  0  0  0  0  0  0  0  0
  -18.5830   24.6650    9.4140 C   0  0  0  0  0  2  0  0  0  0  0  0
  -20.9390   25.0380   10.2250 N   0  0  0  0  0  4  0  0  0  0  0  0
  -21.2320   25.7190    9.5180 H   0  0  0  0  0  0  0  0  0  0  0  0
  -21.5400   25.1620   11.0480 H   0  0  0  0  0  0  0  0  0  0  0  0
  -21.1240   24.0880    9.8470 H   0  0  0  0  0  0  0  0  0  0  0  0
  -17.5790   22.2600    9.9590 C   0  0  0  0  0  3  0  0  0  0  0  0
  -17.7290   20.7690    9.8260 C   0  0  0  0  0  2  0  0  0  0  0  0
  -17.0550   21.5580    8.7360 C   0  0  0  0  0  2  0  0  0  0  0  0
  -19.9790   22.6090    9.4810 O   0  0  0  0  0  0  0  0  0  0  0  0
  -19.6680   21.9200    8.8570 H   0  0  0  0  0  0  0  0  0  0  0  0
  1  2  1  0  0  0  0
  2  3  2  0  0  0  0
  3 14  1  0  0  0  0
  4  6  1  0  0  0  0
  4  3  1  0  0  0  0
  5  1  2  0  0  0  0
  5  4  1  0  0  0  0
  6  7  1  0  0  0  0
  7  8  1  0  0  0  0
  8  9  1  0  0  0  0
  9 10  2  0  0  0  0
 11 10  1  0  0  0  0
 12 11  2  0  0  0  0
 13 12  1  0  0  0  0
 14  8  2  0  0  0  0
 14 12  1  0  0  0  0
 15 20  1  0  0  0  0
 15  5  1  0  0  0  0
 16 15  2  0  0  0  0
 17 18  2  0  0  0  0
 17 16  1  0  0  0  0
 18 19  1  0  0  0  0
 19 20  2  0  0  0  0
 21 22  2  0  0  0  0
 21 26  1  0  0  0  0
 22 23  1  0  0  0  0
 23 24  2  0  0  0  0
 24  1  1  0  0  0  0
 25 24  1  0  0  0  0
 26 25  2  0  0  0  0
 27 31  1  6  0  0  0
 27 21  1  0  0  0  0
 27 28  1  0  0  0  0
 29 38  1  6  0  0  0
 29 28  1  0  0  0  0
 30 29  1  0  0  0  0
 30 27  1  0  0  0  0
 31 33  1  0  0  0  0
 32 31  1  0  0  0  0
 34 31  1  0  0  0  0
 35 29  1  0  0  0  0
 36 35  1  0  0  0  0
 37 36  1  0  0  0  0
 37 35  1  0  0  0  0
 39 38  1  0  0  0  0
M  END
>  <minimizedAffinity>
-10.7067146

$$$$
