
 OpenBabel11232420433D

 39 45  0  0  1  0  0  0  0  0999 V2000
  -17.9910   31.1130   13.2210 C   0  0  0  0  0  0  0  0  0  0  0  0
  -18.6340   31.2970   14.4270 N   0  0  0  0  0  0  0  0  0  0  0  0
  -18.5970   32.5880   14.6630 C   0  0  0  0  0  0  0  0  0  0  0  0
  -17.9730   33.2450   13.6390 N   0  0  0  0  0  0  0  0  0  0  0  0
  -17.5840   32.3300   12.6850 C   0  0  0  0  0  0  0  0  0  0  0  0
  -17.9250   34.6940   13.5950 C   0  0  0  0  0  2  0  0  0  0  0  0
  -17.9170   35.2940   14.9080 O   0  0  0  0  0  0  0  0  0  0  0  0
  -18.7140   34.6990   15.8560 C   0  0  0  0  0  0  0  0  0  0  0  0
  -19.0900   35.4850   16.9450 C   0  0  0  0  0  3  0  0  0  0  0  0
  -19.8700   34.9330   17.9640 C   0  0  0  0  0  3  0  0  0  0  0  0
  -20.2590   33.5950   17.8940 C   0  0  0  0  0  3  0  0  0  0  0  0
  -19.8620   32.8100   16.8130 C   0  0  0  0  0  0  0  0  0  0  0  0
  -20.2500   31.5260   16.7850 F   0  0  0  0  0  0  0  0  0  0  0  0
  -19.0840   33.3490   15.7910 C   0  0  0  0  0  0  0  0  0  0  0  0
  -16.9630   32.6940   11.4190 C   0  0  0  0  0  0  0  0  0  0  0  0
  -15.5820   32.5630   11.2420 C   0  0  0  0  0  3  0  0  0  0  0  0
  -14.9910   32.9210   10.0290 C   0  0  0  0  0  3  0  0  0  0  0  0
  -15.7790   33.4100    8.9870 C   0  0  0  0  0  3  0  0  0  0  0  0
  -17.1570   33.5400    9.1550 C   0  0  0  0  0  3  0  0  0  0  0  0
  -17.7490   33.1810   10.3670 C   0  0  0  0  0  3  0  0  0  0  0  0
  -17.4000   27.2550   11.3820 C   0  0  0  0  0  0  0  0  0  0  0  0
  -16.3270   28.0890   11.7540 C   0  0  0  0  0  3  0  0  0  0  0  0
  -16.5340   29.3250   12.3770 C   0  0  0  0  0  3  0  0  0  0  0  0
  -17.8240   29.7780   12.6690 C   0  0  0  0  0  0  0  0  0  0  0  0
  -18.9020   28.9580   12.3360 C   0  0  0  0  0  3  0  0  0  0  0  0
  -18.6900   27.7220   11.7110 C   0  0  0  0  0  3  0  0  0  0  0  0
  -17.1720   25.8920   10.6220 C   0  0  2  0  0  0  0  0  0  0  0  0
  -18.0210   25.5710    9.3580 C   0  0  0  0  0  2  0  0  0  0  0  0
  -17.9390   24.0570    9.7620 C   0  0  1  0  0  0  0  0  0  0  0  0
  -17.7660   24.5850   11.2290 C   0  0  0  0  0  2  0  0  0  0  0  0
  -15.7230   25.7580   10.3390 N   0  0  0  0  0  4  0  0  0  0  0  0
  -15.1600   25.7430   11.1950 H   0  0  0  0  0  0  0  0  0  0  0  0
  -15.3770   26.5250    9.7500 H   0  0  0  0  0  0  0  0  0  0  0  0
  -15.5460   24.8710    9.8270 H   0  0  0  0  0  0  0  0  0  0  0  0
  -19.1560   23.2230    9.4110 C   0  0  0  0  0  3  0  0  0  0  0  0
  -19.1650   22.1910    8.3160 C   0  0  0  0  0  2  0  0  0  0  0  0
  -19.3500   21.7700    9.7490 C   0  0  0  0  0  2  0  0  0  0  0  0
  -16.6970   23.4500    9.2930 O   0  0  0  0  0  0  0  0  0  0  0  0
  -16.8900   22.4890    9.2630 H   0  0  0  0  0  0  0  0  0  0  0  0
  1  2  1  0  0  0  0
  2  3  2  0  0  0  0
  3 14  1  0  0  0  0
  4  3  1  0  0  0  0
  5  1  2  0  0  0  0
  5  4  1  0  0  0  0
  6  4  1  0  0  0  0
  6  7  1  0  0  0  0
  7  8  1  0  0  0  0
  8  9  1  0  0  0  0
  9 10  2  0  0  0  0
 11 10  1  0  0  0  0
 12 11  2  0  0  0  0
 13 12  1  0  0  0  0
 14  8  2  0  0  0  0
 14 12  1  0  0  0  0
 15  5  1  0  0  0  0
 16 15  1  0  0  0  0
 17 16  2  0  0  0  0
 18 19  2  0  0  0  0
 18 17  1  0  0  0  0
 19 20  1  0  0  0  0
 20 15  2  0  0  0  0
 21 26  2  0  0  0  0
 21 22  1  0  0  0  0
 22 23  2  0  0  0  0
 23 24  1  0  0  0  0
 24  1  1  0  0  0  0
 25 24  2  0  0  0  0
 26 25  1  0  0  0  0
 27 31  1  6  0  0  0
 27 30  1  0  0  0  0
 27 21  1  0  0  0  0
 28 29  1  0  0  0  0
 28 27  1  0  0  0  0
 29 38  1  6  0  0  0
 29 30  1  0  0  0  0
 31 32  1  0  0  0  0
 33 31  1  0  0  0  0
 34 31  1  0  0  0  0
 35 37  1  0  0  0  0
 35 29  1  0  0  0  0
 36 35  1  0  0  0  0
 36 37  1  0  0  0  0
 39 38  1  0  0  0  0
M  END
>  <minimizedAffinity>
-10.2162971

$$$$
