
 OpenBabel11232420433D

 39 45  0  0  1  0  0  0  0  0999 V2000
  -19.7680   20.6520   11.3060 C   0  0  0  0  0  0  0  0  0  0  0  0
  -20.3690   20.0550   12.3950 N   0  0  0  0  0  0  0  0  0  0  0  0
  -20.4410   18.7760   12.1130 C   0  0  0  0  0  0  0  0  0  0  0  0
  -19.8850   18.5230   10.8890 N   0  0  0  0  0  0  0  0  0  0  0  0
  -19.4270   19.7040   10.3480 C   0  0  0  0  0  0  0  0  0  0  0  0
  -19.7160   17.1660   10.4070 C   0  0  0  0  0  2  0  0  0  0  0  0
  -20.7280   16.2650   10.9060 O   0  0  0  0  0  0  0  0  0  0  0  0
  -21.1170   16.4460   12.2110 C   0  0  0  0  0  0  0  0  0  0  0  0
  -21.7080   15.3560   12.8490 C   0  0  0  0  0  3  0  0  0  0  0  0
  -22.1590   15.4810   14.1650 C   0  0  0  0  0  3  0  0  0  0  0  0
  -22.0290   16.7000   14.8310 C   0  0  0  0  0  3  0  0  0  0  0  0
  -21.4570   17.7920   14.1800 C   0  0  0  0  0  0  0  0  0  0  0  0
  -21.3560   18.9490   14.8500 F   0  0  0  0  0  0  0  0  0  0  0  0
  -21.0030   17.6780   12.8680 C   0  0  0  0  0  0  0  0  0  0  0  0
  -18.7040   19.7910    9.0870 C   0  0  0  0  0  0  0  0  0  0  0  0
  -17.7720   18.8090    8.7330 C   0  0  0  0  0  3  0  0  0  0  0  0
  -17.0750   18.9010    7.5270 C   0  0  0  0  0  3  0  0  0  0  0  0
  -17.3080   19.9760    6.6690 C   0  0  0  0  0  3  0  0  0  0  0  0
  -18.2370   20.9570    7.0140 C   0  0  0  0  0  3  0  0  0  0  0  0
  -18.9360   20.8640    8.2180 C   0  0  0  0  0  3  0  0  0  0  0  0
  -19.2080   24.9170   10.9740 C   0  0  0  0  0  0  0  0  0  0  0  0
  -20.4690   24.3050   10.8300 C   0  0  0  0  0  3  0  0  0  0  0  0
  -20.6400   22.9230   10.9710 C   0  0  0  0  0  3  0  0  0  0  0  0
  -19.5590   22.0910   11.2750 C   0  0  0  0  0  0  0  0  0  0  0  0
  -18.3050   22.6760   11.4500 C   0  0  0  0  0  3  0  0  0  0  0  0
  -18.1380   24.0600   11.3070 C   0  0  0  0  0  3  0  0  0  0  0  0
  -19.0020   26.4650   10.7530 C   0  0  2  0  0  0  0  0  0  0  0  0
  -18.3440   27.3160   11.8760 C   0  0  0  0  0  2  0  0  0  0  0  0
  -19.2400   28.5160   11.4100 C   0  0  1  0  0  0  0  0  0  0  0  0
  -20.2300   27.4140   10.8920 C   0  0  0  0  0  2  0  0  0  0  0  0
  -18.3010   26.6570    9.4590 N   0  0  0  0  0  4  0  0  0  0  0  0
  -18.8410   26.2910    8.6680 H   0  0  0  0  0  0  0  0  0  0  0  0
  -17.3830   26.1980    9.4510 H   0  0  0  0  0  0  0  0  0  0  0  0
  -18.1430   27.6700    9.2940 H   0  0  0  0  0  0  0  0  0  0  0  0
  -19.6880   29.4600   12.5080 C   0  0  0  0  0  3  0  0  0  0  0  0
  -19.1040   30.8310   12.7100 C   0  0  0  0  0  2  0  0  0  0  0  0
  -20.5490   30.6790   12.3190 C   0  0  0  0  0  2  0  0  0  0  0  0
  -18.6360   29.2220   10.2840 O   0  0  0  0  0  0  0  0  0  0  0  0
  -19.0470   30.1120   10.3040 H   0  0  0  0  0  0  0  0  0  0  0  0
  1  2  1  0  0  0  0
  3  2  2  0  0  0  0
  3 14  1  0  0  0  0
  4  3  1  0  0  0  0
  5  4  1  0  0  0  0
  5  1  2  0  0  0  0
  6  4  1  0  0  0  0
  6  7  1  0  0  0  0
  7  8  1  0  0  0  0
  8  9  2  0  0  0  0
  8 14  1  0  0  0  0
  9 10  1  0  0  0  0
 10 11  2  0  0  0  0
 12 11  1  0  0  0  0
 12 13  1  0  0  0  0
 14 12  2  0  0  0  0
 15  5  1  0  0  0  0
 16 15  1  0  0  0  0
 17 16  2  0  0  0  0
 18 19  2  0  0  0  0
 18 17  1  0  0  0  0
 19 20  1  0  0  0  0
 20 15  2  0  0  0  0
 21 26  1  0  0  0  0
 22 23  1  0  0  0  0
 22 21  2  0  0  0  0
 23 24  2  0  0  0  0
 24  1  1  0  0  0  0
 24 25  1  0  0  0  0
 26 25  2  0  0  0  0
 27 31  1  6  0  0  0
 27 30  1  0  0  0  0
 27 21  1  0  0  0  0
 27 28  1  0  0  0  0
 29 38  1  6  0  0  0
 29 28  1  0  0  0  0
 29 35  1  0  0  0  0
 30 29  1  0  0  0  0
 32 31  1  0  0  0  0
 33 31  1  0  0  0  0
 34 31  1  0  0  0  0
 35 36  1  0  0  0  0
 37 35  1  0  0  0  0
 37 36  1  0  0  0  0
 38 39  1  0  0  0  0
M  END
>  <minimizedAffinity>
-12.8863773

$$$$

 OpenBabel11232420433D

 39 45  0  0  1  0  0  0  0  0999 V2000
  -18.0620   22.9020    9.7300 C   0  0  0  0  0  0  0  0  0  0  0  0
  -17.1590   22.6560    8.7180 N   0  0  0  0  0  0  0  0  0  0  0  0
  -17.2190   21.3650    8.4860 C   0  0  0  0  0  0  0  0  0  0  0  0
  -18.1480   20.7750    9.2970 N   0  0  0  0  0  0  0  0  0  0  0  0
  -18.7230   21.7360   10.1000 C   0  0  0  0  0  0  0  0  0  0  0  0
  -18.5030   19.3780    9.1410 C   0  0  0  0  0  2  0  0  0  0  0  0
  -17.4110   18.5750    8.6430 O   0  0  0  0  0  0  0  0  0  0  0  0
  -16.6160   19.1550    7.6850 C   0  0  0  0  0  0  0  0  0  0  0  0
  -15.8820   18.2920    6.8700 C   0  0  0  0  0  3  0  0  0  0  0  0
  -15.0250   18.8140    5.8980 C   0  0  0  0  0  3  0  0  0  0  0  0
  -14.8970   20.1960    5.7540 C   0  0  0  0  0  3  0  0  0  0  0  0
  -15.6180   21.0520    6.5860 C   0  0  0  0  0  0  0  0  0  0  0  0
  -15.4630   22.3750    6.4220 F   0  0  0  0  0  0  0  0  0  0  0  0
  -16.4750   20.5430    7.5590 C   0  0  0  0  0  0  0  0  0  0  0  0
  -19.8120   21.4710   11.0290 C   0  0  0  0  0  0  0  0  0  0  0  0
  -19.7850   20.3390   11.8510 C   0  0  0  0  0  3  0  0  0  0  0  0
  -20.8360   20.0850   12.7340 C   0  0  0  0  0  3  0  0  0  0  0  0
  -21.9180   20.9620   12.7990 C   0  0  0  0  0  3  0  0  0  0  0  0
  -21.9510   22.0940   11.9860 C   0  0  0  0  0  3  0  0  0  0  0  0
  -20.8990   22.3490   11.1040 C   0  0  0  0  0  3  0  0  0  0  0  0
  -18.3350   26.9470   11.2100 C   0  0  0  0  0  0  0  0  0  0  0  0
  -18.3160   26.6420    9.8340 C   0  0  0  0  0  3  0  0  0  0  0  0
  -18.2570   25.3240    9.3690 C   0  0  0  0  0  3  0  0  0  0  0  0
  -18.2290   24.2470   10.2600 C   0  0  0  0  0  0  0  0  0  0  0  0
  -18.2760   24.5200   11.6270 C   0  0  0  0  0  3  0  0  0  0  0  0
  -18.3330   25.8420   12.0880 C   0  0  0  0  0  3  0  0  0  0  0  0
  -18.3360   28.4330   11.7360 C   0  0  2  0  0  0  0  0  0  0  0  0
  -17.2680   28.8750   12.7770 C   0  0  0  0  0  2  0  0  0  0  0  0
  -18.3370   29.8600   13.3670 C   0  0  1  0  0  0  0  0  0  0  0  0
  -19.3980   28.8540   12.7960 C   0  0  0  0  0  2  0  0  0  0  0  0
  -18.3420   29.3380   10.5610 N   0  0  0  0  0  4  0  0  0  0  0  0
  -19.1730   29.2080    9.9750 H   0  0  0  0  0  0  0  0  0  0  0  0
  -17.5150   29.2000    9.9690 H   0  0  0  0  0  0  0  0  0  0  0  0
  -18.3310   30.3270   10.8810 H   0  0  0  0  0  0  0  0  0  0  0  0
  -18.2590   30.0880   14.8630 C   0  0  0  0  0  3  0  0  0  0  0  0
  -18.2600   31.4540   15.4940 C   0  0  0  0  0  2  0  0  0  0  0  0
  -19.4010   30.5060   15.7480 C   0  0  0  0  0  2  0  0  0  0  0  0
  -18.3740   31.1130   12.6170 O   0  0  0  0  0  0  0  0  0  0  0  0
  -18.7710   31.7590   13.2380 H   0  0  0  0  0  0  0  0  0  0  0  0
  1  5  2  0  0  0  0
  1 24  1  0  0  0  0
  2  1  1  0  0  0  0
  3  2  2  0  0  0  0
  3  4  1  0  0  0  0
  4  5  1  0  0  0  0
  5 15  1  0  0  0  0
  6  4  1  0  0  0  0
  7  6  1  0  0  0  0
  8  7  1  0  0  0  0
  9  8  2  0  0  0  0
 10  9  1  0  0  0  0
 11 10  2  0  0  0  0
 11 12  1  0  0  0  0
 12 14  2  0  0  0  0
 13 12  1  0  0  0  0
 14  8  1  0  0  0  0
 14  3  1  0  0  0  0
 15 20  2  0  0  0  0
 15 16  1  0  0  0  0
 16 17  2  0  0  0  0
 17 18  1  0  0  0  0
 19 18  2  0  0  0  0
 20 19  1  0  0  0  0
 21 27  1  0  0  0  0
 21 26  1  0  0  0  0
 22 21  2  0  0  0  0
 23 22  1  0  0  0  0
 23 24  2  0  0  0  0
 24 25  1  0  0  0  0
 25 26  2  0  0  0  0
 27 31  1  6  0  0  0
 27 28  1  0  0  0  0
 27 30  1  0  0  0  0
 28 29  1  0  0  0  0
 29 38  1  6  0  0  0
 29 35  1  0  0  0  0
 30 29  1  0  0  0  0
 31 34  1  0  0  0  0
 32 31  1  0  0  0  0
 33 31  1  0  0  0  0
 35 36  1  0  0  0  0
 35 37  1  0  0  0  0
 36 37  1  0  0  0  0
 38 39  1  0  0  0  0
M  END
>  <minimizedAffinity>
-12.2467737

$$$$

 OpenBabel11232420433D

 39 45  0  0  1  0  0  0  0  0999 V2000
  -18.9910   29.4790   12.8180 C   0  0  0  0  0  0  0  0  0  0  0  0
  -20.0320   29.4620   13.7230 N   0  0  0  0  0  0  0  0  0  0  0  0
  -20.1190   30.6820   14.1960 C   0  0  0  0  0  0  0  0  0  0  0  0
  -19.1860   31.4920   13.6100 N   0  0  0  0  0  0  0  0  0  0  0  0
  -18.4530   30.7560   12.7060 C   0  0  0  0  0  0  0  0  0  0  0  0
  -19.1660   32.9200   13.8610 C   0  0  0  0  0  2  0  0  0  0  0  0
  -19.6500   33.2640   15.1770 O   0  0  0  0  0  0  0  0  0  0  0  0
  -20.7190   32.5370   15.6430 C   0  0  0  0  0  0  0  0  0  0  0  0
  -21.4860   33.1210   16.6510 C   0  0  0  0  0  3  0  0  0  0  0  0
  -22.5660   32.4230   17.1960 C   0  0  0  0  0  3  0  0  0  0  0  0
  -22.8650   31.1400   16.7400 C   0  0  0  0  0  3  0  0  0  0  0  0
  -22.0820   30.5530   15.7460 C   0  0  0  0  0  0  0  0  0  0  0  0
  -22.3970   29.3150   15.3380 F   0  0  0  0  0  0  0  0  0  0  0  0
  -21.0030   31.2400   15.1950 C   0  0  0  0  0  0  0  0  0  0  0  0
  -17.4270   31.3220   11.8420 C   0  0  0  0  0  0  0  0  0  0  0  0
  -16.0840   31.3200   12.2360 C   0  0  0  0  0  3  0  0  0  0  0  0
  -15.1060   31.8720   11.4080 C   0  0  0  0  0  3  0  0  0  0  0  0
  -15.4650   32.4270   10.1800 C   0  0  0  0  0  3  0  0  0  0  0  0
  -16.8000   32.4300    9.7780 C   0  0  0  0  0  3  0  0  0  0  0  0
  -17.7790   31.8770   10.6050 C   0  0  0  0  0  3  0  0  0  0  0  0
  -17.8590   25.7510   10.9620 C   0  0  0  0  0  0  0  0  0  0  0  0
  -19.1620   25.9960   11.4370 C   0  0  0  0  0  3  0  0  0  0  0  0
  -19.5230   27.2210   12.0100 C   0  0  0  0  0  3  0  0  0  0  0  0
  -18.5980   28.2630   12.1210 C   0  0  0  0  0  0  0  0  0  0  0  0
  -17.3090   28.0570   11.6320 C   0  0  0  0  0  3  0  0  0  0  0  0
  -16.9520   26.8280   11.0600 C   0  0  0  0  0  3  0  0  0  0  0  0
  -17.4340   24.3510   10.3750 C   0  0  2  0  0  0  0  0  0  0  0  0
  -18.2420   23.7410    9.1940 C   0  0  0  0  0  2  0  0  0  0  0  0
  -17.9190   22.3230    9.7850 C   0  0  1  0  0  0  0  0  0  0  0  0
  -17.8070   23.0610   11.1650 C   0  0  0  0  0  2  0  0  0  0  0  0
  -15.9850   24.4030   10.0590 N   0  0  0  0  0  4  0  0  0  0  0  0
  -15.4140   24.5870   10.8900 H   0  0  0  0  0  0  0  0  0  0  0  0
  -15.7720   25.1290    9.3650 H   0  0  0  0  0  0  0  0  0  0  0  0
  -15.6810   23.4940    9.6600 H   0  0  0  0  0  0  0  0  0  0  0  0
  -18.9960   21.2750    9.5870 C   0  0  0  0  0  3  0  0  0  0  0  0
  -18.9380   20.2190    8.5170 C   0  0  0  0  0  2  0  0  0  0  0  0
  -18.8880   19.8240    9.9680 C   0  0  0  0  0  2  0  0  0  0  0  0
  -16.6050   21.8560    9.3530 O   0  0  0  0  0  0  0  0  0  0  0  0
  -16.6470   20.8810    9.4540 H   0  0  0  0  0  0  0  0  0  0  0  0
  1  2  1  0  0  0  0
  2  3  2  0  0  0  0
  3 14  1  0  0  0  0
  4  6  1  0  0  0  0
  4  3  1  0  0  0  0
  5  1  2  0  0  0  0
  5  4  1  0  0  0  0
  6  7  1  0  0  0  0
  7  8  1  0  0  0  0
  8  9  1  0  0  0  0
  9 10  2  0  0  0  0
 11 10  1  0  0  0  0
 12 11  2  0  0  0  0
 13 12  1  0  0  0  0
 14  8  2  0  0  0  0
 14 12  1  0  0  0  0
 15 16  1  0  0  0  0
 15  5  1  0  0  0  0
 17 16  2  0  0  0  0
 18 17  1  0  0  0  0
 19 18  2  0  0  0  0
 19 20  1  0  0  0  0
 20 15  2  0  0  0  0
 21 26  2  0  0  0  0
 21 22  1  0  0  0  0
 22 23  2  0  0  0  0
 23 24  1  0  0  0  0
 24  1  1  0  0  0  0
 25 24  2  0  0  0  0
 26 25  1  0  0  0  0
 27 31  1  6  0  0  0
 27 21  1  0  0  0  0
 27 30  1  0  0  0  0
 28 29  1  0  0  0  0
 28 27  1  0  0  0  0
 29 38  1  6  0  0  0
 29 30  1  0  0  0  0
 31 32  1  0  0  0  0
 33 31  1  0  0  0  0
 34 31  1  0  0  0  0
 35 29  1  0  0  0  0
 35 37  1  0  0  0  0
 36 35  1  0  0  0  0
 36 37  1  0  0  0  0
 38 39  1  0  0  0  0
M  END
>  <minimizedAffinity>
-10.9724474

$$$$

 OpenBabel11232420433D

 39 45  0  0  1  0  0  0  0  0999 V2000
  -17.2130   30.4100   11.9200 C   0  0  0  0  0  0  0  0  0  0  0  0
  -16.2540   30.9540   11.0920 N   0  0  0  0  0  0  0  0  0  0  0  0
  -15.9020   32.0910   11.6450 C   0  0  0  0  0  0  0  0  0  0  0  0
  -16.5840   32.2870   12.8140 N   0  0  0  0  0  0  0  0  0  0  0  0
  -17.4260   31.2180   13.0310 C   0  0  0  0  0  0  0  0  0  0  0  0
  -16.2760   33.4040   13.6860 C   0  0  0  0  0  2  0  0  0  0  0  0
  -15.7910   34.5580   12.9670 O   0  0  0  0  0  0  0  0  0  0  0  0
  -14.9520   34.3090   11.9080 C   0  0  0  0  0  0  0  0  0  0  0  0
  -14.1190   35.3540   11.5050 C   0  0  0  0  0  3  0  0  0  0  0  0
  -13.2660   35.1810   10.4130 C   0  0  0  0  0  3  0  0  0  0  0  0
  -13.2580   33.9700    9.7220 C   0  0  0  0  0  3  0  0  0  0  0  0
  -14.1070   32.9370   10.1170 C   0  0  0  0  0  0  0  0  0  0  0  0
  -14.0760   31.7890    9.4240 F   0  0  0  0  0  0  0  0  0  0  0  0
  -14.9630   33.0970   11.2050 C   0  0  0  0  0  0  0  0  0  0  0  0
  -18.2420   31.0590   14.2260 C   0  0  0  0  0  0  0  0  0  0  0  0
  -17.7320   30.4050   15.3530 C   0  0  0  0  0  3  0  0  0  0  0  0
  -18.5220   30.2480   16.4940 C   0  0  0  0  0  3  0  0  0  0  0  0
  -19.8240   30.7440   16.5120 C   0  0  0  0  0  3  0  0  0  0  0  0
  -20.3390   31.4000   15.3950 C   0  0  0  0  0  3  0  0  0  0  0  0
  -19.5490   31.5600   14.2550 C   0  0  0  0  0  3  0  0  0  0  0  0
  -19.2300   26.6790   11.1250 C   0  0  0  0  0  0  0  0  0  0  0  0
  -19.9010   27.9180   11.1240 C   0  0  0  0  0  3  0  0  0  0  0  0
  -19.2280   29.1230   11.3540 C   0  0  0  0  0  3  0  0  0  0  0  0
  -17.8490   29.1450   11.5820 C   0  0  0  0  0  0  0  0  0  0  0  0
  -17.1570   27.9350   11.5600 C   0  0  0  0  0  3  0  0  0  0  0  0
  -17.8360   26.7300   11.3310 C   0  0  0  0  0  3  0  0  0  0  0  0
  -19.9970   25.3150   10.9310 C   0  0  2  0  0  0  0  0  0  0  0  0
  -20.0590   24.2990   12.1070 C   0  0  0  0  0  2  0  0  0  0  0  0
  -20.0620   23.1520   11.0370 C   0  0  1  0  0  0  0  0  0  0  0  0
  -19.3120   24.1770   10.1160 C   0  0  0  0  0  2  0  0  0  0  0  0
  -21.3550   25.6190   10.4170 N   0  0  0  0  0  4  0  0  0  0  0  0
  -21.3290   26.1010    9.5130 H   0  0  0  0  0  0  0  0  0  0  0  0
  -21.8880   26.2050   11.0700 H   0  0  0  0  0  0  0  0  0  0  0  0
  -21.8870   24.7350   10.2900 H   0  0  0  0  0  0  0  0  0  0  0  0
  -19.3620   21.8730   11.4500 C   0  0  0  0  0  3  0  0  0  0  0  0
  -20.0880   20.6580   11.9610 C   0  0  0  0  0  2  0  0  0  0  0  0
  -19.3330   20.5930   10.6600 C   0  0  0  0  0  2  0  0  0  0  0  0
  -21.4080   22.9060   10.5270 O   0  0  0  0  0  0  0  0  0  0  0  0
  -21.3730   21.9920   10.1730 H   0  0  0  0  0  0  0  0  0  0  0  0
  1  5  2  0  0  0  0
  2  3  2  0  0  0  0
  2  1  1  0  0  0  0
  3  4  1  0  0  0  0
  4  5  1  0  0  0  0
  4  6  1  0  0  0  0
  5 15  1  0  0  0  0
  7  6  1  0  0  0  0
  8  7  1  0  0  0  0
  9  8  1  0  0  0  0
 10  9  2  0  0  0  0
 11 12  2  0  0  0  0
 11 10  1  0  0  0  0
 12 14  1  0  0  0  0
 13 12  1  0  0  0  0
 14  3  1  0  0  0  0
 14  8  2  0  0  0  0
 15 20  2  0  0  0  0
 15 16  1  0  0  0  0
 16 17  2  0  0  0  0
 17 18  1  0  0  0  0
 19 18  2  0  0  0  0
 20 19  1  0  0  0  0
 21 26  1  0  0  0  0
 22 21  2  0  0  0  0
 22 23  1  0  0  0  0
 23 24  2  0  0  0  0
 24  1  1  0  0  0  0
 25 24  1  0  0  0  0
 26 25  2  0  0  0  0
 27 31  1  6  0  0  0
 27 21  1  0  0  0  0
 27 28  1  0  0  0  0
 29 38  1  6  0  0  0
 29 35  1  0  0  0  0
 29 28  1  0  0  0  0
 30 27  1  0  0  0  0
 30 29  1  0  0  0  0
 31 33  1  0  0  0  0
 32 31  1  0  0  0  0
 34 31  1  0  0  0  0
 35 36  1  0  0  0  0
 37 35  1  0  0  0  0
 37 36  1  0  0  0  0
 39 38  1  0  0  0  0
M  END
>  <minimizedAffinity>
-10.8537893

$$$$

 OpenBabel11232420433D

 39 45  0  0  1  0  0  0  0  0999 V2000
  -17.1200   30.1840   12.1870 C   0  0  0  0  0  0  0  0  0  0  0  0
  -16.1350   30.5630   11.2990 N   0  0  0  0  0  0  0  0  0  0  0  0
  -15.7170   31.7400   11.7020 C   0  0  0  0  0  0  0  0  0  0  0  0
  -16.3820   32.1220   12.8340 N   0  0  0  0  0  0  0  0  0  0  0  0
  -17.2810   31.1390   13.1850 C   0  0  0  0  0  0  0  0  0  0  0  0
  -16.0060   33.3230   13.5560 C   0  0  0  0  0  2  0  0  0  0  0  0
  -15.4610   34.3460   12.6960 O   0  0  0  0  0  0  0  0  0  0  0  0
  -14.6420   33.9160   11.6800 C   0  0  0  0  0  0  0  0  0  0  0  0
  -13.7550   34.8520   11.1480 C   0  0  0  0  0  3  0  0  0  0  0  0
  -12.9180   34.4930   10.0890 C   0  0  0  0  0  3  0  0  0  0  0  0
  -12.9820   33.2040    9.5590 C   0  0  0  0  0  3  0  0  0  0  0  0
  -13.8860   32.2800   10.0820 C   0  0  0  0  0  0  0  0  0  0  0  0
  -13.9230   31.0530    9.5410 F   0  0  0  0  0  0  0  0  0  0  0  0
  -14.7250   32.6270   11.1380 C   0  0  0  0  0  0  0  0  0  0  0  0
  -18.0980   31.1810   14.3890 C   0  0  0  0  0  0  0  0  0  0  0  0
  -19.2300   32.0020   14.4520 C   0  0  0  0  0  3  0  0  0  0  0  0
  -20.0060   32.0440   15.6110 C   0  0  0  0  0  3  0  0  0  0  0  0
  -19.6540   31.2650   16.7130 C   0  0  0  0  0  3  0  0  0  0  0  0
  -18.5300   30.4420   16.6570 C   0  0  0  0  0  3  0  0  0  0  0  0
  -17.7550   30.3970   15.4980 C   0  0  0  0  0  3  0  0  0  0  0  0
  -19.1740   26.4660   11.4310 C   0  0  0  0  0  0  0  0  0  0  0  0
  -17.7900   26.6230   11.2220 C   0  0  0  0  0  3  0  0  0  0  0  0
  -17.1320   27.8260   11.5000 C   0  0  0  0  0  3  0  0  0  0  0  0
  -17.8270   28.9250   12.0140 C   0  0  0  0  0  0  0  0  0  0  0  0
  -19.1930   28.7860   12.2560 C   0  0  0  0  0  3  0  0  0  0  0  0
  -19.8480   27.5800   11.9740 C   0  0  0  0  0  3  0  0  0  0  0  0
  -19.9280   25.1320   11.0570 C   0  0  2  0  0  0  0  0  0  0  0  0
  -20.1630   24.0550   12.1550 C   0  0  0  0  0  2  0  0  0  0  0  0
  -20.0400   22.9690   11.0300 C   0  0  1  0  0  0  0  0  0  0  0  0
  -19.1560   24.0260   10.2780 C   0  0  0  0  0  2  0  0  0  0  0  0
  -21.2000   25.4950   10.3850 N   0  0  0  0  0  4  0  0  0  0  0  0
  -21.0450   26.0250    9.5210 H   0  0  0  0  0  0  0  0  0  0  0  0
  -21.8070   26.0560   10.9930 H   0  0  0  0  0  0  0  0  0  0  0  0
  -21.7230   24.6310   10.1380 H   0  0  0  0  0  0  0  0  0  0  0  0
  -19.4200   21.6530   11.4590 C   0  0  0  0  0  3  0  0  0  0  0  0
  -20.2260   20.4740   11.9320 C   0  0  0  0  0  2  0  0  0  0  0  0
  -19.4270   20.3790   10.6610 C   0  0  0  0  0  2  0  0  0  0  0  0
  -21.3080   22.7820   10.3320 O   0  0  0  0  0  0  0  0  0  0  0  0
  -21.2400   21.8880    9.9340 H   0  0  0  0  0  0  0  0  0  0  0  0
  1  5  2  0  0  0  0
  2  3  2  0  0  0  0
  2  1  1  0  0  0  0
  3  4  1  0  0  0  0
  4  5  1  0  0  0  0
  4  6  1  0  0  0  0
  5 15  1  0  0  0  0
  7  6  1  0  0  0  0
  8  7  1  0  0  0  0
  9  8  1  0  0  0  0
 10  9  2  0  0  0  0
 11 12  2  0  0  0  0
 11 10  1  0  0  0  0
 12 14  1  0  0  0  0
 13 12  1  0  0  0  0
 14  8  2  0  0  0  0
 14  3  1  0  0  0  0
 15 16  2  0  0  0  0
 15 20  1  0  0  0  0
 16 17  1  0  0  0  0
 17 18  2  0  0  0  0
 19 18  1  0  0  0  0
 20 19  2  0  0  0  0
 21 26  1  0  0  0  0
 22 21  2  0  0  0  0
 22 23  1  0  0  0  0
 23 24  2  0  0  0  0
 24  1  1  0  0  0  0
 24 25  1  0  0  0  0
 26 25  2  0  0  0  0
 27 31  1  6  0  0  0
 27 21  1  0  0  0  0
 27 28  1  0  0  0  0
 29 38  1  6  0  0  0
 29 35  1  0  0  0  0
 29 28  1  0  0  0  0
 30 29  1  0  0  0  0
 30 27  1  0  0  0  0
 31 33  1  0  0  0  0
 32 31  1  0  0  0  0
 34 31  1  0  0  0  0
 35 36  1  0  0  0  0
 37 35  1  0  0  0  0
 37 36  1  0  0  0  0
 39 38  1  0  0  0  0
M  END
>  <minimizedAffinity>
-10.728548

$$$$

 OpenBabel11232420433D

 39 45  0  0  1  0  0  0  0  0999 V2000
  -18.7350   30.4820   12.9880 C   0  0  0  0  0  0  0  0  0  0  0  0
  -19.5790   30.8090   14.0290 N   0  0  0  0  0  0  0  0  0  0  0  0
  -19.1990   31.9960   14.4430 C   0  0  0  0  0  0  0  0  0  0  0  0
  -18.1550   32.4550   13.6880 N   0  0  0  0  0  0  0  0  0  0  0  0
  -17.8390   31.5150   12.7330 C   0  0  0  0  0  0  0  0  0  0  0  0
  -17.6430   33.8010   13.8560 C   0  0  0  0  0  2  0  0  0  0  0  0
  -17.7890   34.2920   15.2060 O   0  0  0  0  0  0  0  0  0  0  0  0
  -18.9510   33.9540   15.8560 C   0  0  0  0  0  0  0  0  0  0  0  0
  -19.3310   34.7620   16.9280 C   0  0  0  0  0  3  0  0  0  0  0  0
  -20.4830   34.4550   17.6550 C   0  0  0  0  0  3  0  0  0  0  0  0
  -21.2420   33.3350   17.3160 C   0  0  0  0  0  3  0  0  0  0  0  0
  -20.8450   32.5200   16.2560 C   0  0  0  0  0  0  0  0  0  0  0  0
  -21.5960   31.4480   15.9640 F   0  0  0  0  0  0  0  0  0  0  0  0
  -19.6980   32.8160   15.5230 C   0  0  0  0  0  0  0  0  0  0  0  0
  -16.8280   31.7130   11.7040 C   0  0  0  0  0  0  0  0  0  0  0  0
  -17.1250   32.4400   10.5460 C   0  0  0  0  0  3  0  0  0  0  0  0
  -16.1540   32.6190    9.5590 C   0  0  0  0  0  3  0  0  0  0  0  0
  -14.8820   32.0740    9.7260 C   0  0  0  0  0  3  0  0  0  0  0  0
  -14.5770   31.3500   10.8790 C   0  0  0  0  0  3  0  0  0  0  0  0
  -15.5470   31.1720   11.8670 C   0  0  0  0  0  3  0  0  0  0  0  0
  -19.2660   26.6130   11.1530 C   0  0  0  0  0  0  0  0  0  0  0  0
  -20.3000   27.5670   11.2240 C   0  0  0  0  0  3  0  0  0  0  0  0
  -20.1050   28.8290   11.7950 C   0  0  0  0  0  3  0  0  0  0  0  0
  -18.8600   29.2000   12.3110 C   0  0  0  0  0  0  0  0  0  0  0  0
  -17.8110   28.2850   12.2280 C   0  0  0  0  0  3  0  0  0  0  0  0
  -18.0120   27.0210   11.6560 C   0  0  0  0  0  3  0  0  0  0  0  0
  -19.5010   25.1680   10.5690 C   0  0  2  0  0  0  0  0  0  0  0  0
  -19.0030   23.9300   11.3680 C   0  0  0  0  0  2  0  0  0  0  0  0
  -18.7540   23.2170    9.9930 C   0  0  1  0  0  0  0  0  0  0  0  0
  -18.5830   24.6650    9.4140 C   0  0  0  0  0  2  0  0  0  0  0  0
  -20.9390   25.0380   10.2250 N   0  0  0  0  0  4  0  0  0  0  0  0
  -21.2320   25.7190    9.5180 H   0  0  0  0  0  0  0  0  0  0  0  0
  -21.5400   25.1620   11.0480 H   0  0  0  0  0  0  0  0  0  0  0  0
  -21.1240   24.0880    9.8470 H   0  0  0  0  0  0  0  0  0  0  0  0
  -17.5790   22.2600    9.9590 C   0  0  0  0  0  3  0  0  0  0  0  0
  -17.7290   20.7690    9.8260 C   0  0  0  0  0  2  0  0  0  0  0  0
  -17.0550   21.5580    8.7360 C   0  0  0  0  0  2  0  0  0  0  0  0
  -19.9790   22.6090    9.4810 O   0  0  0  0  0  0  0  0  0  0  0  0
  -19.6680   21.9200    8.8570 H   0  0  0  0  0  0  0  0  0  0  0  0
  1  2  1  0  0  0  0
  2  3  2  0  0  0  0
  3 14  1  0  0  0  0
  4  6  1  0  0  0  0
  4  3  1  0  0  0  0
  5  1  2  0  0  0  0
  5  4  1  0  0  0  0
  6  7  1  0  0  0  0
  7  8  1  0  0  0  0
  8  9  1  0  0  0  0
  9 10  2  0  0  0  0
 11 10  1  0  0  0  0
 12 11  2  0  0  0  0
 13 12  1  0  0  0  0
 14  8  2  0  0  0  0
 14 12  1  0  0  0  0
 15 20  1  0  0  0  0
 15  5  1  0  0  0  0
 16 15  2  0  0  0  0
 17 18  2  0  0  0  0
 17 16  1  0  0  0  0
 18 19  1  0  0  0  0
 19 20  2  0  0  0  0
 21 22  2  0  0  0  0
 21 26  1  0  0  0  0
 22 23  1  0  0  0  0
 23 24  2  0  0  0  0
 24  1  1  0  0  0  0
 25 24  1  0  0  0  0
 26 25  2  0  0  0  0
 27 31  1  6  0  0  0
 27 21  1  0  0  0  0
 27 28  1  0  0  0  0
 29 38  1  6  0  0  0
 29 28  1  0  0  0  0
 30 29  1  0  0  0  0
 30 27  1  0  0  0  0
 31 33  1  0  0  0  0
 32 31  1  0  0  0  0
 34 31  1  0  0  0  0
 35 29  1  0  0  0  0
 36 35  1  0  0  0  0
 37 36  1  0  0  0  0
 37 35  1  0  0  0  0
 39 38  1  0  0  0  0
M  END
>  <minimizedAffinity>
-10.7067146

$$$$

 OpenBabel11232420433D

 39 45  0  0  1  0  0  0  0  0999 V2000
  -17.8470   22.9940    9.5710 C   0  0  0  0  0  0  0  0  0  0  0  0
  -16.9630   22.6790    8.5610 N   0  0  0  0  0  0  0  0  0  0  0  0
  -17.1240   21.3970    8.3270 C   0  0  0  0  0  0  0  0  0  0  0  0
  -18.0990   20.8810    9.1360 N   0  0  0  0  0  0  0  0  0  0  0  0
  -18.5980   21.8830    9.9380 C   0  0  0  0  0  0  0  0  0  0  0  0
  -18.5610   19.5160    8.9770 C   0  0  0  0  0  2  0  0  0  0  0  0
  -17.5340   18.6310    8.4810 O   0  0  0  0  0  0  0  0  0  0  0  0
  -16.6930   19.1470    7.5250 C   0  0  0  0  0  0  0  0  0  0  0  0
  -16.0270   18.2300    6.7120 C   0  0  0  0  0  3  0  0  0  0  0  0
  -15.1300   18.6850    5.7430 C   0  0  0  0  0  3  0  0  0  0  0  0
  -14.8930   20.0520    5.6010 C   0  0  0  0  0  3  0  0  0  0  0  0
  -15.5470   20.9620    6.4320 C   0  0  0  0  0  0  0  0  0  0  0  0
  -15.2880   22.2680    6.2700 F   0  0  0  0  0  0  0  0  0  0  0  0
  -16.4440   20.5200    7.4010 C   0  0  0  0  0  0  0  0  0  0  0  0
  -19.7070   21.7030   10.8640 C   0  0  0  0  0  0  0  0  0  0  0  0
  -20.8150   22.5570   10.8200 C   0  0  0  0  0  3  0  0  0  0  0  0
  -21.8720   22.3860   11.7150 C   0  0  0  0  0  3  0  0  0  0  0  0
  -21.8270   21.3580   12.6570 C   0  0  0  0  0  3  0  0  0  0  0  0
  -20.7290   20.5010   12.7050 C   0  0  0  0  0  3  0  0  0  0  0  0
  -19.6720   20.6710   11.8090 C   0  0  0  0  0  3  0  0  0  0  0  0
  -18.2630   26.9620   11.2170 C   0  0  0  0  0  0  0  0  0  0  0  0
  -18.2750   25.8040   12.0190 C   0  0  0  0  0  3  0  0  0  0  0  0
  -18.1090   24.5260   11.4740 C   0  0  0  0  0  3  0  0  0  0  0  0
  -17.9100   24.3480   10.1020 C   0  0  0  0  0  0  0  0  0  0  0  0
  -17.8640   25.4800    9.2900 C   0  0  0  0  0  3  0  0  0  0  0  0
  -18.0330   26.7580    9.8400 C   0  0  0  0  0  3  0  0  0  0  0  0
  -18.5140   28.3970   11.8200 C   0  0  2  0  0  0  0  0  0  0  0  0
  -19.8650   29.1170   11.5410 C   0  0  0  0  0  2  0  0  0  0  0  0
  -19.0800   30.4750   11.5800 C   0  0  1  0  0  0  0  0  0  0  0  0
  -17.8350   29.6260   11.1430 C   0  0  0  0  0  2  0  0  0  0  0  0
  -18.2290   28.3430   13.2740 N   0  0  0  0  0  4  0  0  0  0  0  0
  -17.2570   28.0810   13.4690 H   0  0  0  0  0  0  0  0  0  0  0  0
  -18.8380   27.6720   13.7580 H   0  0  0  0  0  0  0  0  0  0  0  0
  -18.3980   29.2760   13.6990 H   0  0  0  0  0  0  0  0  0  0  0  0
  -19.6040   31.5560   10.6560 C   0  0  0  0  0  3  0  0  0  0  0  0
  -18.7130   32.5140    9.9130 C   0  0  0  0  0  2  0  0  0  0  0  0
  -19.5550   31.5250    9.1530 C   0  0  0  0  0  2  0  0  0  0  0  0
  -18.9110   30.9510   12.9500 O   0  0  0  0  0  0  0  0  0  0  0  0
  -18.7560   31.9140   12.8570 H   0  0  0  0  0  0  0  0  0  0  0  0
  1  5  2  0  0  0  0
  1 24  1  0  0  0  0
  2  1  1  0  0  0  0
  3  2  2  0  0  0  0
  3  4  1  0  0  0  0
  4  5  1  0  0  0  0
  5 15  1  0  0  0  0
  6  4  1  0  0  0  0
  7  6  1  0  0  0  0
  8  7  1  0  0  0  0
  9  8  2  0  0  0  0
 10  9  1  0  0  0  0
 11 10  2  0  0  0  0
 11 12  1  0  0  0  0
 12 14  2  0  0  0  0
 13 12  1  0  0  0  0
 14  8  1  0  0  0  0
 14  3  1  0  0  0  0
 15 20  1  0  0  0  0
 16 15  2  0  0  0  0
 16 17  1  0  0  0  0
 17 18  2  0  0  0  0
 18 19  1  0  0  0  0
 20 19  2  0  0  0  0
 21 27  1  0  0  0  0
 21 22  1  0  0  0  0
 23 22  2  0  0  0  0
 24 23  1  0  0  0  0
 25 26  1  0  0  0  0
 25 24  2  0  0  0  0
 26 21  2  0  0  0  0
 27 31  1  1  0  0  0
 28 29  1  0  0  0  0
 28 27  1  0  0  0  0
 29 38  1  1  0  0  0
 30 29  1  0  0  0  0
 30 27  1  0  0  0  0
 31 32  1  0  0  0  0
 31 34  1  0  0  0  0
 31 33  1  0  0  0  0
 35 29  1  0  0  0  0
 36 35  1  0  0  0  0
 37 36  1  0  0  0  0
 37 35  1  0  0  0  0
 39 38  1  0  0  0  0
M  END
>  <minimizedAffinity>
-10.5538788

$$$$

 OpenBabel11232420433D

 39 45  0  0  1  0  0  0  0  0999 V2000
  -17.9910   31.1130   13.2210 C   0  0  0  0  0  0  0  0  0  0  0  0
  -18.6340   31.2970   14.4270 N   0  0  0  0  0  0  0  0  0  0  0  0
  -18.5970   32.5880   14.6630 C   0  0  0  0  0  0  0  0  0  0  0  0
  -17.9730   33.2450   13.6390 N   0  0  0  0  0  0  0  0  0  0  0  0
  -17.5840   32.3300   12.6850 C   0  0  0  0  0  0  0  0  0  0  0  0
  -17.9250   34.6940   13.5950 C   0  0  0  0  0  2  0  0  0  0  0  0
  -17.9170   35.2940   14.9080 O   0  0  0  0  0  0  0  0  0  0  0  0
  -18.7140   34.6990   15.8560 C   0  0  0  0  0  0  0  0  0  0  0  0
  -19.0900   35.4850   16.9450 C   0  0  0  0  0  3  0  0  0  0  0  0
  -19.8700   34.9330   17.9640 C   0  0  0  0  0  3  0  0  0  0  0  0
  -20.2590   33.5950   17.8940 C   0  0  0  0  0  3  0  0  0  0  0  0
  -19.8620   32.8100   16.8130 C   0  0  0  0  0  0  0  0  0  0  0  0
  -20.2500   31.5260   16.7850 F   0  0  0  0  0  0  0  0  0  0  0  0
  -19.0840   33.3490   15.7910 C   0  0  0  0  0  0  0  0  0  0  0  0
  -16.9630   32.6940   11.4190 C   0  0  0  0  0  0  0  0  0  0  0  0
  -15.5820   32.5630   11.2420 C   0  0  0  0  0  3  0  0  0  0  0  0
  -14.9910   32.9210   10.0290 C   0  0  0  0  0  3  0  0  0  0  0  0
  -15.7790   33.4100    8.9870 C   0  0  0  0  0  3  0  0  0  0  0  0
  -17.1570   33.5400    9.1550 C   0  0  0  0  0  3  0  0  0  0  0  0
  -17.7490   33.1810   10.3670 C   0  0  0  0  0  3  0  0  0  0  0  0
  -17.4000   27.2550   11.3820 C   0  0  0  0  0  0  0  0  0  0  0  0
  -16.3270   28.0890   11.7540 C   0  0  0  0  0  3  0  0  0  0  0  0
  -16.5340   29.3250   12.3770 C   0  0  0  0  0  3  0  0  0  0  0  0
  -17.8240   29.7780   12.6690 C   0  0  0  0  0  0  0  0  0  0  0  0
  -18.9020   28.9580   12.3360 C   0  0  0  0  0  3  0  0  0  0  0  0
  -18.6900   27.7220   11.7110 C   0  0  0  0  0  3  0  0  0  0  0  0
  -17.1720   25.8920   10.6220 C   0  0  2  0  0  0  0  0  0  0  0  0
  -18.0210   25.5710    9.3580 C   0  0  0  0  0  2  0  0  0  0  0  0
  -17.9390   24.0570    9.7620 C   0  0  1  0  0  0  0  0  0  0  0  0
  -17.7660   24.5850   11.2290 C   0  0  0  0  0  2  0  0  0  0  0  0
  -15.7230   25.7580   10.3390 N   0  0  0  0  0  4  0  0  0  0  0  0
  -15.1600   25.7430   11.1950 H   0  0  0  0  0  0  0  0  0  0  0  0
  -15.3770   26.5250    9.7500 H   0  0  0  0  0  0  0  0  0  0  0  0
  -15.5460   24.8710    9.8270 H   0  0  0  0  0  0  0  0  0  0  0  0
  -19.1560   23.2230    9.4110 C   0  0  0  0  0  3  0  0  0  0  0  0
  -19.1650   22.1910    8.3160 C   0  0  0  0  0  2  0  0  0  0  0  0
  -19.3500   21.7700    9.7490 C   0  0  0  0  0  2  0  0  0  0  0  0
  -16.6970   23.4500    9.2930 O   0  0  0  0  0  0  0  0  0  0  0  0
  -16.8900   22.4890    9.2630 H   0  0  0  0  0  0  0  0  0  0  0  0
  1  2  1  0  0  0  0
  2  3  2  0  0  0  0
  3 14  1  0  0  0  0
  4  3  1  0  0  0  0
  5  1  2  0  0  0  0
  5  4  1  0  0  0  0
  6  4  1  0  0  0  0
  6  7  1  0  0  0  0
  7  8  1  0  0  0  0
  8  9  1  0  0  0  0
  9 10  2  0  0  0  0
 11 10  1  0  0  0  0
 12 11  2  0  0  0  0
 13 12  1  0  0  0  0
 14  8  2  0  0  0  0
 14 12  1  0  0  0  0
 15  5  1  0  0  0  0
 16 15  1  0  0  0  0
 17 16  2  0  0  0  0
 18 19  2  0  0  0  0
 18 17  1  0  0  0  0
 19 20  1  0  0  0  0
 20 15  2  0  0  0  0
 21 26  2  0  0  0  0
 21 22  1  0  0  0  0
 22 23  2  0  0  0  0
 23 24  1  0  0  0  0
 24  1  1  0  0  0  0
 25 24  2  0  0  0  0
 26 25  1  0  0  0  0
 27 31  1  6  0  0  0
 27 30  1  0  0  0  0
 27 21  1  0  0  0  0
 28 29  1  0  0  0  0
 28 27  1  0  0  0  0
 29 38  1  6  0  0  0
 29 30  1  0  0  0  0
 31 32  1  0  0  0  0
 33 31  1  0  0  0  0
 34 31  1  0  0  0  0
 35 37  1  0  0  0  0
 35 29  1  0  0  0  0
 36 35  1  0  0  0  0
 36 37  1  0  0  0  0
 39 38  1  0  0  0  0
M  END
>  <minimizedAffinity>
-10.2162971

$$$$

 OpenBabel11232420433D

 39 45  0  0  1  0  0  0  0  0999 V2000
  -18.1480   30.6820   12.8790 C   0  0  0  0  0  0  0  0  0  0  0  0
  -17.0300   31.3000   12.3590 N   0  0  0  0  0  0  0  0  0  0  0  0
  -16.9790   32.4860   12.9190 C   0  0  0  0  0  0  0  0  0  0  0  0
  -18.0120   32.6440   13.8010 N   0  0  0  0  0  0  0  0  0  0  0  0
  -18.7760   31.4980   13.8140 C   0  0  0  0  0  0  0  0  0  0  0  0
  -18.1010   33.8160   14.6510 C   0  0  0  0  0  2  0  0  0  0  0  0
  -17.5220   34.9920   14.0460 O   0  0  0  0  0  0  0  0  0  0  0  0
  -16.3710   34.8010   13.3210 C   0  0  0  0  0  0  0  0  0  0  0  0
  -15.5550   35.9170   13.1310 C   0  0  0  0  0  3  0  0  0  0  0  0
  -14.3870   35.8030   12.3740 C   0  0  0  0  0  3  0  0  0  0  0  0
  -14.0480   34.5770   11.8000 C   0  0  0  0  0  3  0  0  0  0  0  0
  -14.8790   33.4720   11.9760 C   0  0  0  0  0  0  0  0  0  0  0  0
  -14.5230   32.3120   11.4030 F   0  0  0  0  0  0  0  0  0  0  0  0
  -16.0460   33.5730   12.7300 C   0  0  0  0  0  0  0  0  0  0  0  0
  -19.9100   31.2900   14.7020 C   0  0  0  0  0  0  0  0  0  0  0  0
  -19.7630   30.5530   15.8830 C   0  0  0  0  0  3  0  0  0  0  0  0
  -20.8560   30.3500   16.7270 C   0  0  0  0  0  3  0  0  0  0  0  0
  -22.1010   30.8820   16.3950 C   0  0  0  0  0  3  0  0  0  0  0  0
  -22.2550   31.6200   15.2220 C   0  0  0  0  0  3  0  0  0  0  0  0
  -21.1630   31.8260   14.3780 C   0  0  0  0  0  3  0  0  0  0  0  0
  -19.1690   26.7730   11.3640 C   0  0  0  0  0  0  0  0  0  0  0  0
  -17.8360   27.2030   11.5140 C   0  0  0  0  0  3  0  0  0  0  0  0
  -17.5190   28.4620   12.0350 C   0  0  0  0  0  3  0  0  0  0  0  0
  -18.5230   29.3460   12.4430 C   0  0  0  0  0  0  0  0  0  0  0  0
  -19.8500   28.9330   12.3320 C   0  0  0  0  0  3  0  0  0  0  0  0
  -20.1620   27.6710   11.8080 C   0  0  0  0  0  3  0  0  0  0  0  0
  -19.5290   25.3800   10.7180 C   0  0  2  0  0  0  0  0  0  0  0  0
  -19.2370   24.0730   11.5090 C   0  0  0  0  0  2  0  0  0  0  0  0
  -18.9740   23.3690   10.1320 C   0  0  1  0  0  0  0  0  0  0  0  0
  -18.5950   24.8010    9.6130 C   0  0  0  0  0  2  0  0  0  0  0  0
  -20.9430   25.4300   10.2730 N   0  0  0  0  0  4  0  0  0  0  0  0
  -21.1030   26.1580    9.5690 H   0  0  0  0  0  0  0  0  0  0  0  0
  -21.5830   25.6040   11.0560 H   0  0  0  0  0  0  0  0  0  0  0  0
  -21.2090   24.5180    9.8530 H   0  0  0  0  0  0  0  0  0  0  0  0
  -17.9190   22.2810   10.1480 C   0  0  0  0  0  3  0  0  0  0  0  0
  -18.2400   20.8140   10.0480 C   0  0  0  0  0  2  0  0  0  0  0  0
  -17.4570   21.4900    8.9550 C   0  0  0  0  0  2  0  0  0  0  0  0
  -20.2210   22.9230    9.5180 O   0  0  0  0  0  0  0  0  0  0  0  0
  -19.9490   22.2170    8.8950 H   0  0  0  0  0  0  0  0  0  0  0  0
  1  5  2  0  0  0  0
  2  1  1  0  0  0  0
  2  3  2  0  0  0  0
  3  4  1  0  0  0  0
  4  5  1  0  0  0  0
  4  6  1  0  0  0  0
  5 15  1  0  0  0  0
  7  6  1  0  0  0  0
  8  7  1  0  0  0  0
  9  8  1  0  0  0  0
 10  9  2  0  0  0  0
 11 12  2  0  0  0  0
 11 10  1  0  0  0  0
 12 14  1  0  0  0  0
 13 12  1  0  0  0  0
 14  3  1  0  0  0  0
 14  8  2  0  0  0  0
 15 16  1  0  0  0  0
 16 17  2  0  0  0  0
 18 17  1  0  0  0  0
 19 18  2  0  0  0  0
 20 15  2  0  0  0  0
 20 19  1  0  0  0  0
 21 22  2  0  0  0  0
 21 26  1  0  0  0  0
 22 23  1  0  0  0  0
 23 24  2  0  0  0  0
 24  1  1  0  0  0  0
 25 24  1  0  0  0  0
 26 25  2  0  0  0  0
 27 31  1  6  0  0  0
 27 21  1  0  0  0  0
 27 28  1  0  0  0  0
 29 38  1  6  0  0  0
 29 35  1  0  0  0  0
 29 28  1  0  0  0  0
 30 29  1  0  0  0  0
 30 27  1  0  0  0  0
 31 33  1  0  0  0  0
 32 31  1  0  0  0  0
 34 31  1  0  0  0  0
 36 35  1  0  0  0  0
 37 36  1  0  0  0  0
 37 35  1  0  0  0  0
 39 38  1  0  0  0  0
M  END
>  <minimizedAffinity>
-10.038516

$$$$
