
 OpenBabel11232420433D

 39 45  0  0  1  0  0  0  0  0999 V2000
  -18.1480   30.6820   12.8790 C   0  0  0  0  0  0  0  0  0  0  0  0
  -17.0300   31.3000   12.3590 N   0  0  0  0  0  0  0  0  0  0  0  0
  -16.9790   32.4860   12.9190 C   0  0  0  0  0  0  0  0  0  0  0  0
  -18.0120   32.6440   13.8010 N   0  0  0  0  0  0  0  0  0  0  0  0
  -18.7760   31.4980   13.8140 C   0  0  0  0  0  0  0  0  0  0  0  0
  -18.1010   33.8160   14.6510 C   0  0  0  0  0  2  0  0  0  0  0  0
  -17.5220   34.9920   14.0460 O   0  0  0  0  0  0  0  0  0  0  0  0
  -16.3710   34.8010   13.3210 C   0  0  0  0  0  0  0  0  0  0  0  0
  -15.5550   35.9170   13.1310 C   0  0  0  0  0  3  0  0  0  0  0  0
  -14.3870   35.8030   12.3740 C   0  0  0  0  0  3  0  0  0  0  0  0
  -14.0480   34.5770   11.8000 C   0  0  0  0  0  3  0  0  0  0  0  0
  -14.8790   33.4720   11.9760 C   0  0  0  0  0  0  0  0  0  0  0  0
  -14.5230   32.3120   11.4030 F   0  0  0  0  0  0  0  0  0  0  0  0
  -16.0460   33.5730   12.7300 C   0  0  0  0  0  0  0  0  0  0  0  0
  -19.9100   31.2900   14.7020 C   0  0  0  0  0  0  0  0  0  0  0  0
  -19.7630   30.5530   15.8830 C   0  0  0  0  0  3  0  0  0  0  0  0
  -20.8560   30.3500   16.7270 C   0  0  0  0  0  3  0  0  0  0  0  0
  -22.1010   30.8820   16.3950 C   0  0  0  0  0  3  0  0  0  0  0  0
  -22.2550   31.6200   15.2220 C   0  0  0  0  0  3  0  0  0  0  0  0
  -21.1630   31.8260   14.3780 C   0  0  0  0  0  3  0  0  0  0  0  0
  -19.1690   26.7730   11.3640 C   0  0  0  0  0  0  0  0  0  0  0  0
  -17.8360   27.2030   11.5140 C   0  0  0  0  0  3  0  0  0  0  0  0
  -17.5190   28.4620   12.0350 C   0  0  0  0  0  3  0  0  0  0  0  0
  -18.5230   29.3460   12.4430 C   0  0  0  0  0  0  0  0  0  0  0  0
  -19.8500   28.9330   12.3320 C   0  0  0  0  0  3  0  0  0  0  0  0
  -20.1620   27.6710   11.8080 C   0  0  0  0  0  3  0  0  0  0  0  0
  -19.5290   25.3800   10.7180 C   0  0  2  0  0  0  0  0  0  0  0  0
  -19.2370   24.0730   11.5090 C   0  0  0  0  0  2  0  0  0  0  0  0
  -18.9740   23.3690   10.1320 C   0  0  1  0  0  0  0  0  0  0  0  0
  -18.5950   24.8010    9.6130 C   0  0  0  0  0  2  0  0  0  0  0  0
  -20.9430   25.4300   10.2730 N   0  0  0  0  0  4  0  0  0  0  0  0
  -21.1030   26.1580    9.5690 H   0  0  0  0  0  0  0  0  0  0  0  0
  -21.5830   25.6040   11.0560 H   0  0  0  0  0  0  0  0  0  0  0  0
  -21.2090   24.5180    9.8530 H   0  0  0  0  0  0  0  0  0  0  0  0
  -17.9190   22.2810   10.1480 C   0  0  0  0  0  3  0  0  0  0  0  0
  -18.2400   20.8140   10.0480 C   0  0  0  0  0  2  0  0  0  0  0  0
  -17.4570   21.4900    8.9550 C   0  0  0  0  0  2  0  0  0  0  0  0
  -20.2210   22.9230    9.5180 O   0  0  0  0  0  0  0  0  0  0  0  0
  -19.9490   22.2170    8.8950 H   0  0  0  0  0  0  0  0  0  0  0  0
  1  5  2  0  0  0  0
  2  1  1  0  0  0  0
  2  3  2  0  0  0  0
  3  4  1  0  0  0  0
  4  5  1  0  0  0  0
  4  6  1  0  0  0  0
  5 15  1  0  0  0  0
  7  6  1  0  0  0  0
  8  7  1  0  0  0  0
  9  8  1  0  0  0  0
 10  9  2  0  0  0  0
 11 12  2  0  0  0  0
 11 10  1  0  0  0  0
 12 14  1  0  0  0  0
 13 12  1  0  0  0  0
 14  3  1  0  0  0  0
 14  8  2  0  0  0  0
 15 16  1  0  0  0  0
 16 17  2  0  0  0  0
 18 17  1  0  0  0  0
 19 18  2  0  0  0  0
 20 15  2  0  0  0  0
 20 19  1  0  0  0  0
 21 22  2  0  0  0  0
 21 26  1  0  0  0  0
 22 23  1  0  0  0  0
 23 24  2  0  0  0  0
 24  1  1  0  0  0  0
 25 24  1  0  0  0  0
 26 25  2  0  0  0  0
 27 31  1  6  0  0  0
 27 21  1  0  0  0  0
 27 28  1  0  0  0  0
 29 38  1  6  0  0  0
 29 35  1  0  0  0  0
 29 28  1  0  0  0  0
 30 29  1  0  0  0  0
 30 27  1  0  0  0  0
 31 33  1  0  0  0  0
 32 31  1  0  0  0  0
 34 31  1  0  0  0  0
 36 35  1  0  0  0  0
 37 36  1  0  0  0  0
 37 35  1  0  0  0  0
 39 38  1  0  0  0  0
M  END
>  <minimizedAffinity>
-10.038516

$$$$
