
 OpenBabel11232420433D

 39 45  0  0  1  0  0  0  0  0999 V2000
  -18.0620   22.9020    9.7300 C   0  0  0  0  0  0  0  0  0  0  0  0
  -17.1590   22.6560    8.7180 N   0  0  0  0  0  0  0  0  0  0  0  0
  -17.2190   21.3650    8.4860 C   0  0  0  0  0  0  0  0  0  0  0  0
  -18.1480   20.7750    9.2970 N   0  0  0  0  0  0  0  0  0  0  0  0
  -18.7230   21.7360   10.1000 C   0  0  0  0  0  0  0  0  0  0  0  0
  -18.5030   19.3780    9.1410 C   0  0  0  0  0  2  0  0  0  0  0  0
  -17.4110   18.5750    8.6430 O   0  0  0  0  0  0  0  0  0  0  0  0
  -16.6160   19.1550    7.6850 C   0  0  0  0  0  0  0  0  0  0  0  0
  -15.8820   18.2920    6.8700 C   0  0  0  0  0  3  0  0  0  0  0  0
  -15.0250   18.8140    5.8980 C   0  0  0  0  0  3  0  0  0  0  0  0
  -14.8970   20.1960    5.7540 C   0  0  0  0  0  3  0  0  0  0  0  0
  -15.6180   21.0520    6.5860 C   0  0  0  0  0  0  0  0  0  0  0  0
  -15.4630   22.3750    6.4220 F   0  0  0  0  0  0  0  0  0  0  0  0
  -16.4750   20.5430    7.5590 C   0  0  0  0  0  0  0  0  0  0  0  0
  -19.8120   21.4710   11.0290 C   0  0  0  0  0  0  0  0  0  0  0  0
  -19.7850   20.3390   11.8510 C   0  0  0  0  0  3  0  0  0  0  0  0
  -20.8360   20.0850   12.7340 C   0  0  0  0  0  3  0  0  0  0  0  0
  -21.9180   20.9620   12.7990 C   0  0  0  0  0  3  0  0  0  0  0  0
  -21.9510   22.0940   11.9860 C   0  0  0  0  0  3  0  0  0  0  0  0
  -20.8990   22.3490   11.1040 C   0  0  0  0  0  3  0  0  0  0  0  0
  -18.3350   26.9470   11.2100 C   0  0  0  0  0  0  0  0  0  0  0  0
  -18.3160   26.6420    9.8340 C   0  0  0  0  0  3  0  0  0  0  0  0
  -18.2570   25.3240    9.3690 C   0  0  0  0  0  3  0  0  0  0  0  0
  -18.2290   24.2470   10.2600 C   0  0  0  0  0  0  0  0  0  0  0  0
  -18.2760   24.5200   11.6270 C   0  0  0  0  0  3  0  0  0  0  0  0
  -18.3330   25.8420   12.0880 C   0  0  0  0  0  3  0  0  0  0  0  0
  -18.3360   28.4330   11.7360 C   0  0  2  0  0  0  0  0  0  0  0  0
  -17.2680   28.8750   12.7770 C   0  0  0  0  0  2  0  0  0  0  0  0
  -18.3370   29.8600   13.3670 C   0  0  1  0  0  0  0  0  0  0  0  0
  -19.3980   28.8540   12.7960 C   0  0  0  0  0  2  0  0  0  0  0  0
  -18.3420   29.3380   10.5610 N   0  0  0  0  0  4  0  0  0  0  0  0
  -19.1730   29.2080    9.9750 H   0  0  0  0  0  0  0  0  0  0  0  0
  -17.5150   29.2000    9.9690 H   0  0  0  0  0  0  0  0  0  0  0  0
  -18.3310   30.3270   10.8810 H   0  0  0  0  0  0  0  0  0  0  0  0
  -18.2590   30.0880   14.8630 C   0  0  0  0  0  3  0  0  0  0  0  0
  -18.2600   31.4540   15.4940 C   0  0  0  0  0  2  0  0  0  0  0  0
  -19.4010   30.5060   15.7480 C   0  0  0  0  0  2  0  0  0  0  0  0
  -18.3740   31.1130   12.6170 O   0  0  0  0  0  0  0  0  0  0  0  0
  -18.7710   31.7590   13.2380 H   0  0  0  0  0  0  0  0  0  0  0  0
  1  5  2  0  0  0  0
  1 24  1  0  0  0  0
  2  1  1  0  0  0  0
  3  2  2  0  0  0  0
  3  4  1  0  0  0  0
  4  5  1  0  0  0  0
  5 15  1  0  0  0  0
  6  4  1  0  0  0  0
  7  6  1  0  0  0  0
  8  7  1  0  0  0  0
  9  8  2  0  0  0  0
 10  9  1  0  0  0  0
 11 10  2  0  0  0  0
 11 12  1  0  0  0  0
 12 14  2  0  0  0  0
 13 12  1  0  0  0  0
 14  8  1  0  0  0  0
 14  3  1  0  0  0  0
 15 20  2  0  0  0  0
 15 16  1  0  0  0  0
 16 17  2  0  0  0  0
 17 18  1  0  0  0  0
 19 18  2  0  0  0  0
 20 19  1  0  0  0  0
 21 27  1  0  0  0  0
 21 26  1  0  0  0  0
 22 21  2  0  0  0  0
 23 22  1  0  0  0  0
 23 24  2  0  0  0  0
 24 25  1  0  0  0  0
 25 26  2  0  0  0  0
 27 31  1  6  0  0  0
 27 28  1  0  0  0  0
 27 30  1  0  0  0  0
 28 29  1  0  0  0  0
 29 38  1  6  0  0  0
 29 35  1  0  0  0  0
 30 29  1  0  0  0  0
 31 34  1  0  0  0  0
 32 31  1  0  0  0  0
 33 31  1  0  0  0  0
 35 36  1  0  0  0  0
 35 37  1  0  0  0  0
 36 37  1  0  0  0  0
 38 39  1  0  0  0  0
M  END
>  <minimizedAffinity>
-12.2467737

$$$$
