
 OpenBabel11232420383D

 36 40  0  0  1  0  0  0  0  0999 V2000
  -18.8430   27.7920   11.8630 C   0  0  0  0  0  0  0  0  0  0  0  0
  -20.0340   28.3160   12.3080 C   0  0  0  0  0  3  0  0  0  0  0  0
  -19.7310   29.5710   12.7780 N   0  0  0  0  0  0  0  0  0  0  0  0
  -18.3960   29.8030   12.5230 C   0  0  0  0  0  0  0  0  0  0  0  0
  -17.8380   28.7050   12.0590 N   0  0  0  0  0  0  0  0  0  0  0  0
  -19.1880   22.7770   12.0360 C   0  0  0  0  0  1  0  0  0  0  0  0
  -18.7610   24.0400   11.3490 C   0  0  0  0  0  0  0  0  0  0  0  0
  -18.9790   25.2950   11.9410 C   0  0  0  0  0  3  0  0  0  0  0  0
  -18.6220   26.4790   11.2750 C   0  0  0  0  0  0  0  0  0  0  0  0
  -18.0580   26.3900    9.9930 C   0  0  0  0  0  3  0  0  0  0  0  0
  -17.8470   25.1470    9.3920 C   0  0  0  0  0  3  0  0  0  0  0  0
  -18.2020   23.9870   10.0700 C   0  0  0  0  0  0  0  0  0  0  0  0
  -18.0070   22.8040    9.4740 F   0  0  0  0  0  0  0  0  0  0  0  0
  -17.6740   31.1080   12.7520 C   0  0  2  0  0  3  0  0  0  0  0  0
  -18.0560   32.1450   11.6850 C   0  0  0  0  0  2  0  0  0  0  0  0
  -17.3160   31.9300   10.3640 C   0  0  0  0  0  2  0  0  0  0  0  0
  -15.8790   31.8060   10.5840 N   0  0  0  0  0  0  0  0  0  0  0  0
  -15.4690   30.7360   11.4900 C   0  0  0  0  0  2  0  0  0  0  0  0
  -16.1490   30.9200   12.8500 C   0  0  0  0  0  2  0  0  0  0  0  0
  -15.1030   32.9610   10.5550 C   0  0  0  0  0  0  0  0  0  0  0  0
  -15.3790   33.9060   11.4790 N   0  0  0  0  0  0  0  0  0  0  0  0
  -14.6140   35.0060   11.4750 C   0  0  0  0  0  3  0  0  0  0  0  0
  -13.5990   35.2620   10.6470 N   0  0  0  0  0  0  0  0  0  0  0  0
  -13.3560   34.3360    9.7070 C   0  0  0  0  0  0  0  0  0  0  0  0
  -12.2860   34.6220    8.8750 N   0  0  0  0  0  0  0  0  0  0  0  0
  -14.0820   33.1520    9.6200 C   0  0  0  0  0  0  0  0  0  0  0  0
  -13.7440   31.9280    8.2000 Br  0  0  0  0  0  0  0  0  0  0  0  0
  -11.8670   35.5260    9.0500 H   0  0  0  0  0  0  0  0  0  0  0  0
  -12.3440   34.3100    7.9150 H   0  0  0  0  0  0  0  0  0  0  0  0
  -20.6920   30.4590   13.3940 C   0  0  0  0  0  2  0  0  0  0  0  0
  -20.9760   30.1770   14.8830 C   0  0  0  0  0  2  0  0  0  0  0  0
  -20.2300   30.8940   15.9570 N   0  0  0  0  0  4  0  0  0  0  0  0
  -18.8630   30.4160   16.2290 C   0  0  0  0  0  2  0  0  0  0  0  0
  -18.4560   31.8850   16.4230 C   0  0  0  0  0  2  0  0  0  0  0  0
  -19.7190   32.2300   15.6190 C   0  0  0  0  0  2  0  0  0  0  0  0
  -20.7870   30.9110   16.8260 H   0  0  0  0  0  0  0  0  0  0  0  0
  1  5  1  0  0  0  0
  1  2  2  0  0  0  0
  2  3  1  0  0  0  0
  3 30  1  0  0  0  0
  4  3  1  0  0  0  0
  5  4  2  0  0  0  0
  7  8  1  0  0  0  0
  7  6  1  0  0  0  0
  9  1  1  0  0  0  0
  9  8  2  0  0  0  0
 10  9  1  0  0  0  0
 11 10  2  0  0  0  0
 11 12  1  0  0  0  0
 12  7  2  0  0  0  0
 13 12  1  0  0  0  0
 14  4  1  6  0  0  0
 14 19  1  0  0  0  0
 15 14  1  0  0  0  0
 16 17  1  0  0  0  0
 16 15  1  0  0  0  0
 17 18  1  0  0  0  0
 18 19  1  0  0  0  0
 20 17  1  0  0  0  0
 20 21  1  0  0  0  0
 22 21  2  0  0  0  0
 23 22  1  0  0  0  0
 24 23  2  0  0  0  0
 25 28  1  0  0  0  0
 25 24  1  0  0  0  0
 26 24  1  0  0  0  0
 26 20  2  0  0  0  0
 27 26  1  0  0  0  0
 29 25  1  0  0  0  0
 30 31  1  0  0  0  0
 31 32  1  0  0  0  0
 32 33  1  0  0  0  0
 32 36  1  0  0  0  0
 33 34  1  0  0  0  0
 35 32  1  0  0  0  0
 35 34  1  0  0  0  0
M  END
>  <minimizedAffinity>
-8.28501987

$$$$
