
 OpenBabel11232420383D

 36 40  0  0  1  0  0  0  0  0999 V2000
  -18.9860   20.4570    9.9420 C   0  0  0  0  0  0  0  0  0  0  0  0
  -19.8490   19.7380   10.7360 C   0  0  0  0  0  3  0  0  0  0  0  0
  -20.3260   20.6310   11.6650 N   0  0  0  0  0  0  0  0  0  0  0  0
  -19.8140   21.8730   11.3540 C   0  0  0  0  0  0  0  0  0  0  0  0
  -18.9380   21.7570   10.3790 N   0  0  0  0  0  0  0  0  0  0  0  0
  -16.8480   21.1560    5.4440 C   0  0  0  0  0  1  0  0  0  0  0  0
  -17.1860   20.2820    6.6150 C   0  0  0  0  0  0  0  0  0  0  0  0
  -17.9400   20.7750    7.6920 C   0  0  0  0  0  3  0  0  0  0  0  0
  -18.2140   19.9690    8.8100 C   0  0  0  0  0  0  0  0  0  0  0  0
  -17.7050   18.6620    8.8420 C   0  0  0  0  0  3  0  0  0  0  0  0
  -16.9460   18.1660    7.7800 C   0  0  0  0  0  3  0  0  0  0  0  0
  -16.6910   18.9780    6.6810 C   0  0  0  0  0  0  0  0  0  0  0  0
  -15.9490   18.4930    5.6770 F   0  0  0  0  0  0  0  0  0  0  0  0
  -20.1850   23.1680   12.0320 C   0  0  2  0  0  3  0  0  0  0  0  0
  -20.7730   24.1700   11.0270 C   0  0  0  0  0  2  0  0  0  0  0  0
  -19.6950   24.8740   10.2000 C   0  0  0  0  0  2  0  0  0  0  0  0
  -18.6590   25.4340   11.0600 N   0  0  0  0  0  0  0  0  0  0  0  0
  -17.9810   24.4820   11.9350 C   0  0  0  0  0  2  0  0  0  0  0  0
  -19.0080   23.7700   12.8210 C   0  0  0  0  0  2  0  0  0  0  0  0
  -18.8170   26.7380   11.5240 C   0  0  0  0  0  0  0  0  0  0  0  0
  -20.0380   27.0770   11.9880 N   0  0  0  0  0  0  0  0  0  0  0  0
  -20.1860   28.3210   12.4640 C   0  0  0  0  0  3  0  0  0  0  0  0
  -19.2410   29.2620   12.5280 N   0  0  0  0  0  0  0  0  0  0  0  0
  -18.0420   28.9300   12.0290 C   0  0  0  0  0  0  0  0  0  0  0  0
  -17.0790   29.9210   12.1270 N   0  0  0  0  0  0  0  0  0  0  0  0
  -17.7710   27.6650   11.5150 C   0  0  0  0  0  0  0  0  0  0  0  0
  -16.0730   27.2960   10.7360 Br  0  0  0  0  0  0  0  0  0  0  0  0
  -17.4280   30.7900   12.5080 H   0  0  0  0  0  0  0  0  0  0  0  0
  -16.3890   29.9760   11.3890 H   0  0  0  0  0  0  0  0  0  0  0  0
  -21.2280   20.2780   12.7390 C   0  0  0  0  0  2  0  0  0  0  0  0
  -21.0980   18.8290   13.2490 C   0  0  0  0  0  2  0  0  0  0  0  0
  -21.9060   18.3450   14.4050 N   0  0  0  0  0  4  0  0  0  0  0  0
  -21.1550   18.0090   15.6280 C   0  0  0  0  0  2  0  0  0  0  0  0
  -22.3110   18.6250   16.4310 C   0  0  0  0  0  2  0  0  0  0  0  0
  -22.6790   19.3610   15.1340 C   0  0  0  0  0  2  0  0  0  0  0  0
  -22.5010   17.5530   14.1160 H   0  0  0  0  0  0  0  0  0  0  0  0
  1  5  1  0  0  0  0
  1  2  2  0  0  0  0
  2  3  1  0  0  0  0
  3 30  1  0  0  0  0
  4  3  1  0  0  0  0
  5  4  2  0  0  0  0
  6  7  1  0  0  0  0
  7 12  2  0  0  0  0
  7  8  1  0  0  0  0
  8  9  2  0  0  0  0
  9 10  1  0  0  0  0
  9  1  1  0  0  0  0
 11 10  2  0  0  0  0
 12 11  1  0  0  0  0
 13 12  1  0  0  0  0
 14  4  1  6  0  0  0
 14 19  1  0  0  0  0
 15 14  1  0  0  0  0
 16 15  1  0  0  0  0
 16 17  1  0  0  0  0
 17 20  1  0  0  0  0
 17 18  1  0  0  0  0
 18 19  1  0  0  0  0
 20 21  1  0  0  0  0
 21 22  2  0  0  0  0
 22 23  1  0  0  0  0
 24 25  1  0  0  0  0
 24 23  2  0  0  0  0
 25 28  1  0  0  0  0
 26 20  2  0  0  0  0
 26 24  1  0  0  0  0
 27 26  1  0  0  0  0
 29 25  1  0  0  0  0
 30 31  1  0  0  0  0
 31 32  1  0  0  0  0
 32 35  1  0  0  0  0
 32 33  1  0  0  0  0
 33 34  1  0  0  0  0
 35 34  1  0  0  0  0
 36 32  1  0  0  0  0
M  END
>  <minimizedAffinity>
-9.96735859

$$$$
