
 OpenBabel11232420383D

 36 40  0  0  1  0  0  0  0  0999 V2000
  -19.3060   28.1700   11.2750 C   0  0  0  0  0  0  0  0  0  0  0  0
  -18.9620   29.1010   10.3230 C   0  0  0  0  0  3  0  0  0  0  0  0
  -19.5790   30.2660   10.7080 N   0  0  0  0  0  0  0  0  0  0  0  0
  -20.1980   30.0330   11.9180 C   0  0  0  0  0  0  0  0  0  0  0  0
  -20.1150   28.7540   12.2170 N   0  0  0  0  0  0  0  0  0  0  0  0
  -16.5270   24.3220    9.6130 C   0  0  0  0  0  1  0  0  0  0  0  0
  -17.5840   24.8830   10.5170 C   0  0  0  0  0  0  0  0  0  0  0  0
  -17.9540   26.2360   10.4440 C   0  0  0  0  0  3  0  0  0  0  0  0
  -18.9100   26.7710   11.3240 C   0  0  0  0  0  0  0  0  0  0  0  0
  -19.4800   25.9320   12.2940 C   0  0  0  0  0  3  0  0  0  0  0  0
  -19.1110   24.5880   12.3800 C   0  0  0  0  0  3  0  0  0  0  0  0
  -18.1670   24.0770   11.4970 C   0  0  0  0  0  0  0  0  0  0  0  0
  -17.8130   22.7900   11.6010 F   0  0  0  0  0  0  0  0  0  0  0  0
  -20.8810   31.0760   12.7680 C   0  0  2  0  0  3  0  0  0  0  0  0
  -20.0790   32.3860   12.7850 C   0  0  0  0  0  2  0  0  0  0  0  0
  -18.8890   32.3350   13.7450 C   0  0  0  0  0  2  0  0  0  0  0  0
  -19.3020   31.8750   15.0660 N   0  0  0  0  0  0  0  0  0  0  0  0
  -19.9470   30.5650   15.1060 C   0  0  0  0  0  2  0  0  0  0  0  0
  -21.1750   30.5650   14.1910 C   0  0  0  0  0  2  0  0  0  0  0  0
  -19.7090   32.8240   16.0000 C   0  0  0  0  0  0  0  0  0  0  0  0
  -20.9720   32.7200   16.4670 N   0  0  0  0  0  0  0  0  0  0  0  0
  -21.3570   33.6120   17.3900 C   0  0  0  0  0  3  0  0  0  0  0  0
  -20.6130   34.5970   17.8990 N   0  0  0  0  0  0  0  0  0  0  0  0
  -19.3740   34.7170   17.4010 C   0  0  0  0  0  0  0  0  0  0  0  0
  -18.6210   35.7360   17.9620 N   0  0  0  0  0  0  0  0  0  0  0  0
  -18.8640   33.8440   16.4450 C   0  0  0  0  0  0  0  0  0  0  0  0
  -17.1280   34.1360   15.7160 Br  0  0  0  0  0  0  0  0  0  0  0  0
  -19.1320   36.2960   18.6320 H   0  0  0  0  0  0  0  0  0  0  0  0
  -17.9580   36.2110   17.3640 H   0  0  0  0  0  0  0  0  0  0  0  0
  -19.5280   31.4980    9.9520 C   0  0  0  0  0  2  0  0  0  0  0  0
  -18.2730   32.3600   10.1950 C   0  0  0  0  0  2  0  0  0  0  0  0
  -16.9220   31.8860    9.7800 N   0  0  0  0  0  4  0  0  0  0  0  0
  -15.9740   32.9270    9.3430 C   0  0  0  0  0  2  0  0  0  0  0  0
  -14.8720   32.1370   10.0650 C   0  0  0  0  0  2  0  0  0  0  0  0
  -16.0110   31.4800   10.8590 C   0  0  0  0  0  2  0  0  0  0  0  0
  -17.0080   31.1510    9.0610 H   0  0  0  0  0  0  0  0  0  0  0  0
  1  9  1  0  0  0  0
  1  5  1  0  0  0  0
  2  3  1  0  0  0  0
  2  1  2  0  0  0  0
  3  4  1  0  0  0  0
  4  5  2  0  0  0  0
  6  7  1  0  0  0  0
  7 12  1  0  0  0  0
  8  7  2  0  0  0  0
  8  9  1  0  0  0  0
  9 10  2  0  0  0  0
 10 11  1  0  0  0  0
 12 13  1  0  0  0  0
 12 11  2  0  0  0  0
 14  4  1  6  0  0  0
 14 15  1  0  0  0  0
 14 19  1  0  0  0  0
 15 16  1  0  0  0  0
 16 17  1  0  0  0  0
 17 18  1  0  0  0  0
 17 20  1  0  0  0  0
 19 18  1  0  0  0  0
 20 26  2  0  0  0  0
 20 21  1  0  0  0  0
 21 22  2  0  0  0  0
 22 23  1  0  0  0  0
 24 23  2  0  0  0  0
 24 25  1  0  0  0  0
 25 28  1  0  0  0  0
 26 24  1  0  0  0  0
 27 26  1  0  0  0  0
 29 25  1  0  0  0  0
 30 31  1  0  0  0  0
 30  3  1  0  0  0  0
 32 31  1  0  0  0  0
 32 35  1  0  0  0  0
 33 32  1  0  0  0  0
 33 34  1  0  0  0  0
 34 35  1  0  0  0  0
 36 32  1  0  0  0  0
M  END
>  <minimizedAffinity>
-8.04139042

$$$$
