
 OpenBabel11232420383D

 36 40  0  0  1  0  0  0  0  0999 V2000
  -19.8740   20.3380   10.9980 C   0  0  0  0  0  0  0  0  0  0  0  0
  -18.9770   20.1390    9.9740 C   0  0  0  0  0  3  0  0  0  0  0  0
  -18.9120   21.3360    9.3040 N   0  0  0  0  0  0  0  0  0  0  0  0
  -19.6940   22.2430    9.9880 C   0  0  0  0  0  0  0  0  0  0  0  0
  -20.3460   21.6260   10.9500 N   0  0  0  0  0  0  0  0  0  0  0  0
  -22.4520   19.1460   15.1480 C   0  0  0  0  0  1  0  0  0  0  0  0
  -21.5290   18.7760   14.0250 C   0  0  0  0  0  0  0  0  0  0  0  0
  -21.1260   19.7310   13.0770 C   0  0  0  0  0  3  0  0  0  0  0  0
  -20.3000   19.3710   11.9980 C   0  0  0  0  0  0  0  0  0  0  0  0
  -19.8970   18.0340   11.8720 C   0  0  0  0  0  3  0  0  0  0  0  0
  -20.3010   17.0760   12.8050 C   0  0  0  0  0  3  0  0  0  0  0  0
  -21.1140   17.4530   13.8670 C   0  0  0  0  0  0  0  0  0  0  0  0
  -21.5050   16.5200   14.7450 F   0  0  0  0  0  0  0  0  0  0  0  0
  -19.8020   23.7150    9.6770 C   0  0  2  0  0  3  0  0  0  0  0  0
  -18.4130   24.3430    9.4830 C   0  0  0  0  0  2  0  0  0  0  0  0
  -17.7120   24.6410   10.8090 C   0  0  0  0  0  2  0  0  0  0  0  0
  -18.5840   25.3930   11.7050 N   0  0  0  0  0  0  0  0  0  0  0  0
  -19.8610   24.7600   12.0230 C   0  0  0  0  0  2  0  0  0  0  0  0
  -20.6320   24.4720   10.7310 C   0  0  0  0  0  2  0  0  0  0  0  0
  -18.5480   26.7840   11.6480 C   0  0  0  0  0  0  0  0  0  0  0  0
  -19.6780   27.4390   11.9920 N   0  0  0  0  0  0  0  0  0  0  0  0
  -19.6390   28.7780   11.9690 C   0  0  0  0  0  3  0  0  0  0  0  0
  -18.5880   29.5340   11.6430 N   0  0  0  0  0  0  0  0  0  0  0  0
  -17.4820   28.8760   11.2650 C   0  0  0  0  0  0  0  0  0  0  0  0
  -16.4050   29.6880   10.9500 N   0  0  0  0  0  0  0  0  0  0  0  0
  -17.4050   27.4870   11.2560 C   0  0  0  0  0  0  0  0  0  0  0  0
  -15.8340   26.6220   10.6160 Br  0  0  0  0  0  0  0  0  0  0  0  0
  -16.6170   30.6760   10.9870 H   0  0  0  0  0  0  0  0  0  0  0  0
  -15.7780   29.3710   10.2230 H   0  0  0  0  0  0  0  0  0  0  0  0
  -18.1210   21.5560    8.1130 C   0  0  0  0  0  2  0  0  0  0  0  0
  -17.8440   20.2930    7.2730 C   0  0  0  0  0  2  0  0  0  0  0  0
  -17.0160   20.3580    6.0350 N   0  0  0  0  0  4  0  0  0  0  0  0
  -16.1200   21.5220    5.9130 C   0  0  0  0  0  2  0  0  0  0  0  0
  -15.0790   20.5760    5.2960 C   0  0  0  0  0  2  0  0  0  0  0  0
  -15.8690   19.4420    5.9660 C   0  0  0  0  0  2  0  0  0  0  0  0
  -17.6170   20.2750    5.2000 H   0  0  0  0  0  0  0  0  0  0  0  0
  1  9  1  0  0  0  0
  2  1  2  0  0  0  0
  3  2  1  0  0  0  0
  3  4  1  0  0  0  0
  4  5  2  0  0  0  0
  5  1  1  0  0  0  0
  7  6  1  0  0  0  0
  8  7  2  0  0  0  0
  9  8  1  0  0  0  0
 10  9  2  0  0  0  0
 10 11  1  0  0  0  0
 11 12  2  0  0  0  0
 12  7  1  0  0  0  0
 12 13  1  0  0  0  0
 14  4  1  1  0  0  0
 14 19  1  0  0  0  0
 15 14  1  0  0  0  0
 15 16  1  0  0  0  0
 16 17  1  0  0  0  0
 17 18  1  0  0  0  0
 19 18  1  0  0  0  0
 20 17  1  0  0  0  0
 20 21  1  0  0  0  0
 22 21  2  0  0  0  0
 23 22  1  0  0  0  0
 24 23  2  0  0  0  0
 25 28  1  0  0  0  0
 25 24  1  0  0  0  0
 26 24  1  0  0  0  0
 26 20  2  0  0  0  0
 27 26  1  0  0  0  0
 29 25  1  0  0  0  0
 30  3  1  0  0  0  0
 31 30  1  0  0  0  0
 32 31  1  0  0  0  0
 33 32  1  0  0  0  0
 34 33  1  0  0  0  0
 34 35  1  0  0  0  0
 35 32  1  0  0  0  0
 36 32  1  0  0  0  0
M  END
>  <minimizedAffinity>
-9.48796844

$$$$
