
 OpenBabel11232420383D

 36 40  0  0  1  0  0  0  0  0999 V2000
  -19.7080   19.2720   10.8780 C   0  0  0  0  0  0  0  0  0  0  0  0
  -19.3420   18.7610    9.6550 C   0  0  0  0  0  3  0  0  0  0  0  0
  -18.5440   19.7190    9.0790 N   0  0  0  0  0  0  0  0  0  0  0  0
  -18.3770   20.7330    9.9980 C   0  0  0  0  0  0  0  0  0  0  0  0
  -19.1470   20.5140   11.0420 N   0  0  0  0  0  0  0  0  0  0  0  0
  -22.7380   19.5560   14.8820 C   0  0  0  0  0  1  0  0  0  0  0  0
  -22.0180   18.7590   13.8360 C   0  0  0  0  0  0  0  0  0  0  0  0
  -21.1950   19.3880   12.8870 C   0  0  0  0  0  3  0  0  0  0  0  0
  -20.5590   18.6450   11.8780 C   0  0  0  0  0  0  0  0  0  0  0  0
  -20.7730   17.2590   11.8220 C   0  0  0  0  0  3  0  0  0  0  0  0
  -21.5970   16.6270   12.7560 C   0  0  0  0  0  3  0  0  0  0  0  0
  -22.2130   17.3800   13.7490 C   0  0  0  0  0  0  0  0  0  0  0  0
  -23.0110   16.7610   14.6280 F   0  0  0  0  0  0  0  0  0  0  0  0
  -17.4650   21.9230    9.8330 C   0  0  2  0  0  3  0  0  0  0  0  0
  -16.9650   22.4290   11.1950 C   0  0  0  0  0  2  0  0  0  0  0  0
  -18.0040   23.2850   11.9210 C   0  0  0  0  0  2  0  0  0  0  0  0
  -18.5180   24.3360   11.0490 N   0  0  0  0  0  0  0  0  0  0  0  0
  -19.1270   23.8810    9.8020 C   0  0  0  0  0  2  0  0  0  0  0  0
  -18.1170   23.0470    9.0070 C   0  0  0  0  0  2  0  0  0  0  0  0
  -17.8640   25.5650   11.0380 C   0  0  0  0  0  0  0  0  0  0  0  0
  -16.5520   25.5560   10.7150 N   0  0  0  0  0  0  0  0  0  0  0  0
  -15.9270   26.7400   10.6720 C   0  0  0  0  0  3  0  0  0  0  0  0
  -16.4730   27.9340   10.9140 N   0  0  0  0  0  0  0  0  0  0  0  0
  -17.7650   27.9310   11.2720 C   0  0  0  0  0  0  0  0  0  0  0  0
  -18.3070   29.1850   11.4990 N   0  0  0  0  0  0  0  0  0  0  0  0
  -18.5170   26.7620   11.3430 C   0  0  0  0  0  0  0  0  0  0  0  0
  -20.3210   26.8240   11.9520 Br  0  0  0  0  0  0  0  0  0  0  0  0
  -17.6350   29.9370   11.4240 H   0  0  0  0  0  0  0  0  0  0  0  0
  -19.0210   29.2640   12.2100 H   0  0  0  0  0  0  0  0  0  0  0  0
  -17.9820   19.6140    7.7500 C   0  0  0  0  0  2  0  0  0  0  0  0
  -16.4960   19.2070    7.7030 C   0  0  0  0  0  2  0  0  0  0  0  0
  -15.4800   20.0810    7.0470 N   0  0  0  0  0  4  0  0  0  0  0  0
  -14.9980   19.6390    5.7260 C   0  0  0  0  0  2  0  0  0  0  0  0
  -15.0020   21.1160    5.3010 C   0  0  0  0  0  2  0  0  0  0  0  0
  -15.9750   21.3390    6.4690 C   0  0  0  0  0  2  0  0  0  0  0  0
  -14.6870   20.2440    7.6860 H   0  0  0  0  0  0  0  0  0  0  0  0
  1  5  1  0  0  0  0
  1  9  1  0  0  0  0
  2  1  2  0  0  0  0
  3  2  1  0  0  0  0
  3  4  1  0  0  0  0
  4  5  2  0  0  0  0
  7  6  1  0  0  0  0
  8  7  2  0  0  0  0
  9  8  1  0  0  0  0
 10  9  2  0  0  0  0
 10 11  1  0  0  0  0
 11 12  2  0  0  0  0
 12  7  1  0  0  0  0
 12 13  1  0  0  0  0
 14  4  1  1  0  0  0
 14 15  1  0  0  0  0
 15 16  1  0  0  0  0
 17 16  1  0  0  0  0
 18 17  1  0  0  0  0
 19 18  1  0  0  0  0
 19 14  1  0  0  0  0
 20 17  1  0  0  0  0
 20 26  1  0  0  0  0
 21 20  2  0  0  0  0
 22 21  1  0  0  0  0
 22 23  2  0  0  0  0
 23 24  1  0  0  0  0
 24 26  2  0  0  0  0
 24 25  1  0  0  0  0
 25 29  1  0  0  0  0
 26 27  1  0  0  0  0
 28 25  1  0  0  0  0
 30  3  1  0  0  0  0
 31 30  1  0  0  0  0
 32 36  1  0  0  0  0
 32 31  1  0  0  0  0
 33 32  1  0  0  0  0
 34 33  1  0  0  0  0
 34 35  1  0  0  0  0
 35 32  1  0  0  0  0
M  END
>  <minimizedAffinity>
-10.790679

$$$$

 OpenBabel11232420383D

 36 40  0  0  1  0  0  0  0  0999 V2000
  -18.9860   20.4570    9.9420 C   0  0  0  0  0  0  0  0  0  0  0  0
  -19.8490   19.7380   10.7360 C   0  0  0  0  0  3  0  0  0  0  0  0
  -20.3260   20.6310   11.6650 N   0  0  0  0  0  0  0  0  0  0  0  0
  -19.8140   21.8730   11.3540 C   0  0  0  0  0  0  0  0  0  0  0  0
  -18.9380   21.7570   10.3790 N   0  0  0  0  0  0  0  0  0  0  0  0
  -16.8480   21.1560    5.4440 C   0  0  0  0  0  1  0  0  0  0  0  0
  -17.1860   20.2820    6.6150 C   0  0  0  0  0  0  0  0  0  0  0  0
  -17.9400   20.7750    7.6920 C   0  0  0  0  0  3  0  0  0  0  0  0
  -18.2140   19.9690    8.8100 C   0  0  0  0  0  0  0  0  0  0  0  0
  -17.7050   18.6620    8.8420 C   0  0  0  0  0  3  0  0  0  0  0  0
  -16.9460   18.1660    7.7800 C   0  0  0  0  0  3  0  0  0  0  0  0
  -16.6910   18.9780    6.6810 C   0  0  0  0  0  0  0  0  0  0  0  0
  -15.9490   18.4930    5.6770 F   0  0  0  0  0  0  0  0  0  0  0  0
  -20.1850   23.1680   12.0320 C   0  0  2  0  0  3  0  0  0  0  0  0
  -20.7730   24.1700   11.0270 C   0  0  0  0  0  2  0  0  0  0  0  0
  -19.6950   24.8740   10.2000 C   0  0  0  0  0  2  0  0  0  0  0  0
  -18.6590   25.4340   11.0600 N   0  0  0  0  0  0  0  0  0  0  0  0
  -17.9810   24.4820   11.9350 C   0  0  0  0  0  2  0  0  0  0  0  0
  -19.0080   23.7700   12.8210 C   0  0  0  0  0  2  0  0  0  0  0  0
  -18.8170   26.7380   11.5240 C   0  0  0  0  0  0  0  0  0  0  0  0
  -20.0380   27.0770   11.9880 N   0  0  0  0  0  0  0  0  0  0  0  0
  -20.1860   28.3210   12.4640 C   0  0  0  0  0  3  0  0  0  0  0  0
  -19.2410   29.2620   12.5280 N   0  0  0  0  0  0  0  0  0  0  0  0
  -18.0420   28.9300   12.0290 C   0  0  0  0  0  0  0  0  0  0  0  0
  -17.0790   29.9210   12.1270 N   0  0  0  0  0  0  0  0  0  0  0  0
  -17.7710   27.6650   11.5150 C   0  0  0  0  0  0  0  0  0  0  0  0
  -16.0730   27.2960   10.7360 Br  0  0  0  0  0  0  0  0  0  0  0  0
  -17.4280   30.7900   12.5080 H   0  0  0  0  0  0  0  0  0  0  0  0
  -16.3890   29.9760   11.3890 H   0  0  0  0  0  0  0  0  0  0  0  0
  -21.2280   20.2780   12.7390 C   0  0  0  0  0  2  0  0  0  0  0  0
  -21.0980   18.8290   13.2490 C   0  0  0  0  0  2  0  0  0  0  0  0
  -21.9060   18.3450   14.4050 N   0  0  0  0  0  4  0  0  0  0  0  0
  -21.1550   18.0090   15.6280 C   0  0  0  0  0  2  0  0  0  0  0  0
  -22.3110   18.6250   16.4310 C   0  0  0  0  0  2  0  0  0  0  0  0
  -22.6790   19.3610   15.1340 C   0  0  0  0  0  2  0  0  0  0  0  0
  -22.5010   17.5530   14.1160 H   0  0  0  0  0  0  0  0  0  0  0  0
  1  5  1  0  0  0  0
  1  2  2  0  0  0  0
  2  3  1  0  0  0  0
  3 30  1  0  0  0  0
  4  3  1  0  0  0  0
  5  4  2  0  0  0  0
  6  7  1  0  0  0  0
  7 12  2  0  0  0  0
  7  8  1  0  0  0  0
  8  9  2  0  0  0  0
  9 10  1  0  0  0  0
  9  1  1  0  0  0  0
 11 10  2  0  0  0  0
 12 11  1  0  0  0  0
 13 12  1  0  0  0  0
 14  4  1  6  0  0  0
 14 19  1  0  0  0  0
 15 14  1  0  0  0  0
 16 15  1  0  0  0  0
 16 17  1  0  0  0  0
 17 20  1  0  0  0  0
 17 18  1  0  0  0  0
 18 19  1  0  0  0  0
 20 21  1  0  0  0  0
 21 22  2  0  0  0  0
 22 23  1  0  0  0  0
 24 25  1  0  0  0  0
 24 23  2  0  0  0  0
 25 28  1  0  0  0  0
 26 20  2  0  0  0  0
 26 24  1  0  0  0  0
 27 26  1  0  0  0  0
 29 25  1  0  0  0  0
 30 31  1  0  0  0  0
 31 32  1  0  0  0  0
 32 35  1  0  0  0  0
 32 33  1  0  0  0  0
 33 34  1  0  0  0  0
 35 34  1  0  0  0  0
 36 32  1  0  0  0  0
M  END
>  <minimizedAffinity>
-9.96735859

$$$$

 OpenBabel11232420383D

 36 40  0  0  1  0  0  0  0  0999 V2000
  -19.8740   20.3380   10.9980 C   0  0  0  0  0  0  0  0  0  0  0  0
  -18.9770   20.1390    9.9740 C   0  0  0  0  0  3  0  0  0  0  0  0
  -18.9120   21.3360    9.3040 N   0  0  0  0  0  0  0  0  0  0  0  0
  -19.6940   22.2430    9.9880 C   0  0  0  0  0  0  0  0  0  0  0  0
  -20.3460   21.6260   10.9500 N   0  0  0  0  0  0  0  0  0  0  0  0
  -22.4520   19.1460   15.1480 C   0  0  0  0  0  1  0  0  0  0  0  0
  -21.5290   18.7760   14.0250 C   0  0  0  0  0  0  0  0  0  0  0  0
  -21.1260   19.7310   13.0770 C   0  0  0  0  0  3  0  0  0  0  0  0
  -20.3000   19.3710   11.9980 C   0  0  0  0  0  0  0  0  0  0  0  0
  -19.8970   18.0340   11.8720 C   0  0  0  0  0  3  0  0  0  0  0  0
  -20.3010   17.0760   12.8050 C   0  0  0  0  0  3  0  0  0  0  0  0
  -21.1140   17.4530   13.8670 C   0  0  0  0  0  0  0  0  0  0  0  0
  -21.5050   16.5200   14.7450 F   0  0  0  0  0  0  0  0  0  0  0  0
  -19.8020   23.7150    9.6770 C   0  0  2  0  0  3  0  0  0  0  0  0
  -18.4130   24.3430    9.4830 C   0  0  0  0  0  2  0  0  0  0  0  0
  -17.7120   24.6410   10.8090 C   0  0  0  0  0  2  0  0  0  0  0  0
  -18.5840   25.3930   11.7050 N   0  0  0  0  0  0  0  0  0  0  0  0
  -19.8610   24.7600   12.0230 C   0  0  0  0  0  2  0  0  0  0  0  0
  -20.6320   24.4720   10.7310 C   0  0  0  0  0  2  0  0  0  0  0  0
  -18.5480   26.7840   11.6480 C   0  0  0  0  0  0  0  0  0  0  0  0
  -19.6780   27.4390   11.9920 N   0  0  0  0  0  0  0  0  0  0  0  0
  -19.6390   28.7780   11.9690 C   0  0  0  0  0  3  0  0  0  0  0  0
  -18.5880   29.5340   11.6430 N   0  0  0  0  0  0  0  0  0  0  0  0
  -17.4820   28.8760   11.2650 C   0  0  0  0  0  0  0  0  0  0  0  0
  -16.4050   29.6880   10.9500 N   0  0  0  0  0  0  0  0  0  0  0  0
  -17.4050   27.4870   11.2560 C   0  0  0  0  0  0  0  0  0  0  0  0
  -15.8340   26.6220   10.6160 Br  0  0  0  0  0  0  0  0  0  0  0  0
  -16.6170   30.6760   10.9870 H   0  0  0  0  0  0  0  0  0  0  0  0
  -15.7780   29.3710   10.2230 H   0  0  0  0  0  0  0  0  0  0  0  0
  -18.1210   21.5560    8.1130 C   0  0  0  0  0  2  0  0  0  0  0  0
  -17.8440   20.2930    7.2730 C   0  0  0  0  0  2  0  0  0  0  0  0
  -17.0160   20.3580    6.0350 N   0  0  0  0  0  4  0  0  0  0  0  0
  -16.1200   21.5220    5.9130 C   0  0  0  0  0  2  0  0  0  0  0  0
  -15.0790   20.5760    5.2960 C   0  0  0  0  0  2  0  0  0  0  0  0
  -15.8690   19.4420    5.9660 C   0  0  0  0  0  2  0  0  0  0  0  0
  -17.6170   20.2750    5.2000 H   0  0  0  0  0  0  0  0  0  0  0  0
  1  9  1  0  0  0  0
  2  1  2  0  0  0  0
  3  2  1  0  0  0  0
  3  4  1  0  0  0  0
  4  5  2  0  0  0  0
  5  1  1  0  0  0  0
  7  6  1  0  0  0  0
  8  7  2  0  0  0  0
  9  8  1  0  0  0  0
 10  9  2  0  0  0  0
 10 11  1  0  0  0  0
 11 12  2  0  0  0  0
 12  7  1  0  0  0  0
 12 13  1  0  0  0  0
 14  4  1  1  0  0  0
 14 19  1  0  0  0  0
 15 14  1  0  0  0  0
 15 16  1  0  0  0  0
 16 17  1  0  0  0  0
 17 18  1  0  0  0  0
 19 18  1  0  0  0  0
 20 17  1  0  0  0  0
 20 21  1  0  0  0  0
 22 21  2  0  0  0  0
 23 22  1  0  0  0  0
 24 23  2  0  0  0  0
 25 28  1  0  0  0  0
 25 24  1  0  0  0  0
 26 24  1  0  0  0  0
 26 20  2  0  0  0  0
 27 26  1  0  0  0  0
 29 25  1  0  0  0  0
 30  3  1  0  0  0  0
 31 30  1  0  0  0  0
 32 31  1  0  0  0  0
 33 32  1  0  0  0  0
 34 33  1  0  0  0  0
 34 35  1  0  0  0  0
 35 32  1  0  0  0  0
 36 32  1  0  0  0  0
M  END
>  <minimizedAffinity>
-9.48796844

$$$$

 OpenBabel11232420383D

 36 40  0  0  1  0  0  0  0  0999 V2000
  -19.7580   21.8400   10.9200 C   0  0  0  0  0  0  0  0  0  0  0  0
  -18.7180   21.3670   10.1530 C   0  0  0  0  0  3  0  0  0  0  0  0
  -18.2450   22.4570    9.4630 N   0  0  0  0  0  0  0  0  0  0  0  0
  -18.9450   23.5630    9.8950 C   0  0  0  0  0  0  0  0  0  0  0  0
  -19.9150   23.1850   10.7010 N   0  0  0  0  0  0  0  0  0  0  0  0
  -20.5930   17.8040   13.8030 C   0  0  0  0  0  1  0  0  0  0  0  0
  -21.0320   19.1160   13.2230 C   0  0  0  0  0  0  0  0  0  0  0  0
  -20.2050   19.8270   12.3380 C   0  0  0  0  0  3  0  0  0  0  0  0
  -20.5970   21.0790   11.8330 C   0  0  0  0  0  0  0  0  0  0  0  0
  -21.8260   21.6180   12.2430 C   0  0  0  0  0  3  0  0  0  0  0  0
  -22.6490   20.9220   13.1310 C   0  0  0  0  0  3  0  0  0  0  0  0
  -22.2450   19.6840   13.6140 C   0  0  0  0  0  0  0  0  0  0  0  0
  -23.0400   19.0350   14.4760 F   0  0  0  0  0  0  0  0  0  0  0  0
  -18.6580   24.9900    9.5000 C   0  0  2  0  0  3  0  0  0  0  0  0
  -17.1840   25.3470    9.7460 C   0  0  0  0  0  2  0  0  0  0  0  0
  -16.8920   25.6600   11.2150 C   0  0  0  0  0  2  0  0  0  0  0  0
  -17.8360   26.6430   11.7370 N   0  0  0  0  0  0  0  0  0  0  0  0
  -19.2470   26.2750   11.6440 C   0  0  0  0  0  2  0  0  0  0  0  0
  -19.6120   25.9860   10.1850 C   0  0  0  0  0  2  0  0  0  0  0  0
  -17.5120   27.9930   11.6320 C   0  0  0  0  0  0  0  0  0  0  0  0
  -16.2570   28.2910   11.2330 N   0  0  0  0  0  0  0  0  0  0  0  0
  -15.9510   29.5880   11.1000 C   0  0  0  0  0  3  0  0  0  0  0  0
  -16.7670   30.6220   11.3210 N   0  0  0  0  0  0  0  0  0  0  0  0
  -17.9990   30.3180   11.7550 C   0  0  0  0  0  0  0  0  0  0  0  0
  -18.8260   31.4100   11.9580 N   0  0  0  0  0  0  0  0  0  0  0  0
  -18.4300   29.0060   11.9230 C   0  0  0  0  0  0  0  0  0  0  0  0
  -20.1620   28.6540   12.6340 Br  0  0  0  0  0  0  0  0  0  0  0  0
  -18.3680   32.3000   11.8100 H   0  0  0  0  0  0  0  0  0  0  0  0
  -19.5030   31.3510   12.7060 H   0  0  0  0  0  0  0  0  0  0  0  0
  -17.1780   22.3970    8.4880 C   0  0  0  0  0  2  0  0  0  0  0  0
  -17.3680   21.3440    7.3780 C   0  0  0  0  0  2  0  0  0  0  0  0
  -16.6990   20.0140    7.4570 N   0  0  0  0  0  4  0  0  0  0  0  0
  -17.0630   19.0400    6.4120 C   0  0  0  0  0  2  0  0  0  0  0  0
  -15.5890   18.6050    6.3940 C   0  0  0  0  0  2  0  0  0  0  0  0
  -15.2900   19.9660    7.0410 C   0  0  0  0  0  2  0  0  0  0  0  0
  -16.8300   19.6050    8.3950 H   0  0  0  0  0  0  0  0  0  0  0  0
  1  9  1  0  0  0  0
  2  1  2  0  0  0  0
  3  4  1  0  0  0  0
  3  2  1  0  0  0  0
  4  5  2  0  0  0  0
  5  1  1  0  0  0  0
  7 12  1  0  0  0  0
  7  6  1  0  0  0  0
  8  7  2  0  0  0  0
  9 10  2  0  0  0  0
  9  8  1  0  0  0  0
 10 11  1  0  0  0  0
 11 12  2  0  0  0  0
 12 13  1  0  0  0  0
 14 15  1  0  0  0  0
 14  4  1  1  0  0  0
 14 19  1  0  0  0  0
 15 16  1  0  0  0  0
 16 17  1  0  0  0  0
 18 17  1  0  0  0  0
 19 18  1  0  0  0  0
 20 17  1  0  0  0  0
 20 26  1  0  0  0  0
 21 20  2  0  0  0  0
 22 21  1  0  0  0  0
 22 23  2  0  0  0  0
 23 24  1  0  0  0  0
 24 26  2  0  0  0  0
 24 25  1  0  0  0  0
 25 29  1  0  0  0  0
 26 27  1  0  0  0  0
 28 25  1  0  0  0  0
 30  3  1  0  0  0  0
 31 32  1  0  0  0  0
 31 30  1  0  0  0  0
 32 36  1  0  0  0  0
 33 32  1  0  0  0  0
 34 33  1  0  0  0  0
 34 35  1  0  0  0  0
 35 32  1  0  0  0  0
M  END
>  <minimizedAffinity>
-8.7614069

$$$$

 OpenBabel11232420383D

 36 40  0  0  1  0  0  0  0  0999 V2000
  -17.9790   22.0480    9.1620 C   0  0  0  0  0  0  0  0  0  0  0  0
  -19.3100   22.2200    9.4650 C   0  0  0  0  0  3  0  0  0  0  0  0
  -19.3420   23.1700   10.4570 N   0  0  0  0  0  0  0  0  0  0  0  0
  -18.0500   23.6080   10.6600 C   0  0  0  0  0  0  0  0  0  0  0  0
  -17.2180   22.8740    9.9520 N   0  0  0  0  0  0  0  0  0  0  0  0
  -15.2560   21.2090    5.0180 C   0  0  0  0  0  1  0  0  0  0  0  0
  -16.1060   20.7170    6.1520 C   0  0  0  0  0  0  0  0  0  0  0  0
  -16.6520   21.6120    7.0870 C   0  0  0  0  0  3  0  0  0  0  0  0
  -17.4080   21.1440    8.1760 C   0  0  0  0  0  0  0  0  0  0  0  0
  -17.5950   19.7620    8.3250 C   0  0  0  0  0  3  0  0  0  0  0  0
  -17.0470   18.8650    7.4050 C   0  0  0  0  0  3  0  0  0  0  0  0
  -16.3070   19.3480    6.3330 C   0  0  0  0  0  0  0  0  0  0  0  0
  -15.7760   18.4740    5.4680 F   0  0  0  0  0  0  0  0  0  0  0  0
  -17.6430   24.7450   11.5640 C   0  0  2  0  0  3  0  0  0  0  0  0
  -18.8450   25.6400   11.9030 C   0  0  0  0  0  2  0  0  0  0  0  0
  -19.1880   26.6150   10.7760 C   0  0  0  0  0  2  0  0  0  0  0  0
  -18.0050   27.3500   10.3420 N   0  0  0  0  0  0  0  0  0  0  0  0
  -16.8860   26.5320    9.8810 C   0  0  0  0  0  2  0  0  0  0  0  0
  -16.4690   25.5560   10.9860 C   0  0  0  0  0  2  0  0  0  0  0  0
  -17.7060   28.5560   10.9720 C   0  0  0  0  0  0  0  0  0  0  0  0
  -16.6300   28.5690   11.7870 N   0  0  0  0  0  0  0  0  0  0  0  0
  -16.3210   29.7350   12.3710 C   0  0  0  0  0  3  0  0  0  0  0  0
  -16.9720   30.8920   12.2230 N   0  0  0  0  0  0  0  0  0  0  0  0
  -18.0610   30.8600   11.4430 C   0  0  0  0  0  0  0  0  0  0  0  0
  -18.7030   32.0790   11.2960 N   0  0  0  0  0  0  0  0  0  0  0  0
  -18.4740   29.7080   10.7810 C   0  0  0  0  0  0  0  0  0  0  0  0
  -20.0860   29.7160    9.7660 Br  0  0  0  0  0  0  0  0  0  0  0  0
  -18.2970   32.8210   11.8500 H   0  0  0  0  0  0  0  0  0  0  0  0
  -19.7090   32.0680   11.1930 H   0  0  0  0  0  0  0  0  0  0  0  0
  -20.5510   23.6150   11.1140 C   0  0  0  0  0  2  0  0  0  0  0  0
  -21.5970   22.5110   11.3680 C   0  0  0  0  0  2  0  0  0  0  0  0
  -21.4990   21.6190   12.5590 N   0  0  0  0  0  4  0  0  0  0  0  0
  -22.7540   20.9810   12.9980 C   0  0  0  0  0  2  0  0  0  0  0  0
  -21.9320   19.7180   13.2980 C   0  0  0  0  0  2  0  0  0  0  0  0
  -20.8810   20.3030   12.3420 C   0  0  0  0  0  2  0  0  0  0  0  0
  -21.0540   22.1200   13.3440 H   0  0  0  0  0  0  0  0  0  0  0  0
  1  2  2  0  0  0  0
  1  5  1  0  0  0  0
  2  3  1  0  0  0  0
  3  4  1  0  0  0  0
  3 30  1  0  0  0  0
  5  4  2  0  0  0  0
  6  7  1  0  0  0  0
  7 12  2  0  0  0  0
  7  8  1  0  0  0  0
  8  9  2  0  0  0  0
  9 10  1  0  0  0  0
  9  1  1  0  0  0  0
 11 10  2  0  0  0  0
 12 11  1  0  0  0  0
 13 12  1  0  0  0  0
 14  4  1  6  0  0  0
 14 15  1  0  0  0  0
 16 15  1  0  0  0  0
 17 16  1  0  0  0  0
 17 20  1  0  0  0  0
 18 17  1  0  0  0  0
 18 19  1  0  0  0  0
 19 14  1  0  0  0  0
 20 21  1  0  0  0  0
 21 22  2  0  0  0  0
 23 22  1  0  0  0  0
 24 23  2  0  0  0  0
 25 24  1  0  0  0  0
 25 28  1  0  0  0  0
 26 20  2  0  0  0  0
 26 24  1  0  0  0  0
 27 26  1  0  0  0  0
 29 25  1  0  0  0  0
 30 31  1  0  0  0  0
 31 32  1  0  0  0  0
 32 33  1  0  0  0  0
 32 36  1  0  0  0  0
 33 34  1  0  0  0  0
 35 32  1  0  0  0  0
 35 34  1  0  0  0  0
M  END
>  <minimizedAffinity>
-8.66295624

$$$$

 OpenBabel11232420383D

 36 40  0  0  1  0  0  0  0  0999 V2000
  -17.4650   27.8560   11.3340 C   0  0  0  0  0  0  0  0  0  0  0  0
  -16.1990   28.3860   11.2500 C   0  0  0  0  0  3  0  0  0  0  0  0
  -16.3120   29.6820   11.6910 N   0  0  0  0  0  0  0  0  0  0  0  0
  -17.6120   29.8700   12.1110 C   0  0  0  0  0  0  0  0  0  0  0  0
  -18.3300   28.8070   11.8130 N   0  0  0  0  0  0  0  0  0  0  0  0
  -19.3900   23.3760   12.5660 C   0  0  0  0  0  1  0  0  0  0  0  0
  -18.7970   24.3170   11.5610 C   0  0  0  0  0  0  0  0  0  0  0  0
  -18.3940   25.6110   11.9310 C   0  0  0  0  0  3  0  0  0  0  0  0
  -17.8830   26.5080   10.9780 C   0  0  0  0  0  0  0  0  0  0  0  0
  -17.7990   26.0970    9.6390 C   0  0  0  0  0  3  0  0  0  0  0  0
  -18.2070   24.8160    9.2600 C   0  0  0  0  0  3  0  0  0  0  0  0
  -18.7040   23.9420   10.2190 C   0  0  0  0  0  0  0  0  0  0  0  0
  -19.1050   22.7220    9.8370 F   0  0  0  0  0  0  0  0  0  0  0  0
  -18.1410   31.1060   12.7940 C   0  0  2  0  0  3  0  0  0  0  0  0
  -17.6670   31.1760   14.2540 C   0  0  0  0  0  2  0  0  0  0  0  0
  -18.4820   30.2740   15.1820 C   0  0  0  0  0  2  0  0  0  0  0  0
  -19.9130   30.5040   15.0110 N   0  0  0  0  0  0  0  0  0  0  0  0
  -20.4260   30.3110   13.6570 C   0  0  0  0  0  2  0  0  0  0  0  0
  -19.6730   31.2210   12.6830 C   0  0  0  0  0  2  0  0  0  0  0  0
  -20.5270   31.4700   15.8030 C   0  0  0  0  0  0  0  0  0  0  0  0
  -19.8210   32.5940   16.0540 N   0  0  0  0  0  0  0  0  0  0  0  0
  -20.4200   33.5390   16.7900 C   0  0  0  0  0  3  0  0  0  0  0  0
  -21.6530   33.4840   17.3000 N   0  0  0  0  0  0  0  0  0  0  0  0
  -22.3330   32.3500   17.0790 C   0  0  0  0  0  0  0  0  0  0  0  0
  -23.6140   32.3300   17.6040 N   0  0  0  0  0  0  0  0  0  0  0  0
  -21.8130   31.3030   16.3230 C   0  0  0  0  0  0  0  0  0  0  0  0
  -22.7980   29.6830   16.1320 Br  0  0  0  0  0  0  0  0  0  0  0  0
  -23.8450   33.1550   18.1420 H   0  0  0  0  0  0  0  0  0  0  0  0
  -23.9710   31.4430   17.9330 H   0  0  0  0  0  0  0  0  0  0  0  0
  -15.2180   30.6270   11.7150 C   0  0  0  0  0  2  0  0  0  0  0  0
  -15.0020   31.4080   10.4040 C   0  0  0  0  0  2  0  0  0  0  0  0
  -15.5940   32.7620   10.2080 N   0  0  0  0  0  4  0  0  0  0  0  0
  -16.9980   32.8010    9.7610 C   0  0  0  0  0  2  0  0  0  0  0  0
  -17.1970   34.0040   10.6970 C   0  0  0  0  0  2  0  0  0  0  0  0
  -15.9390   33.5070   11.4270 C   0  0  0  0  0  2  0  0  0  0  0  0
  -14.9990   33.3230    9.5790 H   0  0  0  0  0  0  0  0  0  0  0  0
  1  5  1  0  0  0  0
  2  1  2  0  0  0  0
  2  3  1  0  0  0  0
  3 30  1  0  0  0  0
  3  4  1  0  0  0  0
  5  4  2  0  0  0  0
  7  8  1  0  0  0  0
  7  6  1  0  0  0  0
  9  1  1  0  0  0  0
  9  8  2  0  0  0  0
 10  9  1  0  0  0  0
 11 10  2  0  0  0  0
 11 12  1  0  0  0  0
 12  7  2  0  0  0  0
 13 12  1  0  0  0  0
 14  4  1  1  0  0  0
 14 15  1  0  0  0  0
 15 16  1  0  0  0  0
 17 16  1  0  0  0  0
 17 20  1  0  0  0  0
 18 17  1  0  0  0  0
 19 14  1  0  0  0  0
 19 18  1  0  0  0  0
 20 21  2  0  0  0  0
 20 26  1  0  0  0  0
 21 22  1  0  0  0  0
 22 23  2  0  0  0  0
 24 23  1  0  0  0  0
 24 25  1  0  0  0  0
 25 29  1  0  0  0  0
 25 28  1  0  0  0  0
 26 24  2  0  0  0  0
 27 26  1  0  0  0  0
 31 30  1  0  0  0  0
 32 31  1  0  0  0  0
 32 35  1  0  0  0  0
 33 32  1  0  0  0  0
 33 34  1  0  0  0  0
 34 35  1  0  0  0  0
 36 32  1  0  0  0  0
M  END
>  <minimizedAffinity>
-8.50810432

$$$$

 OpenBabel11232420383D

 36 40  0  0  1  0  0  0  0  0999 V2000
  -18.8430   27.7920   11.8630 C   0  0  0  0  0  0  0  0  0  0  0  0
  -20.0340   28.3160   12.3080 C   0  0  0  0  0  3  0  0  0  0  0  0
  -19.7310   29.5710   12.7780 N   0  0  0  0  0  0  0  0  0  0  0  0
  -18.3960   29.8030   12.5230 C   0  0  0  0  0  0  0  0  0  0  0  0
  -17.8380   28.7050   12.0590 N   0  0  0  0  0  0  0  0  0  0  0  0
  -19.1880   22.7770   12.0360 C   0  0  0  0  0  1  0  0  0  0  0  0
  -18.7610   24.0400   11.3490 C   0  0  0  0  0  0  0  0  0  0  0  0
  -18.9790   25.2950   11.9410 C   0  0  0  0  0  3  0  0  0  0  0  0
  -18.6220   26.4790   11.2750 C   0  0  0  0  0  0  0  0  0  0  0  0
  -18.0580   26.3900    9.9930 C   0  0  0  0  0  3  0  0  0  0  0  0
  -17.8470   25.1470    9.3920 C   0  0  0  0  0  3  0  0  0  0  0  0
  -18.2020   23.9870   10.0700 C   0  0  0  0  0  0  0  0  0  0  0  0
  -18.0070   22.8040    9.4740 F   0  0  0  0  0  0  0  0  0  0  0  0
  -17.6740   31.1080   12.7520 C   0  0  2  0  0  3  0  0  0  0  0  0
  -18.0560   32.1450   11.6850 C   0  0  0  0  0  2  0  0  0  0  0  0
  -17.3160   31.9300   10.3640 C   0  0  0  0  0  2  0  0  0  0  0  0
  -15.8790   31.8060   10.5840 N   0  0  0  0  0  0  0  0  0  0  0  0
  -15.4690   30.7360   11.4900 C   0  0  0  0  0  2  0  0  0  0  0  0
  -16.1490   30.9200   12.8500 C   0  0  0  0  0  2  0  0  0  0  0  0
  -15.1030   32.9610   10.5550 C   0  0  0  0  0  0  0  0  0  0  0  0
  -15.3790   33.9060   11.4790 N   0  0  0  0  0  0  0  0  0  0  0  0
  -14.6140   35.0060   11.4750 C   0  0  0  0  0  3  0  0  0  0  0  0
  -13.5990   35.2620   10.6470 N   0  0  0  0  0  0  0  0  0  0  0  0
  -13.3560   34.3360    9.7070 C   0  0  0  0  0  0  0  0  0  0  0  0
  -12.2860   34.6220    8.8750 N   0  0  0  0  0  0  0  0  0  0  0  0
  -14.0820   33.1520    9.6200 C   0  0  0  0  0  0  0  0  0  0  0  0
  -13.7440   31.9280    8.2000 Br  0  0  0  0  0  0  0  0  0  0  0  0
  -11.8670   35.5260    9.0500 H   0  0  0  0  0  0  0  0  0  0  0  0
  -12.3440   34.3100    7.9150 H   0  0  0  0  0  0  0  0  0  0  0  0
  -20.6920   30.4590   13.3940 C   0  0  0  0  0  2  0  0  0  0  0  0
  -20.9760   30.1770   14.8830 C   0  0  0  0  0  2  0  0  0  0  0  0
  -20.2300   30.8940   15.9570 N   0  0  0  0  0  4  0  0  0  0  0  0
  -18.8630   30.4160   16.2290 C   0  0  0  0  0  2  0  0  0  0  0  0
  -18.4560   31.8850   16.4230 C   0  0  0  0  0  2  0  0  0  0  0  0
  -19.7190   32.2300   15.6190 C   0  0  0  0  0  2  0  0  0  0  0  0
  -20.7870   30.9110   16.8260 H   0  0  0  0  0  0  0  0  0  0  0  0
  1  5  1  0  0  0  0
  1  2  2  0  0  0  0
  2  3  1  0  0  0  0
  3 30  1  0  0  0  0
  4  3  1  0  0  0  0
  5  4  2  0  0  0  0
  7  8  1  0  0  0  0
  7  6  1  0  0  0  0
  9  1  1  0  0  0  0
  9  8  2  0  0  0  0
 10  9  1  0  0  0  0
 11 10  2  0  0  0  0
 11 12  1  0  0  0  0
 12  7  2  0  0  0  0
 13 12  1  0  0  0  0
 14  4  1  6  0  0  0
 14 19  1  0  0  0  0
 15 14  1  0  0  0  0
 16 17  1  0  0  0  0
 16 15  1  0  0  0  0
 17 18  1  0  0  0  0
 18 19  1  0  0  0  0
 20 17  1  0  0  0  0
 20 21  1  0  0  0  0
 22 21  2  0  0  0  0
 23 22  1  0  0  0  0
 24 23  2  0  0  0  0
 25 28  1  0  0  0  0
 25 24  1  0  0  0  0
 26 24  1  0  0  0  0
 26 20  2  0  0  0  0
 27 26  1  0  0  0  0
 29 25  1  0  0  0  0
 30 31  1  0  0  0  0
 31 32  1  0  0  0  0
 32 33  1  0  0  0  0
 32 36  1  0  0  0  0
 33 34  1  0  0  0  0
 35 32  1  0  0  0  0
 35 34  1  0  0  0  0
M  END
>  <minimizedAffinity>
-8.28501987

$$$$

 OpenBabel11232420383D

 36 40  0  0  1  0  0  0  0  0999 V2000
  -19.3060   28.1700   11.2750 C   0  0  0  0  0  0  0  0  0  0  0  0
  -18.9620   29.1010   10.3230 C   0  0  0  0  0  3  0  0  0  0  0  0
  -19.5790   30.2660   10.7080 N   0  0  0  0  0  0  0  0  0  0  0  0
  -20.1980   30.0330   11.9180 C   0  0  0  0  0  0  0  0  0  0  0  0
  -20.1150   28.7540   12.2170 N   0  0  0  0  0  0  0  0  0  0  0  0
  -16.5270   24.3220    9.6130 C   0  0  0  0  0  1  0  0  0  0  0  0
  -17.5840   24.8830   10.5170 C   0  0  0  0  0  0  0  0  0  0  0  0
  -17.9540   26.2360   10.4440 C   0  0  0  0  0  3  0  0  0  0  0  0
  -18.9100   26.7710   11.3240 C   0  0  0  0  0  0  0  0  0  0  0  0
  -19.4800   25.9320   12.2940 C   0  0  0  0  0  3  0  0  0  0  0  0
  -19.1110   24.5880   12.3800 C   0  0  0  0  0  3  0  0  0  0  0  0
  -18.1670   24.0770   11.4970 C   0  0  0  0  0  0  0  0  0  0  0  0
  -17.8130   22.7900   11.6010 F   0  0  0  0  0  0  0  0  0  0  0  0
  -20.8810   31.0760   12.7680 C   0  0  2  0  0  3  0  0  0  0  0  0
  -20.0790   32.3860   12.7850 C   0  0  0  0  0  2  0  0  0  0  0  0
  -18.8890   32.3350   13.7450 C   0  0  0  0  0  2  0  0  0  0  0  0
  -19.3020   31.8750   15.0660 N   0  0  0  0  0  0  0  0  0  0  0  0
  -19.9470   30.5650   15.1060 C   0  0  0  0  0  2  0  0  0  0  0  0
  -21.1750   30.5650   14.1910 C   0  0  0  0  0  2  0  0  0  0  0  0
  -19.7090   32.8240   16.0000 C   0  0  0  0  0  0  0  0  0  0  0  0
  -20.9720   32.7200   16.4670 N   0  0  0  0  0  0  0  0  0  0  0  0
  -21.3570   33.6120   17.3900 C   0  0  0  0  0  3  0  0  0  0  0  0
  -20.6130   34.5970   17.8990 N   0  0  0  0  0  0  0  0  0  0  0  0
  -19.3740   34.7170   17.4010 C   0  0  0  0  0  0  0  0  0  0  0  0
  -18.6210   35.7360   17.9620 N   0  0  0  0  0  0  0  0  0  0  0  0
  -18.8640   33.8440   16.4450 C   0  0  0  0  0  0  0  0  0  0  0  0
  -17.1280   34.1360   15.7160 Br  0  0  0  0  0  0  0  0  0  0  0  0
  -19.1320   36.2960   18.6320 H   0  0  0  0  0  0  0  0  0  0  0  0
  -17.9580   36.2110   17.3640 H   0  0  0  0  0  0  0  0  0  0  0  0
  -19.5280   31.4980    9.9520 C   0  0  0  0  0  2  0  0  0  0  0  0
  -18.2730   32.3600   10.1950 C   0  0  0  0  0  2  0  0  0  0  0  0
  -16.9220   31.8860    9.7800 N   0  0  0  0  0  4  0  0  0  0  0  0
  -15.9740   32.9270    9.3430 C   0  0  0  0  0  2  0  0  0  0  0  0
  -14.8720   32.1370   10.0650 C   0  0  0  0  0  2  0  0  0  0  0  0
  -16.0110   31.4800   10.8590 C   0  0  0  0  0  2  0  0  0  0  0  0
  -17.0080   31.1510    9.0610 H   0  0  0  0  0  0  0  0  0  0  0  0
  1  9  1  0  0  0  0
  1  5  1  0  0  0  0
  2  3  1  0  0  0  0
  2  1  2  0  0  0  0
  3  4  1  0  0  0  0
  4  5  2  0  0  0  0
  6  7  1  0  0  0  0
  7 12  1  0  0  0  0
  8  7  2  0  0  0  0
  8  9  1  0  0  0  0
  9 10  2  0  0  0  0
 10 11  1  0  0  0  0
 12 13  1  0  0  0  0
 12 11  2  0  0  0  0
 14  4  1  6  0  0  0
 14 15  1  0  0  0  0
 14 19  1  0  0  0  0
 15 16  1  0  0  0  0
 16 17  1  0  0  0  0
 17 18  1  0  0  0  0
 17 20  1  0  0  0  0
 19 18  1  0  0  0  0
 20 26  2  0  0  0  0
 20 21  1  0  0  0  0
 21 22  2  0  0  0  0
 22 23  1  0  0  0  0
 24 23  2  0  0  0  0
 24 25  1  0  0  0  0
 25 28  1  0  0  0  0
 26 24  1  0  0  0  0
 27 26  1  0  0  0  0
 29 25  1  0  0  0  0
 30 31  1  0  0  0  0
 30  3  1  0  0  0  0
 32 31  1  0  0  0  0
 32 35  1  0  0  0  0
 33 32  1  0  0  0  0
 33 34  1  0  0  0  0
 34 35  1  0  0  0  0
 36 32  1  0  0  0  0
M  END
>  <minimizedAffinity>
-8.04139042

$$$$

 OpenBabel11232420383D

 36 40  0  0  1  0  0  0  0  0999 V2000
  -21.0770   21.6140   12.1420 C   0  0  0  0  0  0  0  0  0  0  0  0
  -21.5230   22.9150   12.1000 C   0  0  0  0  0  3  0  0  0  0  0  0
  -20.7940   23.5220   11.1080 N   0  0  0  0  0  0  0  0  0  0  0  0
  -19.9990   22.5600   10.5210 C   0  0  0  0  0  0  0  0  0  0  0  0
  -20.0970   21.4350   11.1980 N   0  0  0  0  0  0  0  0  0  0  0  0
  -20.4940   17.0780   14.2340 C   0  0  0  0  0  1  0  0  0  0  0  0
  -21.2750   18.3440   14.0420 C   0  0  0  0  0  0  0  0  0  0  0  0
  -20.8210   19.3490   13.1720 C   0  0  0  0  0  3  0  0  0  0  0  0
  -21.5290   20.5540   13.0300 C   0  0  0  0  0  0  0  0  0  0  0  0
  -22.6940   20.7470   13.7870 C   0  0  0  0  0  3  0  0  0  0  0  0
  -23.1480   19.7570   14.6620 C   0  0  0  0  0  3  0  0  0  0  0  0
  -22.4360   18.5700   14.7840 C   0  0  0  0  0  0  0  0  0  0  0  0
  -22.8760   17.6360   15.6380 F   0  0  0  0  0  0  0  0  0  0  0  0
  -19.1360   22.7610    9.3010 C   0  0  2  0  0  3  0  0  0  0  0  0
  -19.5220   21.7790    8.1840 C   0  0  0  0  0  2  0  0  0  0  0  0
  -18.9420   20.3810    8.4040 C   0  0  0  0  0  2  0  0  0  0  0  0
  -17.5090   20.4440    8.6700 N   0  0  0  0  0  0  0  0  0  0  0  0
  -17.1150   21.2620    9.8140 C   0  0  0  0  0  2  0  0  0  0  0  0
  -17.6340   22.6910    9.6320 C   0  0  0  0  0  2  0  0  0  0  0  0
  -16.6320   20.3780    7.5900 C   0  0  0  0  0  0  0  0  0  0  0  0
  -16.2590   21.5500    7.0330 N   0  0  0  0  0  0  0  0  0  0  0  0
  -15.3900   21.4920    6.0140 C   0  0  0  0  0  3  0  0  0  0  0  0
  -14.8520   20.3860    5.4940 N   0  0  0  0  0  0  0  0  0  0  0  0
  -15.2580   19.2250    6.0270 C   0  0  0  0  0  0  0  0  0  0  0  0
  -14.6690   18.0980    5.4780 N   0  0  0  0  0  0  0  0  0  0  0  0
  -16.1510   19.1630    7.0930 C   0  0  0  0  0  0  0  0  0  0  0  0
  -16.7560   17.4750    7.7340 Br  0  0  0  0  0  0  0  0  0  0  0  0
  -14.0530   18.2990    4.7010 H   0  0  0  0  0  0  0  0  0  0  0  0
  -15.2270   17.2560    5.4270 H   0  0  0  0  0  0  0  0  0  0  0  0
  -20.9040   24.9230   10.7630 C   0  0  0  0  0  2  0  0  0  0  0  0
  -20.4070   25.9010   11.8460 C   0  0  0  0  0  2  0  0  0  0  0  0
  -19.0830   26.5760   11.7230 N   0  0  0  0  0  4  0  0  0  0  0  0
  -17.9180   25.6930   11.5360 C   0  0  0  0  0  2  0  0  0  0  0  0
  -17.3610   26.7410   10.5590 C   0  0  0  0  0  2  0  0  0  0  0  0
  -18.8070   27.2470   10.4450 C   0  0  0  0  0  2  0  0  0  0  0  0
  -18.9320   27.2100   12.5230 H   0  0  0  0  0  0  0  0  0  0  0  0
  1  9  1  0  0  0  0
  2  1  2  0  0  0  0
  3  2  1  0  0  0  0
  4  3  1  0  0  0  0
  4  5  2  0  0  0  0
  5  1  1  0  0  0  0
  7  6  1  0  0  0  0
  7 12  1  0  0  0  0
  8  7  2  0  0  0  0
  9  8  1  0  0  0  0
  9 10  2  0  0  0  0
 10 11  1  0  0  0  0
 11 12  2  0  0  0  0
 12 13  1  0  0  0  0
 14 19  1  0  0  0  0
 14  4  1  1  0  0  0
 15 16  1  0  0  0  0
 15 14  1  0  0  0  0
 16 17  1  0  0  0  0
 17 18  1  0  0  0  0
 19 18  1  0  0  0  0
 20 17  1  0  0  0  0
 21 20  2  0  0  0  0
 22 21  1  0  0  0  0
 23 22  2  0  0  0  0
 23 24  1  0  0  0  0
 24 26  2  0  0  0  0
 25 24  1  0  0  0  0
 26 20  1  0  0  0  0
 26 27  1  0  0  0  0
 28 25  1  0  0  0  0
 29 25  1  0  0  0  0
 30  3  1  0  0  0  0
 30 31  1  0  0  0  0
 32 31  1  0  0  0  0
 32 36  1  0  0  0  0
 33 32  1  0  0  0  0
 34 33  1  0  0  0  0
 35 34  1  0  0  0  0
 35 32  1  0  0  0  0
M  END
>  <minimizedAffinity>
-8.01483822

$$$$
