
 OpenBabel11232420383D

 36 40  0  0  1  0  0  0  0  0999 V2000
  -17.9790   22.0480    9.1620 C   0  0  0  0  0  0  0  0  0  0  0  0
  -19.3100   22.2200    9.4650 C   0  0  0  0  0  3  0  0  0  0  0  0
  -19.3420   23.1700   10.4570 N   0  0  0  0  0  0  0  0  0  0  0  0
  -18.0500   23.6080   10.6600 C   0  0  0  0  0  0  0  0  0  0  0  0
  -17.2180   22.8740    9.9520 N   0  0  0  0  0  0  0  0  0  0  0  0
  -15.2560   21.2090    5.0180 C   0  0  0  0  0  1  0  0  0  0  0  0
  -16.1060   20.7170    6.1520 C   0  0  0  0  0  0  0  0  0  0  0  0
  -16.6520   21.6120    7.0870 C   0  0  0  0  0  3  0  0  0  0  0  0
  -17.4080   21.1440    8.1760 C   0  0  0  0  0  0  0  0  0  0  0  0
  -17.5950   19.7620    8.3250 C   0  0  0  0  0  3  0  0  0  0  0  0
  -17.0470   18.8650    7.4050 C   0  0  0  0  0  3  0  0  0  0  0  0
  -16.3070   19.3480    6.3330 C   0  0  0  0  0  0  0  0  0  0  0  0
  -15.7760   18.4740    5.4680 F   0  0  0  0  0  0  0  0  0  0  0  0
  -17.6430   24.7450   11.5640 C   0  0  2  0  0  3  0  0  0  0  0  0
  -18.8450   25.6400   11.9030 C   0  0  0  0  0  2  0  0  0  0  0  0
  -19.1880   26.6150   10.7760 C   0  0  0  0  0  2  0  0  0  0  0  0
  -18.0050   27.3500   10.3420 N   0  0  0  0  0  0  0  0  0  0  0  0
  -16.8860   26.5320    9.8810 C   0  0  0  0  0  2  0  0  0  0  0  0
  -16.4690   25.5560   10.9860 C   0  0  0  0  0  2  0  0  0  0  0  0
  -17.7060   28.5560   10.9720 C   0  0  0  0  0  0  0  0  0  0  0  0
  -16.6300   28.5690   11.7870 N   0  0  0  0  0  0  0  0  0  0  0  0
  -16.3210   29.7350   12.3710 C   0  0  0  0  0  3  0  0  0  0  0  0
  -16.9720   30.8920   12.2230 N   0  0  0  0  0  0  0  0  0  0  0  0
  -18.0610   30.8600   11.4430 C   0  0  0  0  0  0  0  0  0  0  0  0
  -18.7030   32.0790   11.2960 N   0  0  0  0  0  0  0  0  0  0  0  0
  -18.4740   29.7080   10.7810 C   0  0  0  0  0  0  0  0  0  0  0  0
  -20.0860   29.7160    9.7660 Br  0  0  0  0  0  0  0  0  0  0  0  0
  -18.2970   32.8210   11.8500 H   0  0  0  0  0  0  0  0  0  0  0  0
  -19.7090   32.0680   11.1930 H   0  0  0  0  0  0  0  0  0  0  0  0
  -20.5510   23.6150   11.1140 C   0  0  0  0  0  2  0  0  0  0  0  0
  -21.5970   22.5110   11.3680 C   0  0  0  0  0  2  0  0  0  0  0  0
  -21.4990   21.6190   12.5590 N   0  0  0  0  0  4  0  0  0  0  0  0
  -22.7540   20.9810   12.9980 C   0  0  0  0  0  2  0  0  0  0  0  0
  -21.9320   19.7180   13.2980 C   0  0  0  0  0  2  0  0  0  0  0  0
  -20.8810   20.3030   12.3420 C   0  0  0  0  0  2  0  0  0  0  0  0
  -21.0540   22.1200   13.3440 H   0  0  0  0  0  0  0  0  0  0  0  0
  1  2  2  0  0  0  0
  1  5  1  0  0  0  0
  2  3  1  0  0  0  0
  3  4  1  0  0  0  0
  3 30  1  0  0  0  0
  5  4  2  0  0  0  0
  6  7  1  0  0  0  0
  7 12  2  0  0  0  0
  7  8  1  0  0  0  0
  8  9  2  0  0  0  0
  9 10  1  0  0  0  0
  9  1  1  0  0  0  0
 11 10  2  0  0  0  0
 12 11  1  0  0  0  0
 13 12  1  0  0  0  0
 14  4  1  6  0  0  0
 14 15  1  0  0  0  0
 16 15  1  0  0  0  0
 17 16  1  0  0  0  0
 17 20  1  0  0  0  0
 18 17  1  0  0  0  0
 18 19  1  0  0  0  0
 19 14  1  0  0  0  0
 20 21  1  0  0  0  0
 21 22  2  0  0  0  0
 23 22  1  0  0  0  0
 24 23  2  0  0  0  0
 25 24  1  0  0  0  0
 25 28  1  0  0  0  0
 26 20  2  0  0  0  0
 26 24  1  0  0  0  0
 27 26  1  0  0  0  0
 29 25  1  0  0  0  0
 30 31  1  0  0  0  0
 31 32  1  0  0  0  0
 32 33  1  0  0  0  0
 32 36  1  0  0  0  0
 33 34  1  0  0  0  0
 35 32  1  0  0  0  0
 35 34  1  0  0  0  0
M  END
>  <minimizedAffinity>
-8.66295624

$$$$
