
 OpenBabel11232420383D

 36 40  0  0  1  0  0  0  0  0999 V2000
  -19.7580   21.8400   10.9200 C   0  0  0  0  0  0  0  0  0  0  0  0
  -18.7180   21.3670   10.1530 C   0  0  0  0  0  3  0  0  0  0  0  0
  -18.2450   22.4570    9.4630 N   0  0  0  0  0  0  0  0  0  0  0  0
  -18.9450   23.5630    9.8950 C   0  0  0  0  0  0  0  0  0  0  0  0
  -19.9150   23.1850   10.7010 N   0  0  0  0  0  0  0  0  0  0  0  0
  -20.5930   17.8040   13.8030 C   0  0  0  0  0  1  0  0  0  0  0  0
  -21.0320   19.1160   13.2230 C   0  0  0  0  0  0  0  0  0  0  0  0
  -20.2050   19.8270   12.3380 C   0  0  0  0  0  3  0  0  0  0  0  0
  -20.5970   21.0790   11.8330 C   0  0  0  0  0  0  0  0  0  0  0  0
  -21.8260   21.6180   12.2430 C   0  0  0  0  0  3  0  0  0  0  0  0
  -22.6490   20.9220   13.1310 C   0  0  0  0  0  3  0  0  0  0  0  0
  -22.2450   19.6840   13.6140 C   0  0  0  0  0  0  0  0  0  0  0  0
  -23.0400   19.0350   14.4760 F   0  0  0  0  0  0  0  0  0  0  0  0
  -18.6580   24.9900    9.5000 C   0  0  2  0  0  3  0  0  0  0  0  0
  -17.1840   25.3470    9.7460 C   0  0  0  0  0  2  0  0  0  0  0  0
  -16.8920   25.6600   11.2150 C   0  0  0  0  0  2  0  0  0  0  0  0
  -17.8360   26.6430   11.7370 N   0  0  0  0  0  0  0  0  0  0  0  0
  -19.2470   26.2750   11.6440 C   0  0  0  0  0  2  0  0  0  0  0  0
  -19.6120   25.9860   10.1850 C   0  0  0  0  0  2  0  0  0  0  0  0
  -17.5120   27.9930   11.6320 C   0  0  0  0  0  0  0  0  0  0  0  0
  -16.2570   28.2910   11.2330 N   0  0  0  0  0  0  0  0  0  0  0  0
  -15.9510   29.5880   11.1000 C   0  0  0  0  0  3  0  0  0  0  0  0
  -16.7670   30.6220   11.3210 N   0  0  0  0  0  0  0  0  0  0  0  0
  -17.9990   30.3180   11.7550 C   0  0  0  0  0  0  0  0  0  0  0  0
  -18.8260   31.4100   11.9580 N   0  0  0  0  0  0  0  0  0  0  0  0
  -18.4300   29.0060   11.9230 C   0  0  0  0  0  0  0  0  0  0  0  0
  -20.1620   28.6540   12.6340 Br  0  0  0  0  0  0  0  0  0  0  0  0
  -18.3680   32.3000   11.8100 H   0  0  0  0  0  0  0  0  0  0  0  0
  -19.5030   31.3510   12.7060 H   0  0  0  0  0  0  0  0  0  0  0  0
  -17.1780   22.3970    8.4880 C   0  0  0  0  0  2  0  0  0  0  0  0
  -17.3680   21.3440    7.3780 C   0  0  0  0  0  2  0  0  0  0  0  0
  -16.6990   20.0140    7.4570 N   0  0  0  0  0  4  0  0  0  0  0  0
  -17.0630   19.0400    6.4120 C   0  0  0  0  0  2  0  0  0  0  0  0
  -15.5890   18.6050    6.3940 C   0  0  0  0  0  2  0  0  0  0  0  0
  -15.2900   19.9660    7.0410 C   0  0  0  0  0  2  0  0  0  0  0  0
  -16.8300   19.6050    8.3950 H   0  0  0  0  0  0  0  0  0  0  0  0
  1  9  1  0  0  0  0
  2  1  2  0  0  0  0
  3  4  1  0  0  0  0
  3  2  1  0  0  0  0
  4  5  2  0  0  0  0
  5  1  1  0  0  0  0
  7 12  1  0  0  0  0
  7  6  1  0  0  0  0
  8  7  2  0  0  0  0
  9 10  2  0  0  0  0
  9  8  1  0  0  0  0
 10 11  1  0  0  0  0
 11 12  2  0  0  0  0
 12 13  1  0  0  0  0
 14 15  1  0  0  0  0
 14  4  1  1  0  0  0
 14 19  1  0  0  0  0
 15 16  1  0  0  0  0
 16 17  1  0  0  0  0
 18 17  1  0  0  0  0
 19 18  1  0  0  0  0
 20 17  1  0  0  0  0
 20 26  1  0  0  0  0
 21 20  2  0  0  0  0
 22 21  1  0  0  0  0
 22 23  2  0  0  0  0
 23 24  1  0  0  0  0
 24 26  2  0  0  0  0
 24 25  1  0  0  0  0
 25 29  1  0  0  0  0
 26 27  1  0  0  0  0
 28 25  1  0  0  0  0
 30  3  1  0  0  0  0
 31 32  1  0  0  0  0
 31 30  1  0  0  0  0
 32 36  1  0  0  0  0
 33 32  1  0  0  0  0
 34 33  1  0  0  0  0
 34 35  1  0  0  0  0
 35 32  1  0  0  0  0
M  END
>  <minimizedAffinity>
-8.7614069

$$$$
