
 OpenBabel11232418553D

 41 46  0  0  1  0  0  0  0  0999 V2000
    7.5690   -5.8480   11.0840 C   0  0  0  0  0  0  0  0  0  0  0  0
    7.8040   -7.1900   11.3450 N   0  0  0  0  0  0  0  0  0  0  0  0
    8.1730   -7.2550   12.6030 C   0  0  0  0  0  0  0  0  0  0  0  0
    8.2030   -6.0130   13.1630 N   0  0  0  0  0  0  0  0  0  0  0  0
    7.7970   -5.0870   12.2280 C   0  0  0  0  0  0  0  0  0  0  0  0
    8.4700   -5.8150   14.5770 C   0  0  0  0  0  2  0  0  0  0  0  0
    9.2250   -6.8890   15.1810 O   0  0  0  0  0  0  0  0  0  0  0  0
    9.0050   -8.1560   14.7030 C   0  0  0  0  0  0  0  0  0  0  0  0
    9.3680   -9.2160   15.5350 C   0  0  0  0  0  3  0  0  0  0  0  0
    9.1980  -10.5340   15.0950 C   0  0  0  0  0  0  0  0  0  0  0  0
    8.7020  -10.7750   13.8040 C   0  0  0  0  0  3  0  0  0  0  0  0
    8.3560   -9.7110   12.9660 C   0  0  0  0  0  3  0  0  0  0  0  0
    8.5050   -8.4000   13.4190 C   0  0  0  0  0  0  0  0  0  0  0  0
    6.2730   -4.4180    7.1810 C   0  0  0  0  0  0  0  0  0  0  0  0
    6.1640   -3.6540    8.3620 C   0  0  0  0  0  3  0  0  0  0  0  0
    6.5800   -4.1380    9.6110 C   0  0  0  0  0  3  0  0  0  0  0  0
    7.1020   -5.4280    9.7610 C   0  0  0  0  0  0  0  0  0  0  0  0
    7.1580   -6.2240    8.6190 C   0  0  0  0  0  3  0  0  0  0  0  0
    6.7550   -5.7290    7.3660 C   0  0  0  0  0  3  0  0  0  0  0  0
    5.1080   -5.3120    2.6900 C   0  0  0  0  0  1  0  0  0  0  0  0
    5.5030   -5.2500    4.1570 C   0  0  1  0  0  0  0  0  0  0  0  0
    6.6510   -4.2510    4.4590 C   0  0  0  0  0  2  0  0  0  0  0  0
    5.8790   -3.8270    5.7460 C   0  0  1  0  0  0  0  0  0  0  0  0
    4.5930   -4.3730    5.0600 C   0  0  0  0  0  2  0  0  0  0  0  0
    5.8700   -2.3450    5.8580 N   0  0  0  0  0  4  0  0  0  0  0  0
    5.1170   -2.0150    6.4740 H   0  0  0  0  0  0  0  0  0  0  0  0
    6.7530   -2.0140    6.2710 H   0  0  0  0  0  0  0  0  0  0  0  0
    5.7550   -1.8700    4.9560 H   0  0  0  0  0  0  0  0  0  0  0  0
    5.7500   -6.5790    4.6520 O   0  0  0  0  0  0  0  0  0  0  0  0
    4.9730   -7.1190    4.4150 H   0  0  0  0  0  0  0  0  0  0  0  0
    7.6580   -3.6740   12.5460 C   0  0  0  0  0  0  0  0  0  0  0  0
    6.4790   -3.1950   13.1270 C   0  0  0  0  0  3  0  0  0  0  0  0
    6.3430   -1.8360   13.4120 C   0  0  0  0  0  3  0  0  0  0  0  0
    7.3830   -0.9530   13.1200 C   0  0  0  0  0  3  0  0  0  0  0  0
    8.5590   -1.4250   12.5400 C   0  0  0  0  0  3  0  0  0  0  0  0
    8.6960   -2.7830   12.2490 C   0  0  0  0  0  3  0  0  0  0  0  0
    9.5480  -11.7090   15.9370 C   0  0  0  0  0  0  0  0  0  0  0  0
   10.8370  -12.1580   15.9120 N   0  0  0  0  0  0  0  0  0  0  0  0
    8.7150  -12.2440   16.6600 O   0  0  0  0  0  0  0  0  0  0  0  0
   11.0570  -12.9530   16.5000 H   0  0  0  0  0  0  0  0  0  0  0  0
   11.5940  -11.7190   15.4100 H   0  0  0  0  0  0  0  0  0  0  0  0
  1  2  1  0  0  0  0
  1  5  2  0  0  0  0
  2  3  2  0  0  0  0
  3  4  1  0  0  0  0
  3 13  1  0  0  0  0
  4  6  1  0  0  0  0
  5 31  1  0  0  0  0
  5  4  1  0  0  0  0
  6  7  1  0  0  0  0
  8  7  1  0  0  0  0
  8  9  1  0  0  0  0
 10  9  2  0  0  0  0
 10 37  1  0  0  0  0
 11 10  1  0  0  0  0
 12 13  1  0  0  0  0
 12 11  2  0  0  0  0
 13  8  2  0  0  0  0
 14 19  2  0  0  0  0
 14 15  1  0  0  0  0
 15 16  2  0  0  0  0
 16 17  1  0  0  0  0
 17  1  1  0  0  0  0
 18 17  2  0  0  0  0
 19 18  1  0  0  0  0
 21 20  1  6  0  0  0
 21 22  1  0  0  0  0
 21 29  1  0  0  0  0
 21 24  1  0  0  0  0
 22 23  1  0  0  0  0
 23 25  1  1  0  0  0
 23 14  1  0  0  0  0
 24 23  1  0  0  0  0
 25 27  1  0  0  0  0
 25 26  1  0  0  0  0
 28 25  1  0  0  0  0
 30 29  1  0  0  0  0
 31 32  1  0  0  0  0
 32 33  2  0  0  0  0
 34 33  1  0  0  0  0
 35 34  2  0  0  0  0
 36 35  1  0  0  0  0
 36 31  2  0  0  0  0
 37 39  2  0  0  0  0
 38 37  1  0  0  0  0
 38 40  1  0  0  0  0
 41 38  1  0  0  0  0
M  END
>  <minimizedAffinity>
-12.0622845

$$$$
