
 OpenBabel11232418553D

 41 46  0  0  1  0  0  0  0  0999 V2000
    8.1060   -6.2660   11.8590 C   0  0  0  0  0  0  0  0  0  0  0  0
    8.2240   -4.9390   12.2470 N   0  0  0  0  0  0  0  0  0  0  0  0
    7.6880   -4.2290   11.2810 C   0  0  0  0  0  0  0  0  0  0  0  0
    7.2430   -5.0370   10.2780 N   0  0  0  0  0  0  0  0  0  0  0  0
    7.4710   -6.3520   10.6220 C   0  0  0  0  0  0  0  0  0  0  0  0
    6.5080   -4.5140    9.1400 C   0  0  0  0  0  2  0  0  0  0  0  0
    6.7710   -3.1200    8.8700 O   0  0  0  0  0  0  0  0  0  0  0  0
    7.0210   -2.3080    9.9480 C   0  0  0  0  0  0  0  0  0  0  0  0
    6.8400   -0.9380    9.7610 C   0  0  0  0  0  3  0  0  0  0  0  0
    7.1070   -0.0520   10.8130 C   0  0  0  0  0  0  0  0  0  0  0  0
    7.5930   -0.5500   12.0310 C   0  0  0  0  0  3  0  0  0  0  0  0
    7.7910   -1.9220   12.2090 C   0  0  0  0  0  3  0  0  0  0  0  0
    7.5010   -2.8020   11.1670 C   0  0  0  0  0  0  0  0  0  0  0  0
    9.3310   -9.4550   14.5580 C   0  0  0  0  0  0  0  0  0  0  0  0
    8.5440   -8.3560   14.9630 C   0  0  0  0  0  3  0  0  0  0  0  0
    8.1680   -7.3340   14.0780 C   0  0  0  0  0  3  0  0  0  0  0  0
    8.5820   -7.3330   12.7410 C   0  0  0  0  0  0  0  0  0  0  0  0
    9.4130   -8.3760   12.3360 C   0  0  0  0  0  3  0  0  0  0  0  0
    9.7730   -9.4060   13.2210 C   0  0  0  0  0  3  0  0  0  0  0  0
   11.3750  -10.8300   18.5900 C   0  0  0  0  0  1  0  0  0  0  0  0
   10.7930  -10.1800   17.3450 C   0  0  1  0  0  0  0  0  0  0  0  0
   11.1440  -10.9180   16.0260 C   0  0  0  0  0  2  0  0  0  0  0  0
    9.6810  -10.6620   15.5500 C   0  0  1  0  0  0  0  0  0  0  0  0
    9.3030  -10.5050   17.0520 C   0  0  0  0  0  2  0  0  0  0  0  0
    9.1240  -11.9060   14.9580 N   0  0  0  0  0  4  0  0  0  0  0  0
    8.0970  -11.8930   14.9410 H   0  0  0  0  0  0  0  0  0  0  0  0
    9.4310  -12.0040   13.9800 H   0  0  0  0  0  0  0  0  0  0  0  0
    9.4080  -12.7570   15.4560 H   0  0  0  0  0  0  0  0  0  0  0  0
   11.1240   -8.7790   17.3270 O   0  0  0  0  0  0  0  0  0  0  0  0
   10.8610   -8.4140   18.1930 H   0  0  0  0  0  0  0  0  0  0  0  0
    7.0430   -7.4590    9.7810 C   0  0  0  0  0  0  0  0  0  0  0  0
    6.2490   -8.4820   10.3130 C   0  0  0  0  0  3  0  0  0  0  0  0
    5.8570   -9.5520    9.5070 C   0  0  0  0  0  3  0  0  0  0  0  0
    6.2540   -9.6020    8.1710 C   0  0  0  0  0  3  0  0  0  0  0  0
    7.0460   -8.5860    7.6370 C   0  0  0  0  0  3  0  0  0  0  0  0
    7.4440   -7.5180    8.4420 C   0  0  0  0  0  3  0  0  0  0  0  0
    6.9190    1.4180   10.6860 C   0  0  0  0  0  0  0  0  0  0  0  0
    8.0140    2.2210   10.8230 N   0  0  0  0  0  0  0  0  0  0  0  0
    5.8200    1.8990   10.4360 O   0  0  0  0  0  0  0  0  0  0  0  0
    7.8660    3.2180   10.7230 H   0  0  0  0  0  0  0  0  0  0  0  0
    8.9600    1.8950   10.9450 H   0  0  0  0  0  0  0  0  0  0  0  0
  1  2  1  0  0  0  0
  1 17  1  0  0  0  0
  3  2  2  0  0  0  0
  4  5  1  0  0  0  0
  4  3  1  0  0  0  0
  5  1  2  0  0  0  0
  6  4  1  0  0  0  0
  7  6  1  0  0  0  0
  7  8  1  0  0  0  0
  8 13  1  0  0  0  0
  9  8  2  0  0  0  0
  9 10  1  0  0  0  0
 10 11  2  0  0  0  0
 11 12  1  0  0  0  0
 13  3  1  0  0  0  0
 13 12  2  0  0  0  0
 14 15  1  0  0  0  0
 14 23  1  0  0  0  0
 16 15  2  0  0  0  0
 17 16  1  0  0  0  0
 18 17  2  0  0  0  0
 18 19  1  0  0  0  0
 19 14  2  0  0  0  0
 21 20  1  1  0  0  0
 22 21  1  0  0  0  0
 23 25  1  6  0  0  0
 23 22  1  0  0  0  0
 23 24  1  0  0  0  0
 24 21  1  0  0  0  0
 25 28  1  0  0  0  0
 26 25  1  0  0  0  0
 27 25  1  0  0  0  0
 29 21  1  0  0  0  0
 29 30  1  0  0  0  0
 31 32  1  0  0  0  0
 31  5  1  0  0  0  0
 33 32  2  0  0  0  0
 34 33  1  0  0  0  0
 35 34  2  0  0  0  0
 35 36  1  0  0  0  0
 36 31  2  0  0  0  0
 37 10  1  0  0  0  0
 37 38  1  0  0  0  0
 38 41  1  0  0  0  0
 39 37  2  0  0  0  0
 40 38  1  0  0  0  0
M  END
>  <minimizedAffinity>
-11.9493523

$$$$
