
 OpenBabel11232418553D

 41 46  0  0  1  0  0  0  0  0999 V2000
    8.1320   -5.5970   12.8250 C   0  0  0  0  0  0  0  0  0  0  0  0
    8.7910   -5.6040   14.0460 N   0  0  0  0  0  0  0  0  0  0  0  0
    9.0760   -6.8600   14.2970 C   0  0  0  0  0  0  0  0  0  0  0  0
    8.6180   -7.6690   13.3010 N   0  0  0  0  0  0  0  0  0  0  0  0
    8.0280   -6.8940   12.3260 C   0  0  0  0  0  0  0  0  0  0  0  0
    8.9000   -9.0930   13.2770 C   0  0  0  0  0  2  0  0  0  0  0  0
    9.1750   -9.6530   14.5800 O   0  0  0  0  0  0  0  0  0  0  0  0
    9.8210   -8.8470   15.4840 C   0  0  0  0  0  0  0  0  0  0  0  0
   10.4710   -9.4830   16.5430 C   0  0  0  0  0  3  0  0  0  0  0  0
   11.1230   -8.7180   17.5180 C   0  0  0  0  0  0  0  0  0  0  0  0
   11.0820   -7.3170   17.4400 C   0  0  0  0  0  3  0  0  0  0  0  0
   10.4160   -6.6830   16.3880 C   0  0  0  0  0  3  0  0  0  0  0  0
    9.7880   -7.4510   15.4070 C   0  0  0  0  0  0  0  0  0  0  0  0
    7.0030   -1.7390   11.1540 C   0  0  0  0  0  0  0  0  0  0  0  0
    7.3380   -1.9270   12.5120 C   0  0  0  0  0  3  0  0  0  0  0  0
    7.6900   -3.1820   13.0310 C   0  0  0  0  0  3  0  0  0  0  0  0
    7.7000   -4.3310   12.2310 C   0  0  0  0  0  0  0  0  0  0  0  0
    7.3110   -4.1780   10.9020 C   0  0  0  0  0  3  0  0  0  0  0  0
    6.9740   -2.9160   10.3820 C   0  0  0  0  0  3  0  0  0  0  0  0
    8.6240    2.5730   10.1020 C   0  0  0  0  0  1  0  0  0  0  0  0
    8.3100    1.1470   10.5240 C   0  0  1  0  0  0  0  0  0  0  0  0
    7.0070    1.0080   11.3540 C   0  0  0  0  0  2  0  0  0  0  0  0
    6.6890   -0.2890   10.5490 C   0  0  1  0  0  0  0  0  0  0  0  0
    7.6360    0.2590    9.4420 C   0  0  0  0  0  2  0  0  0  0  0  0
    5.2650   -0.2790   10.1250 N   0  0  0  0  0  4  0  0  0  0  0  0
    5.0980   -0.9160    9.3360 H   0  0  0  0  0  0  0  0  0  0  0  0
    4.6620   -0.6030   10.8940 H   0  0  0  0  0  0  0  0  0  0  0  0
    4.9310    0.6490    9.8420 H   0  0  0  0  0  0  0  0  0  0  0  0
    9.4620    0.5620   11.1580 O   0  0  0  0  0  0  0  0  0  0  0  0
   10.2180    0.7000   10.5570 H   0  0  0  0  0  0  0  0  0  0  0  0
    7.5000   -7.4630   11.0960 C   0  0  0  0  0  0  0  0  0  0  0  0
    6.4430   -8.3780   11.1400 C   0  0  0  0  0  3  0  0  0  0  0  0
    5.9530   -8.9370    9.9580 C   0  0  0  0  0  3  0  0  0  0  0  0
    6.5160   -8.5820    8.7320 C   0  0  0  0  0  3  0  0  0  0  0  0
    7.5700   -7.6720    8.6840 C   0  0  0  0  0  3  0  0  0  0  0  0
    8.0650   -7.1150    9.8640 C   0  0  0  0  0  3  0  0  0  0  0  0
   11.8480   -9.3310   18.6620 C   0  0  0  0  0  0  0  0  0  0  0  0
   11.4470  -10.5640   19.0920 N   0  0  0  0  0  0  0  0  0  0  0  0
   12.8000   -8.7660   19.1890 O   0  0  0  0  0  0  0  0  0  0  0  0
   11.9600  -10.9680   19.8660 H   0  0  0  0  0  0  0  0  0  0  0  0
   10.7320  -11.1240   18.6570 H   0  0  0  0  0  0  0  0  0  0  0  0
  1  2  1  0  0  0  0
  2  3  2  0  0  0  0
  3 13  1  0  0  0  0
  4  3  1  0  0  0  0
  5  1  2  0  0  0  0
  5  4  1  0  0  0  0
  6  4  1  0  0  0  0
  6  7  1  0  0  0  0
  7  8  1  0  0  0  0
  8  9  1  0  0  0  0
  9 10  2  0  0  0  0
 10 37  1  0  0  0  0
 11 10  1  0  0  0  0
 12 11  2  0  0  0  0
 13  8  2  0  0  0  0
 13 12  1  0  0  0  0
 14 15  1  0  0  0  0
 15 16  2  0  0  0  0
 17  1  1  0  0  0  0
 17 16  1  0  0  0  0
 18 17  2  0  0  0  0
 19 18  1  0  0  0  0
 19 14  2  0  0  0  0
 21 20  1  6  0  0  0
 21 29  1  0  0  0  0
 21 22  1  0  0  0  0
 23 25  1  6  0  0  0
 23 14  1  0  0  0  0
 23 22  1  0  0  0  0
 24 21  1  0  0  0  0
 24 23  1  0  0  0  0
 25 27  1  0  0  0  0
 26 25  1  0  0  0  0
 28 25  1  0  0  0  0
 30 29  1  0  0  0  0
 31 32  1  0  0  0  0
 31  5  1  0  0  0  0
 33 32  2  0  0  0  0
 34 33  1  0  0  0  0
 35 34  2  0  0  0  0
 35 36  1  0  0  0  0
 36 31  2  0  0  0  0
 37 38  1  0  0  0  0
 37 39  2  0  0  0  0
 38 40  1  0  0  0  0
 41 38  1  0  0  0  0
M  END
>  <minimizedAffinity>
-11.6221628

$$$$
