
 OpenBabel11232418553D

 41 46  0  0  1  0  0  0  0  0999 V2000
    8.5030   -8.4700   13.8650 C   0  0  0  0  0  0  0  0  0  0  0  0
    7.9670   -9.5840   13.2360 N   0  0  0  0  0  0  0  0  0  0  0  0
    8.3280  -10.6180   13.9600 C   0  0  0  0  0  0  0  0  0  0  0  0
    9.0880  -10.2240   15.0210 N   0  0  0  0  0  0  0  0  0  0  0  0
    9.2020   -8.8510   15.0080 C   0  0  0  0  0  0  0  0  0  0  0  0
    9.5250  -11.1590   16.0420 C   0  0  0  0  0  2  0  0  0  0  0  0
    9.5930  -12.5280   15.5850 O   0  0  0  0  0  0  0  0  0  0  0  0
    8.6670  -12.9240   14.6520 C   0  0  0  0  0  0  0  0  0  0  0  0
    8.4360  -14.2950   14.5370 C   0  0  0  0  0  3  0  0  0  0  0  0
    7.5270  -14.7680   13.5830 C   0  0  0  0  0  0  0  0  0  0  0  0
    6.8870  -13.8590   12.7260 C   0  0  0  0  0  3  0  0  0  0  0  0
    7.1340  -12.4880   12.8320 C   0  0  0  0  0  3  0  0  0  0  0  0
    8.0230  -12.0200   13.8000 C   0  0  0  0  0  0  0  0  0  0  0  0
    7.6670   -4.4430   12.4350 C   0  0  0  0  0  0  0  0  0  0  0  0
    6.7040   -5.2560   13.0700 C   0  0  0  0  0  3  0  0  0  0  0  0
    6.9930   -6.5550   13.5150 C   0  0  0  0  0  3  0  0  0  0  0  0
    8.2540   -7.1320   13.3250 C   0  0  0  0  0  0  0  0  0  0  0  0
    9.2020   -6.3710   12.6440 C   0  0  0  0  0  3  0  0  0  0  0  0
    8.9130   -5.0640   12.2140 C   0  0  0  0  0  3  0  0  0  0  0  0
    7.8160    0.1310   13.6080 C   0  0  0  0  0  1  0  0  0  0  0  0
    7.8530   -1.3790   13.4370 C   0  0  1  0  0  0  0  0  0  0  0  0
    6.5210   -1.9890   12.9300 C   0  0  0  0  0  2  0  0  0  0  0  0
    7.3570   -2.9310   12.0100 C   0  0  1  0  0  0  0  0  0  0  0  0
    8.5100   -1.8900   12.1250 C   0  0  0  0  0  2  0  0  0  0  0  0
    6.7620   -2.9600   10.6490 N   0  0  0  0  0  4  0  0  0  0  0  0
    7.4370   -3.2790    9.9450 H   0  0  0  0  0  0  0  0  0  0  0  0
    5.9740   -3.6220   10.6200 H   0  0  0  0  0  0  0  0  0  0  0  0
    6.4080   -2.0480   10.3400 H   0  0  0  0  0  0  0  0  0  0  0  0
    8.3460   -1.9930   14.6420 O   0  0  0  0  0  0  0  0  0  0  0  0
    9.1810   -1.5420   14.8700 H   0  0  0  0  0  0  0  0  0  0  0  0
    9.9010   -8.1210   16.0550 C   0  0  0  0  0  0  0  0  0  0  0  0
    9.5270   -6.8100   16.3700 C   0  0  0  0  0  3  0  0  0  0  0  0
   10.2130   -6.1070   17.3620 C   0  0  0  0  0  3  0  0  0  0  0  0
   11.2700   -6.7120   18.0430 C   0  0  0  0  0  3  0  0  0  0  0  0
   11.6460   -8.0180   17.7320 C   0  0  0  0  0  3  0  0  0  0  0  0
   10.9650   -8.7210   16.7370 C   0  0  0  0  0  3  0  0  0  0  0  0
    7.2220  -16.2140   13.4180 C   0  0  0  0  0  0  0  0  0  0  0  0
    6.7420  -16.8980   14.4980 N   0  0  0  0  0  0  0  0  0  0  0  0
    7.3650  -16.7750   12.3380 O   0  0  0  0  0  0  0  0  0  0  0  0
    6.5320  -17.8800   14.3620 H   0  0  0  0  0  0  0  0  0  0  0  0
    6.5190  -16.4880   15.3910 H   0  0  0  0  0  0  0  0  0  0  0  0
  1  5  2  0  0  0  0
  2  1  1  0  0  0  0
  2  3  2  0  0  0  0
  3  4  1  0  0  0  0
  4  6  1  0  0  0  0
  5  4  1  0  0  0  0
  5 31  1  0  0  0  0
  7  6  1  0  0  0  0
  8  7  1  0  0  0  0
  9  8  1  0  0  0  0
 10  9  2  0  0  0  0
 11 12  2  0  0  0  0
 11 10  1  0  0  0  0
 12 13  1  0  0  0  0
 13  3  1  0  0  0  0
 13  8  2  0  0  0  0
 14 15  1  0  0  0  0
 15 16  2  0  0  0  0
 17 16  1  0  0  0  0
 17  1  1  0  0  0  0
 18 17  2  0  0  0  0
 19 14  2  0  0  0  0
 19 18  1  0  0  0  0
 21 20  1  1  0  0  0
 21 29  1  0  0  0  0
 22 21  1  0  0  0  0
 23 25  1  6  0  0  0
 23 24  1  0  0  0  0
 23 14  1  0  0  0  0
 23 22  1  0  0  0  0
 24 21  1  0  0  0  0
 26 25  1  0  0  0  0
 27 25  1  0  0  0  0
 28 25  1  0  0  0  0
 29 30  1  0  0  0  0
 31 32  2  0  0  0  0
 31 36  1  0  0  0  0
 32 33  1  0  0  0  0
 33 34  2  0  0  0  0
 35 34  1  0  0  0  0
 36 35  2  0  0  0  0
 37 10  1  0  0  0  0
 37 38  1  0  0  0  0
 38 41  1  0  0  0  0
 39 37  2  0  0  0  0
 40 38  1  0  0  0  0
M  END
>  <minimizedAffinity>
-11.733345

$$$$
