
 OpenBabel11232418553D

 41 46  0  0  1  0  0  0  0  0999 V2000
    7.3700   -4.3890   11.5070 C   0  0  0  0  0  0  0  0  0  0  0  0
    7.0930   -4.8110   10.2150 N   0  0  0  0  0  0  0  0  0  0  0  0
    6.8500   -3.7220    9.5220 C   0  0  0  0  0  0  0  0  0  0  0  0
    6.9400   -2.6160   10.3130 N   0  0  0  0  0  0  0  0  0  0  0  0
    7.2960   -3.0000   11.5870 C   0  0  0  0  0  0  0  0  0  0  0  0
    6.8270   -1.2740    9.7700 C   0  0  0  0  0  2  0  0  0  0  0  0
    6.0830   -1.2090    8.5340 O   0  0  0  0  0  0  0  0  0  0  0  0
    6.1880   -2.2790    7.6810 C   0  0  0  0  0  0  0  0  0  0  0  0
    5.8570   -2.0550    6.3440 C   0  0  0  0  0  3  0  0  0  0  0  0
    5.9140   -3.1130    5.4280 C   0  0  0  0  0  0  0  0  0  0  0  0
    6.2650   -4.3970    5.8740 C   0  0  0  0  0  3  0  0  0  0  0  0
    6.5790   -4.6210    7.2170 C   0  0  0  0  0  3  0  0  0  0  0  0
    6.5440   -3.5590    8.1210 C   0  0  0  0  0  0  0  0  0  0  0  0
    8.4450   -7.4330   14.4280 C   0  0  0  0  0  0  0  0  0  0  0  0
    7.5540   -7.6650   13.3580 C   0  0  0  0  0  3  0  0  0  0  0  0
    7.2150   -6.6670   12.4340 C   0  0  0  0  0  3  0  0  0  0  0  0
    7.7220   -5.3660   12.5390 C   0  0  0  0  0  0  0  0  0  0  0  0
    8.5520   -5.0980   13.6250 C   0  0  0  0  0  3  0  0  0  0  0  0
    8.9030   -6.1060   14.5400 C   0  0  0  0  0  3  0  0  0  0  0  0
   11.8390   -9.2180   17.1880 C   0  0  0  0  0  1  0  0  0  0  0  0
   10.8980   -8.4820   16.2480 C   0  0  1  0  0  0  0  0  0  0  0  0
   10.2190   -9.3950   15.1940 C   0  0  0  0  0  2  0  0  0  0  0  0
    8.8970   -8.6010   15.4270 C   0  0  1  0  0  0  0  0  0  0  0  0
    9.4790   -8.1910   16.8110 C   0  0  0  0  0  2  0  0  0  0  0  0
    7.7590   -9.5480   15.5550 N   0  0  0  0  0  4  0  0  0  0  0  0
    6.9570   -9.1170   16.0290 H   0  0  0  0  0  0  0  0  0  0  0  0
    7.4290   -9.8350   14.6230 H   0  0  0  0  0  0  0  0  0  0  0  0
    7.9970  -10.4010   16.0740 H   0  0  0  0  0  0  0  0  0  0  0  0
   11.5700   -7.3440   15.6780 O   0  0  0  0  0  0  0  0  0  0  0  0
   11.9550   -6.8400   16.4190 H   0  0  0  0  0  0  0  0  0  0  0  0
    7.5390   -2.0350   12.6490 C   0  0  0  0  0  0  0  0  0  0  0  0
    6.6620   -1.9460   13.7350 C   0  0  0  0  0  3  0  0  0  0  0  0
    6.8880   -1.0060   14.7410 C   0  0  0  0  0  3  0  0  0  0  0  0
    7.9900   -0.1540   14.6650 C   0  0  0  0  0  3  0  0  0  0  0  0
    8.8660   -0.2380   13.5840 C   0  0  0  0  0  3  0  0  0  0  0  0
    8.6400   -1.1740   12.5750 C   0  0  0  0  0  3  0  0  0  0  0  0
    5.5910   -2.9400    3.9870 C   0  0  0  0  0  0  0  0  0  0  0  0
    5.7450   -4.0140    3.1590 N   0  0  0  0  0  0  0  0  0  0  0  0
    5.1670   -1.8740    3.5540 O   0  0  0  0  0  0  0  0  0  0  0  0
    5.5100   -3.8770    2.1830 H   0  0  0  0  0  0  0  0  0  0  0  0
    6.0060   -4.9410    3.4560 H   0  0  0  0  0  0  0  0  0  0  0  0
  1  5  2  0  0  0  0
  1 17  1  0  0  0  0
  2  1  1  0  0  0  0
  3  2  2  0  0  0  0
  3  4  1  0  0  0  0
  4  5  1  0  0  0  0
  5 31  1  0  0  0  0
  6  4  1  0  0  0  0
  7  6  1  0  0  0  0
  8 13  1  0  0  0  0
  8  7  1  0  0  0  0
  9  8  2  0  0  0  0
 10 11  2  0  0  0  0
 10  9  1  0  0  0  0
 11 12  1  0  0  0  0
 12 13  2  0  0  0  0
 13  3  1  0  0  0  0
 14 19  1  0  0  0  0
 14 23  1  0  0  0  0
 15 14  2  0  0  0  0
 16 17  2  0  0  0  0
 16 15  1  0  0  0  0
 17 18  1  0  0  0  0
 18 19  2  0  0  0  0
 21 24  1  0  0  0  0
 21 20  1  1  0  0  0
 22 23  1  0  0  0  0
 22 21  1  0  0  0  0
 23 25  1  1  0  0  0
 23 24  1  0  0  0  0
 25 26  1  0  0  0  0
 25 28  1  0  0  0  0
 27 25  1  0  0  0  0
 29 21  1  0  0  0  0
 29 30  1  0  0  0  0
 31 32  1  0  0  0  0
 32 33  2  0  0  0  0
 34 33  1  0  0  0  0
 35 34  2  0  0  0  0
 36 31  2  0  0  0  0
 36 35  1  0  0  0  0
 37 10  1  0  0  0  0
 38 41  1  0  0  0  0
 38 37  1  0  0  0  0
 39 37  2  0  0  0  0
 40 38  1  0  0  0  0
M  END
>  <minimizedAffinity>
-13.5699492

$$$$
