
 OpenBabel11232418553D

 41 46  0  0  1  0  0  0  0  0999 V2000
    7.4490   -5.4300   11.3410 C   0  0  0  0  0  0  0  0  0  0  0  0
    7.2090   -5.9720   10.0860 N   0  0  0  0  0  0  0  0  0  0  0  0
    6.8450   -4.9690    9.3210 C   0  0  0  0  0  0  0  0  0  0  0  0
    6.8240   -3.8040   10.0290 N   0  0  0  0  0  0  0  0  0  0  0  0
    7.2290   -4.0540   11.3210 C   0  0  0  0  0  0  0  0  0  0  0  0
    6.5640   -2.5250    9.3930 C   0  0  0  0  0  2  0  0  0  0  0  0
    5.8080   -2.6290    8.1660 O   0  0  0  0  0  0  0  0  0  0  0  0
    6.0200   -3.7420    7.3910 C   0  0  0  0  0  0  0  0  0  0  0  0
    5.6570   -3.6520    6.0470 C   0  0  0  0  0  3  0  0  0  0  0  0
    5.8180   -4.7620    5.2090 C   0  0  0  0  0  0  0  0  0  0  0  0
    6.3080   -5.9660    5.7400 C   0  0  0  0  0  3  0  0  0  0  0  0
    6.6540   -6.0570    7.0910 C   0  0  0  0  0  3  0  0  0  0  0  0
    6.5130   -4.9420    7.9160 C   0  0  0  0  0  0  0  0  0  0  0  0
    8.8880   -7.8080   14.6910 C   0  0  0  0  0  0  0  0  0  0  0  0
    9.6410   -6.7740   14.0940 C   0  0  0  0  0  3  0  0  0  0  0  0
    9.1610   -6.0260   13.0090 C   0  0  0  0  0  3  0  0  0  0  0  0
    7.9110   -6.2860   12.4350 C   0  0  0  0  0  0  0  0  0  0  0  0
    7.1780   -7.3450   12.9670 C   0  0  0  0  0  3  0  0  0  0  0  0
    7.6560   -8.0810   14.0650 C   0  0  0  0  0  3  0  0  0  0  0  0
    9.6470  -11.9840   16.7680 C   0  0  0  0  0  1  0  0  0  0  0  0
    9.3190  -10.7610   15.9260 C   0  0  1  0  0  0  0  0  0  0  0  0
    8.5150   -9.6720   16.6840 C   0  0  0  0  0  2  0  0  0  0  0  0
    9.4040   -8.5980   15.9860 C   0  0  1  0  0  0  0  0  0  0  0  0
   10.4640   -9.7200   15.7810 C   0  0  0  0  0  2  0  0  0  0  0  0
    9.8430   -7.5870   16.9830 N   0  0  0  0  0  4  0  0  0  0  0  0
   10.6720   -7.0720   16.6630 H   0  0  0  0  0  0  0  0  0  0  0  0
    9.1030   -6.8860   17.1300 H   0  0  0  0  0  0  0  0  0  0  0  0
   10.0710   -7.9910   17.8980 H   0  0  0  0  0  0  0  0  0  0  0  0
    8.7100  -11.1700   14.6880 O   0  0  0  0  0  0  0  0  0  0  0  0
    9.2930  -11.8470   14.2950 H   0  0  0  0  0  0  0  0  0  0  0  0
    7.3760   -2.9940   12.3070 C   0  0  0  0  0  0  0  0  0  0  0  0
    6.3950   -2.8010   13.2860 C   0  0  0  0  0  3  0  0  0  0  0  0
    6.5310   -1.7700   14.2170 C   0  0  0  0  0  3  0  0  0  0  0  0
    7.6450   -0.9320   14.1740 C   0  0  0  0  0  3  0  0  0  0  0  0
    8.6240   -1.1200   13.1990 C   0  0  0  0  0  3  0  0  0  0  0  0
    8.4890   -2.1470   12.2640 C   0  0  0  0  0  3  0  0  0  0  0  0
    5.4670   -4.7300    3.7640 C   0  0  0  0  0  0  0  0  0  0  0  0
    5.7670   -5.8240    3.0040 N   0  0  0  0  0  0  0  0  0  0  0  0
    4.8970   -3.7640    3.2700 O   0  0  0  0  0  0  0  0  0  0  0  0
    5.5110   -5.7850    2.0250 H   0  0  0  0  0  0  0  0  0  0  0  0
    6.1570   -6.6840    3.3560 H   0  0  0  0  0  0  0  0  0  0  0  0
  1 17  1  0  0  0  0
  2  1  1  0  0  0  0
  3  4  1  0  0  0  0
  3  2  2  0  0  0  0
  4  5  1  0  0  0  0
  5  1  2  0  0  0  0
  5 31  1  0  0  0  0
  6  4  1  0  0  0  0
  7  6  1  0  0  0  0
  8 13  1  0  0  0  0
  8  7  1  0  0  0  0
  9  8  2  0  0  0  0
 10 11  2  0  0  0  0
 10  9  1  0  0  0  0
 11 12  1  0  0  0  0
 12 13  2  0  0  0  0
 13  3  1  0  0  0  0
 14 23  1  0  0  0  0
 15 14  1  0  0  0  0
 16 15  2  0  0  0  0
 17 18  2  0  0  0  0
 17 16  1  0  0  0  0
 18 19  1  0  0  0  0
 19 14  2  0  0  0  0
 21 22  1  0  0  0  0
 21 20  1  1  0  0  0
 23 22  1  0  0  0  0
 23 25  1  1  0  0  0
 24 21  1  0  0  0  0
 24 23  1  0  0  0  0
 25 27  1  0  0  0  0
 25 28  1  0  0  0  0
 26 25  1  0  0  0  0
 29 21  1  0  0  0  0
 30 29  1  0  0  0  0
 31 32  1  0  0  0  0
 32 33  2  0  0  0  0
 34 33  1  0  0  0  0
 35 34  2  0  0  0  0
 36 31  2  0  0  0  0
 36 35  1  0  0  0  0
 37 10  1  0  0  0  0
 38 41  1  0  0  0  0
 38 37  1  0  0  0  0
 39 37  2  0  0  0  0
 40 38  1  0  0  0  0
M  END
>  <minimizedAffinity>
-11.7754059

$$$$
