
 OpenBabel11232418553D

 41 46  0  0  1  0  0  0  0  0999 V2000
    7.3630   -4.3260   11.2850 C   0  0  0  0  0  0  0  0  0  0  0  0
    7.0860   -4.7450    9.9920 N   0  0  0  0  0  0  0  0  0  0  0  0
    6.8250   -3.6570    9.3060 C   0  0  0  0  0  0  0  0  0  0  0  0
    6.9050   -2.5530   10.1010 N   0  0  0  0  0  0  0  0  0  0  0  0
    7.2720   -2.9380   11.3720 C   0  0  0  0  0  0  0  0  0  0  0  0
    6.7720   -1.2100    9.5660 C   0  0  0  0  0  2  0  0  0  0  0  0
    6.0210   -1.1480    8.3330 O   0  0  0  0  0  0  0  0  0  0  0  0
    6.1370   -2.2130    7.4750 C   0  0  0  0  0  0  0  0  0  0  0  0
    5.7970   -1.9870    6.1400 C   0  0  0  0  0  3  0  0  0  0  0  0
    5.8630   -3.0390    5.2190 C   0  0  0  0  0  0  0  0  0  0  0  0
    6.2320   -4.3210    5.6570 C   0  0  0  0  0  3  0  0  0  0  0  0
    6.5550   -4.5480    6.9970 C   0  0  0  0  0  3  0  0  0  0  0  0
    6.5100   -3.4900    7.9060 C   0  0  0  0  0  0  0  0  0  0  0  0
    8.6080   -7.1040   14.3980 C   0  0  0  0  0  0  0  0  0  0  0  0
    9.5130   -6.4410   13.5430 C   0  0  0  0  0  3  0  0  0  0  0  0
    9.0900   -5.5560   12.5400 C   0  0  0  0  0  3  0  0  0  0  0  0
    7.7320   -5.3030   12.3110 C   0  0  0  0  0  0  0  0  0  0  0  0
    6.8180   -5.9970   13.1010 C   0  0  0  0  0  3  0  0  0  0  0  0
    7.2480   -6.8700   14.1160 C   0  0  0  0  0  3  0  0  0  0  0  0
   10.8870  -11.0330   15.7000 C   0  0  0  0  0  1  0  0  0  0  0  0
   10.1960   -9.8350   15.0680 C   0  0  1  0  0  0  0  0  0  0  0  0
    8.7710   -9.5660   15.6190 C   0  0  0  0  0  2  0  0  0  0  0  0
    9.1020   -8.0430   15.5980 C   0  0  1  0  0  0  0  0  0  0  0  0
   10.6040   -8.4480   15.6350 C   0  0  0  0  0  2  0  0  0  0  0  0
    8.6580   -7.4160   16.8700 N   0  0  0  0  0  4  0  0  0  0  0  0
    9.1370   -6.5250   17.0430 H   0  0  0  0  0  0  0  0  0  0  0  0
    7.6510   -7.2040   16.8300 H   0  0  0  0  0  0  0  0  0  0  0  0
    8.8140   -8.0100   17.6920 H   0  0  0  0  0  0  0  0  0  0  0  0
   10.2470   -9.9430   13.6330 O   0  0  0  0  0  0  0  0  0  0  0  0
   11.1790  -10.1070   13.3940 H   0  0  0  0  0  0  0  0  0  0  0  0
    7.5070   -1.9750   12.4370 C   0  0  0  0  0  0  0  0  0  0  0  0
    6.6860   -1.9630   13.5700 C   0  0  0  0  0  3  0  0  0  0  0  0
    6.9040   -1.0240   14.5800 C   0  0  0  0  0  3  0  0  0  0  0  0
    7.9410   -0.0990   14.4620 C   0  0  0  0  0  3  0  0  0  0  0  0
    8.7600   -0.1070   13.3350 C   0  0  0  0  0  3  0  0  0  0  0  0
    8.5430   -1.0410   12.3210 C   0  0  0  0  0  3  0  0  0  0  0  0
    5.5310   -2.8630    3.7800 C   0  0  0  0  0  0  0  0  0  0  0  0
    5.8120   -3.8890    2.9250 N   0  0  0  0  0  0  0  0  0  0  0  0
    4.9910   -1.8410    3.3730 O   0  0  0  0  0  0  0  0  0  0  0  0
    5.5690   -3.7530    1.9500 H   0  0  0  0  0  0  0  0  0  0  0  0
    6.1760   -4.7880    3.1980 H   0  0  0  0  0  0  0  0  0  0  0  0
  1  5  2  0  0  0  0
  1 17  1  0  0  0  0
  2  1  1  0  0  0  0
  3  2  2  0  0  0  0
  3  4  1  0  0  0  0
  4  5  1  0  0  0  0
  5 31  1  0  0  0  0
  6  4  1  0  0  0  0
  7  6  1  0  0  0  0
  8 13  1  0  0  0  0
  8  7  1  0  0  0  0
  9  8  2  0  0  0  0
 10 11  2  0  0  0  0
 10  9  1  0  0  0  0
 11 12  1  0  0  0  0
 12 13  2  0  0  0  0
 13  3  1  0  0  0  0
 14 23  1  0  0  0  0
 15 14  2  0  0  0  0
 16 15  1  0  0  0  0
 17 16  2  0  0  0  0
 17 18  1  0  0  0  0
 18 19  2  0  0  0  0
 19 14  1  0  0  0  0
 21 22  1  0  0  0  0
 21 24  1  0  0  0  0
 21 20  1  1  0  0  0
 23 22  1  0  0  0  0
 23 24  1  0  0  0  0
 23 25  1  1  0  0  0
 25 26  1  0  0  0  0
 25 28  1  0  0  0  0
 27 25  1  0  0  0  0
 29 21  1  0  0  0  0
 30 29  1  0  0  0  0
 31 32  1  0  0  0  0
 32 33  2  0  0  0  0
 34 33  1  0  0  0  0
 35 34  2  0  0  0  0
 36 31  2  0  0  0  0
 36 35  1  0  0  0  0
 37 10  1  0  0  0  0
 38 41  1  0  0  0  0
 38 37  1  0  0  0  0
 39 37  2  0  0  0  0
 40 38  1  0  0  0  0
M  END
>  <minimizedAffinity>
-13.523695

$$$$
