
 OpenBabel10152419543D

 39 42  0  0  1  0  0  0  0  0999 V2000
   -0.7010   -6.0080  -25.1830 C   0  0  0  0  0  0  0  0  0  0  0  0
    0.2490   -5.4570  -26.0490 C   0  0  0  0  0  3  0  0  0  0  0  0
    0.4970   -6.0310  -27.3120 C   0  0  0  0  0  0  0  0  0  0  0  0
   -0.2750   -7.1360  -27.7110 C   0  0  0  0  0  3  0  0  0  0  0  0
   -1.2800   -7.6380  -26.8810 C   0  0  0  0  0  3  0  0  0  0  0  0
   -1.4890   -7.0720  -25.6280 C   0  0  0  0  0  0  0  0  0  0  0  0
   -2.4820   -7.5580  -24.8680 F   0  0  0  0  0  0  0  0  0  0  0  0
   -1.2610   -6.0240  -22.7230 C   0  0  0  0  0  0  0  0  0  0  0  0
   -1.5130   -5.2940  -21.7650 O   0  0  0  0  0  0  0  0  0  0  0  0
   -0.7800   -5.4640  -23.8880 N   0  0  0  0  0  0  0  0  0  0  0  0
   -0.4170   -4.5290  -23.7480 H   0  0  0  0  0  0  0  0  0  0  0  0
   -1.4990  -10.2830  -22.0880 C   0  0  0  0  0  0  0  0  0  0  0  0
   -2.3150   -9.3960  -21.3770 C   0  0  0  0  0  3  0  0  0  0  0  0
   -2.2360   -8.0160  -21.5990 C   0  0  0  0  0  3  0  0  0  0  0  0
   -1.3350   -7.5020  -22.5380 C   0  0  0  0  0  0  0  0  0  0  0  0
   -0.4740   -8.3830  -23.2010 C   0  0  0  0  0  3  0  0  0  0  0  0
   -0.5870   -9.7570  -23.0030 C   0  0  0  0  0  0  0  0  0  0  0  0
    0.2190  -10.5470  -23.7280 F   0  0  0  0  0  0  0  0  0  0  0  0
   -1.4890  -11.9810  -20.4240 C   0  0  0  0  0  1  0  0  0  0  0  0
   -1.6930  -11.6020  -21.7810 O   0  0  0  0  0  0  0  0  0  0  0  0
    1.5710   -5.4710  -28.2420 C   0  0  1  0  0  3  0  0  0  0  0  0
    1.6770   -3.9530  -28.0510 C   0  0  0  0  0  1  0  0  0  0  0  0
    2.8640   -6.0800  -27.9590 N   0  0  0  0  0  0  0  0  0  0  0  0
    3.2060   -5.9420  -27.0120 H   0  0  0  0  0  0  0  0  0  0  0  0
    3.2300   -7.3560  -28.3360 C   0  0  0  0  0  0  0  0  0  0  0  0
    3.7010   -7.3770  -29.6000 N   0  0  0  0  0  0  0  0  0  0  0  0
    4.1590   -8.5410  -30.0900 C   0  0  0  0  0  3  0  0  0  0  0  0
    4.1540   -9.7250  -29.3830 C   0  0  0  0  0  3  0  0  0  0  0  0
    3.5990   -9.7580  -28.0900 C   0  0  0  0  0  0  0  0  0  0  0  0
    3.5090  -10.9430  -27.3020 C   0  0  0  0  0  0  0  0  0  0  0  0
    2.9680  -10.9180  -26.0090 C   0  0  0  0  0  3  0  0  0  0  0  0
    2.4610   -9.7380  -25.4960 C   0  0  0  0  0  3  0  0  0  0  0  0
    2.5220   -8.5760  -26.2620 C   0  0  0  0  0  3  0  0  0  0  0  0
    3.1170   -8.5340  -27.5470 C   0  0  0  0  0  0  0  0  0  0  0  0
    3.9750  -12.2800  -27.7490 C   0  0  0  0  0  0  0  0  0  0  0  0
    3.4750  -12.7580  -28.9250 N   0  0  0  0  0  0  0  0  0  0  0  0
    4.7200  -12.9580  -27.0520 O   0  0  0  0  0  0  0  0  0  0  0  0
    3.7600  -13.6880  -29.2070 H   0  0  0  0  0  0  0  0  0  0  0  0
    2.7790  -12.2740  -29.4740 H   0  0  0  0  0  0  0  0  0  0  0  0
  1 10  1  0  0  0  0
  2  1  2  0  0  0  0
  3  2  1  0  0  0  0
  4  3  2  0  0  0  0
  4  5  1  0  0  0  0
  5  6  2  0  0  0  0
  6  1  1  0  0  0  0
  6  7  1  0  0  0  0
  8 15  1  0  0  0  0
  8  9  2  0  0  0  0
 10 11  1  0  0  0  0
 10  8  1  0  0  0  0
 12 20  1  0  0  0  0
 12 13  1  0  0  0  0
 14 13  2  0  0  0  0
 15 14  1  0  0  0  0
 16 17  1  0  0  0  0
 16 15  2  0  0  0  0
 17 12  2  0  0  0  0
 18 17  1  0  0  0  0
 20 19  1  0  0  0  0
 21 22  1  1  0  0  0
 21 23  1  0  0  0  0
 21  3  1  0  0  0  0
 23 24  1  0  0  0  0
 25 23  1  0  0  0  0
 25 34  1  0  0  0  0
 26 25  2  0  0  0  0
 27 26  1  0  0  0  0
 27 28  2  0  0  0  0
 28 29  1  0  0  0  0
 29 34  2  0  0  0  0
 29 30  1  0  0  0  0
 30 31  2  0  0  0  0
 31 32  1  0  0  0  0
 33 32  2  0  0  0  0
 34 33  1  0  0  0  0
 35 30  1  0  0  0  0
 35 37  2  0  0  0  0
 36 35  1  0  0  0  0
 38 36  1  0  0  0  0
 39 36  1  0  0  0  0
M  END
>  <minimizedAffinity>
-7.34442091

$$$$
