
 OpenBabel10152419543D

 39 42  0  0  1  0  0  0  0  0999 V2000
    2.7370   -9.8720  -26.7490 C   0  0  0  0  0  0  0  0  0  0  0  0
    1.4890   -9.3820  -26.3530 C   0  0  0  0  0  3  0  0  0  0  0  0
    0.3840  -10.2460  -26.2080 C   0  0  0  0  0  0  0  0  0  0  0  0
    0.5770  -11.6230  -26.4100 C   0  0  0  0  0  3  0  0  0  0  0  0
    1.8410  -12.1250  -26.7260 C   0  0  0  0  0  3  0  0  0  0  0  0
    2.9110  -11.2520  -26.8900 C   0  0  0  0  0  0  0  0  0  0  0  0
    4.1180  -11.7680  -27.1640 F   0  0  0  0  0  0  0  0  0  0  0  0
    3.6360   -7.6130  -27.4200 C   0  0  0  0  0  0  0  0  0  0  0  0
    4.6270   -7.0420  -27.8740 O   0  0  0  0  0  0  0  0  0  0  0  0
    3.7440   -8.9260  -27.0120 N   0  0  0  0  0  0  0  0  0  0  0  0
    4.7050   -9.2100  -26.8670 H   0  0  0  0  0  0  0  0  0  0  0  0
    0.0850   -5.2470  -26.8030 C   0  0  0  0  0  0  0  0  0  0  0  0
    0.7160   -5.2960  -28.0500 C   0  0  0  0  0  3  0  0  0  0  0  0
    1.8630   -6.0760  -28.2420 C   0  0  0  0  0  3  0  0  0  0  0  0
    2.3960   -6.8190  -27.1820 C   0  0  0  0  0  0  0  0  0  0  0  0
    1.8030   -6.7170  -25.9200 C   0  0  0  0  0  3  0  0  0  0  0  0
    0.6400   -5.9710  -25.7480 C   0  0  0  0  0  0  0  0  0  0  0  0
    0.0830   -5.9800  -24.5280 F   0  0  0  0  0  0  0  0  0  0  0  0
   -0.8220   -3.0500  -26.7060 C   0  0  0  0  0  1  0  0  0  0  0  0
   -1.0320   -4.4570  -26.7630 O   0  0  0  0  0  0  0  0  0  0  0  0
   -0.9970   -9.7130  -25.8310 C   0  0  1  0  0  3  0  0  0  0  0  0
   -1.9560  -10.8870  -25.5970 C   0  0  0  0  0  1  0  0  0  0  0  0
   -0.9230   -8.9060  -24.6210 N   0  0  0  0  0  0  0  0  0  0  0  0
   -1.2810   -7.9600  -24.7130 H   0  0  0  0  0  0  0  0  0  0  0  0
   -1.2740   -9.3480  -23.3610 C   0  0  0  0  0  0  0  0  0  0  0  0
   -2.0860   -8.4650  -22.7420 N   0  0  0  0  0  0  0  0  0  0  0  0
   -2.5660   -8.7840  -21.5290 C   0  0  0  0  0  3  0  0  0  0  0  0
   -2.2580   -9.9550  -20.8670 C   0  0  0  0  0  3  0  0  0  0  0  0
   -1.3550  -10.8630  -21.4470 C   0  0  0  0  0  0  0  0  0  0  0  0
   -0.9430  -12.0750  -20.8190 C   0  0  0  0  0  0  0  0  0  0  0  0
   -0.0580  -12.9580  -21.4510 C   0  0  0  0  0  3  0  0  0  0  0  0
    0.4750  -12.6360  -22.6860 C   0  0  0  0  0  3  0  0  0  0  0  0
    0.1000  -11.4450  -23.3030 C   0  0  0  0  0  3  0  0  0  0  0  0
   -0.8410  -10.5500  -22.7370 C   0  0  0  0  0  0  0  0  0  0  0  0
   -1.4050  -12.5190  -19.4790 C   0  0  0  0  0  0  0  0  0  0  0  0
   -0.4500  -12.8890  -18.5770 N   0  0  0  0  0  0  0  0  0  0  0  0
   -2.5970  -12.6200  -19.2200 O   0  0  0  0  0  0  0  0  0  0  0  0
   -0.7680  -13.2320  -17.6790 H   0  0  0  0  0  0  0  0  0  0  0  0
    0.5370  -12.9190  -18.7900 H   0  0  0  0  0  0  0  0  0  0  0  0
  1  2  1  0  0  0  0
  2  3  2  0  0  0  0
  3 21  1  0  0  0  0
  4  3  1  0  0  0  0
  5  4  2  0  0  0  0
  6  1  2  0  0  0  0
  6  5  1  0  0  0  0
  7  6  1  0  0  0  0
  8 15  1  0  0  0  0
  8 10  1  0  0  0  0
  9  8  2  0  0  0  0
 10 11  1  0  0  0  0
 10  1  1  0  0  0  0
 12 20  1  0  0  0  0
 12 17  1  0  0  0  0
 13 12  2  0  0  0  0
 14 13  1  0  0  0  0
 14 15  2  0  0  0  0
 15 16  1  0  0  0  0
 16 17  2  0  0  0  0
 17 18  1  0  0  0  0
 20 19  1  0  0  0  0
 21 22  1  1  0  0  0
 21 23  1  0  0  0  0
 23 25  1  0  0  0  0
 24 23  1  0  0  0  0
 25 26  2  0  0  0  0
 25 34  1  0  0  0  0
 26 27  1  0  0  0  0
 27 28  2  0  0  0  0
 29 28  1  0  0  0  0
 29 30  1  0  0  0  0
 30 35  1  0  0  0  0
 31 30  2  0  0  0  0
 32 31  1  0  0  0  0
 33 34  1  0  0  0  0
 33 32  2  0  0  0  0
 34 29  2  0  0  0  0
 35 37  2  0  0  0  0
 35 36  1  0  0  0  0
 36 38  1  0  0  0  0
 39 36  1  0  0  0  0
M  END
>  <minimizedAffinity>
-8.27085209

$$$$
