
 OpenBabel10152419543D

 39 42  0  0  1  0  0  0  0  0999 V2000
    0.7650  -11.7600  -25.7430 C   0  0  0  0  0  0  0  0  0  0  0  0
    1.9540  -11.3980  -26.3840 C   0  0  0  0  0  3  0  0  0  0  0  0
    3.2060  -11.6700  -25.7970 C   0  0  0  0  0  0  0  0  0  0  0  0
    3.2380  -12.3700  -24.5790 C   0  0  0  0  0  3  0  0  0  0  0  0
    2.0560  -12.8050  -23.9770 C   0  0  0  0  0  3  0  0  0  0  0  0
    0.8300  -12.5020  -24.5610 C   0  0  0  0  0  0  0  0  0  0  0  0
   -0.2860  -12.9590  -23.9740 F   0  0  0  0  0  0  0  0  0  0  0  0
   -1.5600  -10.7820  -25.7330 C   0  0  0  0  0  0  0  0  0  0  0  0
   -2.6110  -10.7330  -26.3720 O   0  0  0  0  0  0  0  0  0  0  0  0
   -0.4380  -11.3220  -26.3260 N   0  0  0  0  0  0  0  0  0  0  0  0
   -0.5170  -11.3710  -27.3350 H   0  0  0  0  0  0  0  0  0  0  0  0
   -1.4290   -8.9400  -21.8370 C   0  0  0  0  0  0  0  0  0  0  0  0
   -1.3510  -10.3290  -21.9860 C   0  0  0  0  0  3  0  0  0  0  0  0
   -1.3840  -10.9150  -23.2570 C   0  0  0  0  0  3  0  0  0  0  0  0
   -1.4990  -10.1170  -24.4000 C   0  0  0  0  0  0  0  0  0  0  0  0
   -1.6430   -8.7340  -24.2470 C   0  0  0  0  0  3  0  0  0  0  0  0
   -1.5690   -8.1560  -22.9820 C   0  0  0  0  0  0  0  0  0  0  0  0
   -1.6380   -6.8180  -22.9170 F   0  0  0  0  0  0  0  0  0  0  0  0
   -2.5470   -7.9010  -20.0130 C   0  0  0  0  0  1  0  0  0  0  0  0
   -1.3700   -8.5040  -20.5410 O   0  0  0  0  0  0  0  0  0  0  0  0
    4.5080  -11.2290  -26.4620 C   0  0  1  0  0  3  0  0  0  0  0  0
    4.4490  -11.5360  -27.9630 C   0  0  0  0  0  1  0  0  0  0  0  0
    4.7220   -9.8000  -26.2740 N   0  0  0  0  0  0  0  0  0  0  0  0
    5.6930   -9.5220  -26.1670 H   0  0  0  0  0  0  0  0  0  0  0  0
    4.0990   -8.8100  -27.0060 C   0  0  0  0  0  0  0  0  0  0  0  0
    4.7020   -8.6290  -28.1990 N   0  0  0  0  0  0  0  0  0  0  0  0
    4.1710   -7.7410  -29.0550 C   0  0  0  0  0  3  0  0  0  0  0  0
    3.0530   -6.9820  -28.7740 C   0  0  0  0  0  3  0  0  0  0  0  0
    2.4420   -7.0880  -27.5110 C   0  0  0  0  0  0  0  0  0  0  0  0
    1.3120   -6.3130  -27.1150 C   0  0  0  0  0  0  0  0  0  0  0  0
    0.7260   -6.4730  -25.8530 C   0  0  0  0  0  3  0  0  0  0  0  0
    1.2760   -7.3580  -24.9440 C   0  0  0  0  0  3  0  0  0  0  0  0
    2.3930   -8.1060  -25.3070 C   0  0  0  0  0  3  0  0  0  0  0  0
    2.9840   -8.0300  -26.5920 C   0  0  0  0  0  0  0  0  0  0  0  0
    0.6530   -5.2990  -27.9770 C   0  0  0  0  0  0  0  0  0  0  0  0
    1.4060   -4.2360  -28.3840 N   0  0  0  0  0  0  0  0  0  0  0  0
   -0.5390   -5.3750  -28.2490 O   0  0  0  0  0  0  0  0  0  0  0  0
    0.9440   -3.5240  -28.9360 H   0  0  0  0  0  0  0  0  0  0  0  0
    2.3610   -4.0850  -28.0940 H   0  0  0  0  0  0  0  0  0  0  0  0
  1  6  1  0  0  0  0
  2  3  1  0  0  0  0
  2  1  2  0  0  0  0
  3  4  2  0  0  0  0
  4  5  1  0  0  0  0
  6  5  2  0  0  0  0
  6  7  1  0  0  0  0
  8 15  1  0  0  0  0
  9  8  2  0  0  0  0
 10  1  1  0  0  0  0
 10  8  1  0  0  0  0
 11 10  1  0  0  0  0
 12 20  1  0  0  0  0
 13 12  1  0  0  0  0
 14 13  2  0  0  0  0
 15 16  2  0  0  0  0
 15 14  1  0  0  0  0
 16 17  1  0  0  0  0
 17 18  1  0  0  0  0
 17 12  2  0  0  0  0
 20 19  1  0  0  0  0
 21 22  1  6  0  0  0
 21 23  1  0  0  0  0
 21  3  1  0  0  0  0
 23 24  1  0  0  0  0
 25 34  1  0  0  0  0
 25 23  1  0  0  0  0
 26 25  2  0  0  0  0
 27 28  2  0  0  0  0
 27 26  1  0  0  0  0
 28 29  1  0  0  0  0
 29 30  2  0  0  0  0
 29 34  1  0  0  0  0
 30 31  1  0  0  0  0
 31 32  2  0  0  0  0
 33 32  1  0  0  0  0
 34 33  2  0  0  0  0
 35 30  1  0  0  0  0
 36 39  1  0  0  0  0
 36 35  1  0  0  0  0
 37 35  2  0  0  0  0
 38 36  1  0  0  0  0
M  END
>  <minimizedAffinity>
-9.66794014

$$$$
