
 OpenBabel10152419163D

 36 39  0  0  0  0  0  0  0  0999 V2000
   10.7880   -8.9980   10.0900 C   0  0  0  0  0  2  0  0  0  0  0  0
    4.9790  -10.1670    8.6890 C   0  0  0  0  0  0  0  0  0  0  0  0
    4.8640   -9.4730    7.4730 C   0  0  0  0  0  3  0  0  0  0  0  0
    5.9440   -8.7480    6.9990 C   0  0  0  0  0  3  0  0  0  0  0  0
    7.1220   -8.7220    7.7410 C   0  0  0  0  0  3  0  0  0  0  0  0
    7.2370   -9.4160    8.9760 C   0  0  0  0  0  0  0  0  0  0  0  0
    8.4030   -9.4360    9.7690 C   0  0  0  0  0  0  0  0  0  0  0  0
    9.5610   -8.7850    9.3400 N   0  0  0  0  0  0  0  0  0  0  0  0
    8.4710  -10.1350   10.9140 N   0  0  0  0  0  0  0  0  0  0  0  0
    7.3820  -10.8130   11.2750 C   0  0  0  0  0  3  0  0  0  0  0  0
    6.2340  -10.8650   10.6020 N   0  0  0  0  0  0  0  0  0  0  0  0
    6.1470  -10.1600    9.4610 C   0  0  0  0  0  0  0  0  0  0  0  0
    9.4300   -7.8520    8.9740 H   0  0  0  0  0  0  0  0  0  0  0  0
    3.6710  -11.0430   10.5100 N   0  0  0  0  0  0  0  0  0  0  0  0
    3.7950  -10.9190    9.1530 C   0  0  0  0  0  0  0  0  0  0  0  0
    3.0080  -11.4440    8.3800 O   0  0  0  0  0  0  0  0  0  0  0  0
    2.8680  -11.5500   10.8590 H   0  0  0  0  0  0  0  0  0  0  0  0
    4.2920  -10.5950   11.1690 H   0  0  0  0  0  0  0  0  0  0  0  0
   10.5200   -9.6000   11.4540 C   0  0  0  0  0  0  0  0  0  0  0  0
    9.8720   -8.8210   12.4230 C   0  0  0  0  0  3  0  0  0  0  0  0
    9.5080   -9.3750   13.6490 C   0  0  0  0  0  3  0  0  0  0  0  0
    9.7740  -10.7200   13.9210 C   0  0  0  0  0  3  0  0  0  0  0  0
   10.3930  -11.5240   12.9660 C   0  0  0  0  0  0  0  0  0  0  0  0
   10.7750  -10.9520   11.7450 C   0  0  0  0  0  3  0  0  0  0  0  0
   10.7030  -12.8840   13.1500 N   0  0  0  0  0  0  0  0  0  0  0  0
    9.9160  -14.0030   13.2740 C   0  0  0  0  0  0  0  0  0  0  0  0
   10.3990  -15.0630   13.6700 O   0  0  0  0  0  0  0  0  0  0  0  0
   11.6880  -13.1180   13.1970 H   0  0  0  0  0  0  0  0  0  0  0  0
    8.4980  -13.9970   12.8870 C   0  0  0  0  0  0  0  0  0  0  0  0
    7.5470  -13.9890   13.9190 C   0  0  0  0  0  3  0  0  0  0  0  0
    6.1870  -13.9890   13.6100 C   0  0  0  0  0  3  0  0  0  0  0  0
    5.7810  -14.0190   12.2750 C   0  0  0  0  0  0  0  0  0  0  0  0
    4.1040  -14.0110   11.8960 Cl  0  0  0  0  0  0  0  0  0  0  0  0
    6.7210  -14.0650   11.2460 C   0  0  0  0  0  3  0  0  0  0  0  0
    8.0850  -14.0650   11.5500 C   0  0  0  0  0  0  0  0  0  0  0  0
    9.1980  -14.1920   10.2360 Cl  0  0  0  0  0  0  0  0  0  0  0  0
  1 19  1  0  0  0  0
  2 15  1  0  0  0  0
  2 12  1  0  0  0  0
  3  2  2  0  0  0  0
  4  3  1  0  0  0  0
  4  5  2  0  0  0  0
  5  6  1  0  0  0  0
  6 12  2  0  0  0  0
  6  7  1  0  0  0  0
  7  9  2  0  0  0  0
  8  7  1  0  0  0  0
  8  1  1  0  0  0  0
  9 10  1  0  0  0  0
 11 10  2  0  0  0  0
 12 11  1  0  0  0  0
 13  8  1  0  0  0  0
 14 17  1  0  0  0  0
 14 18  1  0  0  0  0
 15 14  1  0  0  0  0
 16 15  2  0  0  0  0
 19 24  2  0  0  0  0
 19 20  1  0  0  0  0
 20 21  2  0  0  0  0
 21 22  1  0  0  0  0
 23 25  1  0  0  0  0
 23 22  2  0  0  0  0
 24 23  1  0  0  0  0
 25 28  1  0  0  0  0
 25 26  1  0  0  0  0
 26 27  2  0  0  0  0
 29 26  1  0  0  0  0
 29 30  1  0  0  0  0
 31 30  2  0  0  0  0
 32 31  1  0  0  0  0
 33 32  1  0  0  0  0
 34 35  1  0  0  0  0
 34 32  2  0  0  0  0
 35 29  2  0  0  0  0
 36 35  1  0  0  0  0
M  END
>  <minimizedAffinity>
14.2071714

$$$$
