
 OpenBabel11232420373D

 38 44  0  0  1  0  0  0  0  0999 V2000
    2.2790    7.7740   -6.2980 C   0  0  0  0  0  0  0  0  0  0  0  0
    2.1340    6.5740   -7.0250 C   0  0  0  0  0  3  0  0  0  0  0  0
    0.9450    5.8340   -7.0110 C   0  0  0  0  0  3  0  0  0  0  0  0
   -0.1620    6.2830   -6.2930 C   0  0  0  0  0  0  0  0  0  0  0  0
   -0.0600    7.4730   -5.5740 C   0  0  0  0  0  3  0  0  0  0  0  0
    1.1380    8.1980   -5.5770 C   0  0  0  0  0  3  0  0  0  0  0  0
   -1.3710    5.4860   -6.2690 C   0  0  0  0  0  0  0  0  0  0  0  0
   -2.3470    5.6790   -5.3180 N   0  0  0  0  0  0  0  0  0  0  0  0
   -3.2820    4.7970   -5.5990 C   0  0  0  0  0  0  0  0  0  0  0  0
   -2.9290    4.0350   -6.6780 N   0  0  0  0  0  0  0  0  0  0  0  0
   -1.7060    4.4590   -7.1430 C   0  0  0  0  0  0  0  0  0  0  0  0
   -3.8120    3.0180   -7.2180 C   0  0  0  0  0  2  0  0  0  0  0  0
   -4.7720    2.5150   -6.2650 O   0  0  0  0  0  0  0  0  0  0  0  0
   -5.2410    3.4000   -5.3330 C   0  0  0  0  0  0  0  0  0  0  0  0
   -6.4330    3.1230   -4.6860 C   0  0  0  0  0  3  0  0  0  0  0  0
   -6.9670    3.9160   -3.7280 N   0  0  0  0  0  0  0  0  0  0  0  0
   -6.2690    5.0230   -3.3870 C   0  0  0  0  0  3  0  0  0  0  0  0
   -5.0600    5.3760   -3.9590 C   0  0  0  0  0  3  0  0  0  0  0  0
   -4.5440    4.5430   -4.9480 C   0  0  0  0  0  0  0  0  0  0  0  0
   -0.9950    3.8560   -8.2600 C   0  0  0  0  0  0  0  0  0  0  0  0
    0.0360    2.9400   -8.0200 C   0  0  0  0  0  3  0  0  0  0  0  0
    0.7150    2.3480   -9.0860 C   0  0  0  0  0  3  0  0  0  0  0  0
    0.3690    2.6700  -10.3970 C   0  0  0  0  0  3  0  0  0  0  0  0
   -0.6530    3.5850  -10.6440 C   0  0  0  0  0  3  0  0  0  0  0  0
   -1.3350    4.1780   -9.5790 C   0  0  0  0  0  3  0  0  0  0  0  0
    3.6260    8.6220   -6.2830 C   0  0  2  0  0  0  0  0  0  0  0  0
    4.6880    8.3970   -5.1820 C   0  0  0  0  0  2  0  0  0  0  0  0
    4.3430    9.7840   -4.5510 C   0  0  1  0  0  0  0  0  0  0  0  0
    3.5440   10.1070   -5.8520 C   0  0  0  0  0  2  0  0  0  0  0  0
    4.2380    8.4800   -7.6290 N   0  0  0  0  0  4  0  0  0  0  0  0
    3.6070    8.8150   -8.3690 H   0  0  0  0  0  0  0  0  0  0  0  0
    4.4390    7.4930   -7.8390 H   0  0  0  0  0  0  0  0  0  0  0  0
    5.1210    9.0000   -7.7140 H   0  0  0  0  0  0  0  0  0  0  0  0
    3.6000    9.7080   -3.2250 C   0  0  0  0  0  3  0  0  0  0  0  0
    4.2870    9.7380   -1.8860 C   0  0  0  0  0  2  0  0  0  0  0  0
    3.3480   10.8470   -2.2770 C   0  0  0  0  0  2  0  0  0  0  0  0
    5.5240   10.6140   -4.4540 O   0  0  0  0  0  0  0  0  0  0  0  0
    5.2670   11.3720   -3.8930 H   0  0  0  0  0  0  0  0  0  0  0  0
  1 26  1  0  0  0  0
  1  6  1  0  0  0  0
  2  3  1  0  0  0  0
  2  1  2  0  0  0  0
  3  4  2  0  0  0  0
  4  7  1  0  0  0  0
  4  5  1  0  0  0  0
  6  5  2  0  0  0  0
  7  8  1  0  0  0  0
  9  8  2  0  0  0  0
  9 19  1  0  0  0  0
 10  9  1  0  0  0  0
 11 10  1  0  0  0  0
 11  7  2  0  0  0  0
 12 10  1  0  0  0  0
 12 13  1  0  0  0  0
 13 14  1  0  0  0  0
 14 19  2  0  0  0  0
 14 15  1  0  0  0  0
 15 16  2  0  0  0  0
 16 17  1  0  0  0  0
 18 17  2  0  0  0  0
 19 18  1  0  0  0  0
 20 21  1  0  0  0  0
 20 11  1  0  0  0  0
 22 21  2  0  0  0  0
 23 22  1  0  0  0  0
 24 23  2  0  0  0  0
 24 25  1  0  0  0  0
 25 20  2  0  0  0  0
 26 30  1  6  0  0  0
 26 29  1  0  0  0  0
 26 27  1  0  0  0  0
 27 28  1  0  0  0  0
 28 37  1  1  0  0  0
 28 34  1  0  0  0  0
 29 28  1  0  0  0  0
 31 30  1  0  0  0  0
 32 30  1  0  0  0  0
 33 30  1  0  0  0  0
 34 36  1  0  0  0  0
 34 35  1  0  0  0  0
 36 35  1  0  0  0  0
 37 38  1  0  0  0  0
M  END
>  <minimizedAffinity>
-10.9326258

$$$$
