
 OpenBabel11232420373D

 38 44  0  0  1  0  0  0  0  0999 V2000
   -3.4480    4.4310   -6.9660 C   0  0  0  0  0  0  0  0  0  0  0  0
   -2.6810    4.2850   -5.7900 C   0  0  0  0  0  3  0  0  0  0  0  0
   -1.4590    4.9450   -5.6110 C   0  0  0  0  0  3  0  0  0  0  0  0
   -0.9690    5.8070   -6.5900 C   0  0  0  0  0  0  0  0  0  0  0  0
   -1.7070    5.9880   -7.7590 C   0  0  0  0  0  3  0  0  0  0  0  0
   -2.9190    5.3090   -7.9390 C   0  0  0  0  0  3  0  0  0  0  0  0
    0.3110    6.4560   -6.3960 C   0  0  0  0  0  0  0  0  0  0  0  0
    1.4710    5.9450   -6.9330 N   0  0  0  0  0  0  0  0  0  0  0  0
    2.4190    6.7790   -6.5640 C   0  0  0  0  0  0  0  0  0  0  0  0
    1.9120    7.7890   -5.7950 N   0  0  0  0  0  0  0  0  0  0  0  0
    0.5530    7.6190   -5.6750 C   0  0  0  0  0  0  0  0  0  0  0  0
    2.7470    8.8670   -5.2980 C   0  0  0  0  0  2  0  0  0  0  0  0
    4.1450    8.5210   -5.2020 O   0  0  0  0  0  0  0  0  0  0  0  0
    4.6360    7.6550   -6.1410 C   0  0  0  0  0  0  0  0  0  0  0  0
    6.0000    7.6150   -6.3680 C   0  0  0  0  0  3  0  0  0  0  0  0
    6.5880    6.7750   -7.2520 N   0  0  0  0  0  0  0  0  0  0  0  0
    5.7800    5.9240   -7.9220 C   0  0  0  0  0  3  0  0  0  0  0  0
    4.4070    5.8720   -7.7510 C   0  0  0  0  0  3  0  0  0  0  0  0
    3.8340    6.7570   -6.8420 C   0  0  0  0  0  0  0  0  0  0  0  0
   -0.3200    8.4830   -4.8950 C   0  0  0  0  0  0  0  0  0  0  0  0
   -1.2730    9.2810   -5.5410 C   0  0  0  0  0  3  0  0  0  0  0  0
   -2.1220   10.1030   -4.8000 C   0  0  0  0  0  3  0  0  0  0  0  0
   -2.0220   10.1370   -3.4100 C   0  0  0  0  0  3  0  0  0  0  0  0
   -1.0720    9.3510   -2.7610 C   0  0  0  0  0  3  0  0  0  0  0  0
   -0.2220    8.5250   -3.5000 C   0  0  0  0  0  3  0  0  0  0  0  0
   -4.8300    3.6760   -7.1990 C   0  0  2  0  0  0  0  0  0  0  0  0
   -5.0540    2.2510   -6.6420 C   0  0  0  0  0  2  0  0  0  0  0  0
   -5.0110    1.6660   -8.0890 C   0  0  1  0  0  0  0  0  0  0  0  0
   -5.1270    3.1300   -8.6170 C   0  0  0  0  0  2  0  0  0  0  0  0
   -5.9030    4.5890   -6.7320 N   0  0  0  0  0  4  0  0  0  0  0  0
   -5.8890    5.4820   -7.2410 H   0  0  0  0  0  0  0  0  0  0  0  0
   -5.7850    4.8160   -5.7360 H   0  0  0  0  0  0  0  0  0  0  0  0
   -6.8410    4.1810   -6.8460 H   0  0  0  0  0  0  0  0  0  0  0  0
   -3.7590    0.8600   -8.4090 C   0  0  0  0  0  3  0  0  0  0  0  0
   -2.6110    1.3970   -9.2200 C   0  0  0  0  0  2  0  0  0  0  0  0
   -2.4060    1.0250   -7.7760 C   0  0  0  0  0  2  0  0  0  0  0  0
   -6.2150    0.9170   -8.3790 O   0  0  0  0  0  0  0  0  0  0  0  0
   -6.0320    0.4400   -9.2120 H   0  0  0  0  0  0  0  0  0  0  0  0
  1  2  1  0  0  0  0
  2  3  2  0  0  0  0
  4  7  1  0  0  0  0
  4  3  1  0  0  0  0
  5  4  2  0  0  0  0
  6  5  1  0  0  0  0
  6  1  2  0  0  0  0
  7 11  2  0  0  0  0
  8  9  2  0  0  0  0
  8  7  1  0  0  0  0
  9 10  1  0  0  0  0
 10 11  1  0  0  0  0
 10 12  1  0  0  0  0
 11 20  1  0  0  0  0
 12 13  1  0  0  0  0
 14 13  1  0  0  0  0
 15 14  1  0  0  0  0
 16 15  2  0  0  0  0
 17 18  2  0  0  0  0
 17 16  1  0  0  0  0
 18 19  1  0  0  0  0
 19  9  1  0  0  0  0
 19 14  2  0  0  0  0
 20 25  1  0  0  0  0
 21 20  2  0  0  0  0
 21 22  1  0  0  0  0
 22 23  2  0  0  0  0
 23 24  1  0  0  0  0
 25 24  2  0  0  0  0
 26  1  1  0  0  0  0
 26 30  1  1  0  0  0
 26 27  1  0  0  0  0
 28 37  1  6  0  0  0
 28 27  1  0  0  0  0
 29 28  1  0  0  0  0
 29 26  1  0  0  0  0
 30 32  1  0  0  0  0
 31 30  1  0  0  0  0
 33 30  1  0  0  0  0
 34 28  1  0  0  0  0
 34 36  1  0  0  0  0
 35 34  1  0  0  0  0
 35 36  1  0  0  0  0
 38 37  1  0  0  0  0
M  END
>  <minimizedAffinity>
-13.2032213

$$$$

 OpenBabel11232420373D

 38 44  0  0  1  0  0  0  0  0999 V2000
   -3.2950    4.3820   -6.8860 C   0  0  0  0  0  0  0  0  0  0  0  0
   -2.9020    5.4380   -7.7350 C   0  0  0  0  0  3  0  0  0  0  0  0
   -1.6540    6.0630   -7.6180 C   0  0  0  0  0  3  0  0  0  0  0  0
   -0.7320    5.6330   -6.6650 C   0  0  0  0  0  0  0  0  0  0  0  0
   -1.0800    4.5820   -5.8180 C   0  0  0  0  0  3  0  0  0  0  0  0
   -2.3370    3.9750   -5.9280 C   0  0  0  0  0  3  0  0  0  0  0  0
    0.5400    6.3140   -6.5420 C   0  0  0  0  0  0  0  0  0  0  0  0
    1.6800    5.8350   -7.1480 N   0  0  0  0  0  0  0  0  0  0  0  0
    2.6260    6.6920   -6.8290 C   0  0  0  0  0  0  0  0  0  0  0  0
    2.1380    7.6850   -6.0260 N   0  0  0  0  0  0  0  0  0  0  0  0
    0.7930    7.4790   -5.8290 C   0  0  0  0  0  0  0  0  0  0  0  0
    2.9730    8.7820   -5.5720 C   0  0  0  0  0  2  0  0  0  0  0  0
    4.3830    8.4720   -5.5580 O   0  0  0  0  0  0  0  0  0  0  0  0
    4.8400    7.6230   -6.5290 C   0  0  0  0  0  0  0  0  0  0  0  0
    6.1900    7.6200   -6.8340 C   0  0  0  0  0  3  0  0  0  0  0  0
    6.7480    6.7990   -7.7550 N   0  0  0  0  0  0  0  0  0  0  0  0
    5.9240    5.9300   -8.3830 C   0  0  0  0  0  3  0  0  0  0  0  0
    4.5650    5.8420   -8.1330 C   0  0  0  0  0  3  0  0  0  0  0  0
    4.0230    6.7080   -7.1870 C   0  0  0  0  0  0  0  0  0  0  0  0
   -0.0550    8.3180   -4.9950 C   0  0  0  0  0  0  0  0  0  0  0  0
    0.1030    8.3100   -3.6050 C   0  0  0  0  0  3  0  0  0  0  0  0
   -0.6980    9.1200   -2.7990 C   0  0  0  0  0  3  0  0  0  0  0  0
   -1.6640    9.9400   -3.3790 C   0  0  0  0  0  3  0  0  0  0  0  0
   -1.8330    9.9490   -4.7630 C   0  0  0  0  0  3  0  0  0  0  0  0
   -1.0310    9.1400   -5.5710 C   0  0  0  0  0  3  0  0  0  0  0  0
   -4.7150    3.6700   -6.9880 C   0  0  2  0  0  0  0  0  0  0  0  0
   -5.9870    4.3650   -6.4500 C   0  0  0  0  0  2  0  0  0  0  0  0
   -6.0630    3.3390   -5.2750 C   0  0  1  0  0  0  0  0  0  0  0  0
   -5.0020    2.4850   -6.0340 C   0  0  0  0  0  2  0  0  0  0  0  0
   -4.8990    3.2810   -8.4090 N   0  0  0  0  0  4  0  0  0  0  0  0
   -4.1540    2.6490   -8.7290 H   0  0  0  0  0  0  0  0  0  0  0  0
   -4.8690    4.1060   -9.0230 H   0  0  0  0  0  0  0  0  0  0  0  0
   -5.7990    2.8090   -8.5720 H   0  0  0  0  0  0  0  0  0  0  0  0
   -5.7140    3.9140   -3.9090 C   0  0  0  0  0  3  0  0  0  0  0  0
   -5.1610    5.2990   -3.7080 C   0  0  0  0  0  2  0  0  0  0  0  0
   -6.5060    4.9330   -3.1410 C   0  0  0  0  0  2  0  0  0  0  0  0
   -7.3460    2.6700   -5.2580 O   0  0  0  0  0  0  0  0  0  0  0  0
   -7.3830    2.1940   -4.4060 H   0  0  0  0  0  0  0  0  0  0  0  0
  1  6  1  0  0  0  0
  2  3  1  0  0  0  0
  2  1  2  0  0  0  0
  3  4  2  0  0  0  0
  4  7  1  0  0  0  0
  4  5  1  0  0  0  0
  6  5  2  0  0  0  0
  7 11  2  0  0  0  0
  8  9  2  0  0  0  0
  8  7  1  0  0  0  0
  9 10  1  0  0  0  0
 10 11  1  0  0  0  0
 10 12  1  0  0  0  0
 11 20  1  0  0  0  0
 12 13  1  0  0  0  0
 14 13  1  0  0  0  0
 15 14  1  0  0  0  0
 16 15  2  0  0  0  0
 17 18  2  0  0  0  0
 17 16  1  0  0  0  0
 18 19  1  0  0  0  0
 19  9  1  0  0  0  0
 19 14  2  0  0  0  0
 20 21  1  0  0  0  0
 21 22  2  0  0  0  0
 23 22  1  0  0  0  0
 24 23  2  0  0  0  0
 25 20  2  0  0  0  0
 25 24  1  0  0  0  0
 26 30  1  6  0  0  0
 26  1  1  0  0  0  0
 26 27  1  0  0  0  0
 26 29  1  0  0  0  0
 27 28  1  0  0  0  0
 28 37  1  1  0  0  0
 28 34  1  0  0  0  0
 29 28  1  0  0  0  0
 31 30  1  0  0  0  0
 32 30  1  0  0  0  0
 33 30  1  0  0  0  0
 34 35  1  0  0  0  0
 34 36  1  0  0  0  0
 35 36  1  0  0  0  0
 37 38  1  0  0  0  0
M  END
>  <minimizedAffinity>
-12.4029236

$$$$

 OpenBabel11232420373D

 38 44  0  0  1  0  0  0  0  0999 V2000
   -2.9630    4.5120   -6.9870 C   0  0  0  0  0  0  0  0  0  0  0  0
   -2.1170    4.1240   -5.9260 C   0  0  0  0  0  3  0  0  0  0  0  0
   -0.9160    4.7880   -5.6500 C   0  0  0  0  0  3  0  0  0  0  0  0
   -0.5260    5.8920   -6.4070 C   0  0  0  0  0  0  0  0  0  0  0  0
   -1.3430    6.3130   -7.4550 C   0  0  0  0  0  3  0  0  0  0  0  0
   -2.5340    5.6320   -7.7370 C   0  0  0  0  0  3  0  0  0  0  0  0
    0.7360    6.5450   -6.1230 C   0  0  0  0  0  0  0  0  0  0  0  0
    0.8340    7.5640   -5.2030 N   0  0  0  0  0  0  0  0  0  0  0  0
    2.1030    7.9080   -5.2030 C   0  0  0  0  0  0  0  0  0  0  0  0
    2.8130    7.1640   -6.1030 N   0  0  0  0  0  0  0  0  0  0  0  0
    1.9650    6.2660   -6.7080 C   0  0  0  0  0  0  0  0  0  0  0  0
    4.2470    7.3200   -6.2630 C   0  0  0  0  0  2  0  0  0  0  0  0
    4.7420    8.6100   -5.8470 O   0  0  0  0  0  0  0  0  0  0  0  0
    4.1040    9.2080   -4.7940 C   0  0  0  0  0  0  0  0  0  0  0  0
    4.7620   10.2000   -4.0880 C   0  0  0  0  0  3  0  0  0  0  0  0
    4.2090   10.8740   -3.0520 N   0  0  0  0  0  0  0  0  0  0  0  0
    2.9380   10.5560   -2.7200 C   0  0  0  0  0  3  0  0  0  0  0  0
    2.1900    9.5950   -3.3770 C   0  0  0  0  0  3  0  0  0  0  0  0
    2.7920    8.9140   -4.4320 C   0  0  0  0  0  0  0  0  0  0  0  0
    2.3610    5.3310   -7.7500 C   0  0  0  0  0  0  0  0  0  0  0  0
    3.6960    5.2740   -8.1670 C   0  0  0  0  0  3  0  0  0  0  0  0
    4.0870    4.3720   -9.1570 C   0  0  0  0  0  3  0  0  0  0  0  0
    3.1460    3.5240   -9.7380 C   0  0  0  0  0  3  0  0  0  0  0  0
    1.8130    3.5800   -9.3320 C   0  0  0  0  0  3  0  0  0  0  0  0
    1.4200    4.4810   -8.3400 C   0  0  0  0  0  3  0  0  0  0  0  0
   -4.3230    3.7600   -7.3310 C   0  0  2  0  0  0  0  0  0  0  0  0
   -4.5700    2.3130   -6.8430 C   0  0  0  0  0  2  0  0  0  0  0  0
   -4.4370    1.7850   -8.3060 C   0  0  1  0  0  0  0  0  0  0  0  0
   -4.5320    3.2670   -8.7840 C   0  0  0  0  0  2  0  0  0  0  0  0
   -5.4280    4.6490   -6.8940 N   0  0  0  0  0  4  0  0  0  0  0  0
   -5.3900    5.5620   -7.3670 H   0  0  0  0  0  0  0  0  0  0  0  0
   -5.3710    4.8390   -5.8850 H   0  0  0  0  0  0  0  0  0  0  0  0
   -6.3550    4.2420   -7.0790 H   0  0  0  0  0  0  0  0  0  0  0  0
   -3.1630    0.9970   -8.5810 C   0  0  0  0  0  3  0  0  0  0  0  0
   -2.4030    1.0750   -9.8770 C   0  0  0  0  0  2  0  0  0  0  0  0
   -1.7630    1.5430   -8.5990 C   0  0  0  0  0  2  0  0  0  0  0  0
   -5.6160    1.0420   -8.6960 O   0  0  0  0  0  0  0  0  0  0  0  0
   -5.3820    0.5990   -9.5340 H   0  0  0  0  0  0  0  0  0  0  0  0
  1  2  1  0  0  0  0
  2  3  2  0  0  0  0
  4  7  1  0  0  0  0
  4  3  1  0  0  0  0
  5  4  2  0  0  0  0
  6  5  1  0  0  0  0
  6  1  2  0  0  0  0
  7  8  1  0  0  0  0
  8  9  2  0  0  0  0
  9 19  1  0  0  0  0
 10  9  1  0  0  0  0
 11  7  2  0  0  0  0
 11 10  1  0  0  0  0
 12 10  1  0  0  0  0
 12 13  1  0  0  0  0
 13 14  1  0  0  0  0
 14 19  2  0  0  0  0
 14 15  1  0  0  0  0
 15 16  2  0  0  0  0
 16 17  1  0  0  0  0
 18 17  2  0  0  0  0
 19 18  1  0  0  0  0
 20 11  1  0  0  0  0
 21 20  1  0  0  0  0
 22 21  2  0  0  0  0
 23 24  2  0  0  0  0
 23 22  1  0  0  0  0
 24 25  1  0  0  0  0
 25 20  2  0  0  0  0
 26  1  1  0  0  0  0
 26 30  1  1  0  0  0
 26 27  1  0  0  0  0
 28 37  1  6  0  0  0
 28 27  1  0  0  0  0
 29 28  1  0  0  0  0
 29 26  1  0  0  0  0
 30 32  1  0  0  0  0
 31 30  1  0  0  0  0
 33 30  1  0  0  0  0
 34 28  1  0  0  0  0
 35 36  1  0  0  0  0
 35 34  1  0  0  0  0
 36 34  1  0  0  0  0
 38 37  1  0  0  0  0
M  END
>  <minimizedAffinity>
-11.3903761

$$$$

 OpenBabel11232420373D

 38 44  0  0  1  0  0  0  0  0999 V2000
    2.2790    7.7740   -6.2980 C   0  0  0  0  0  0  0  0  0  0  0  0
    2.1340    6.5740   -7.0250 C   0  0  0  0  0  3  0  0  0  0  0  0
    0.9450    5.8340   -7.0110 C   0  0  0  0  0  3  0  0  0  0  0  0
   -0.1620    6.2830   -6.2930 C   0  0  0  0  0  0  0  0  0  0  0  0
   -0.0600    7.4730   -5.5740 C   0  0  0  0  0  3  0  0  0  0  0  0
    1.1380    8.1980   -5.5770 C   0  0  0  0  0  3  0  0  0  0  0  0
   -1.3710    5.4860   -6.2690 C   0  0  0  0  0  0  0  0  0  0  0  0
   -2.3470    5.6790   -5.3180 N   0  0  0  0  0  0  0  0  0  0  0  0
   -3.2820    4.7970   -5.5990 C   0  0  0  0  0  0  0  0  0  0  0  0
   -2.9290    4.0350   -6.6780 N   0  0  0  0  0  0  0  0  0  0  0  0
   -1.7060    4.4590   -7.1430 C   0  0  0  0  0  0  0  0  0  0  0  0
   -3.8120    3.0180   -7.2180 C   0  0  0  0  0  2  0  0  0  0  0  0
   -4.7720    2.5150   -6.2650 O   0  0  0  0  0  0  0  0  0  0  0  0
   -5.2410    3.4000   -5.3330 C   0  0  0  0  0  0  0  0  0  0  0  0
   -6.4330    3.1230   -4.6860 C   0  0  0  0  0  3  0  0  0  0  0  0
   -6.9670    3.9160   -3.7280 N   0  0  0  0  0  0  0  0  0  0  0  0
   -6.2690    5.0230   -3.3870 C   0  0  0  0  0  3  0  0  0  0  0  0
   -5.0600    5.3760   -3.9590 C   0  0  0  0  0  3  0  0  0  0  0  0
   -4.5440    4.5430   -4.9480 C   0  0  0  0  0  0  0  0  0  0  0  0
   -0.9950    3.8560   -8.2600 C   0  0  0  0  0  0  0  0  0  0  0  0
    0.0360    2.9400   -8.0200 C   0  0  0  0  0  3  0  0  0  0  0  0
    0.7150    2.3480   -9.0860 C   0  0  0  0  0  3  0  0  0  0  0  0
    0.3690    2.6700  -10.3970 C   0  0  0  0  0  3  0  0  0  0  0  0
   -0.6530    3.5850  -10.6440 C   0  0  0  0  0  3  0  0  0  0  0  0
   -1.3350    4.1780   -9.5790 C   0  0  0  0  0  3  0  0  0  0  0  0
    3.6260    8.6220   -6.2830 C   0  0  2  0  0  0  0  0  0  0  0  0
    4.6880    8.3970   -5.1820 C   0  0  0  0  0  2  0  0  0  0  0  0
    4.3430    9.7840   -4.5510 C   0  0  1  0  0  0  0  0  0  0  0  0
    3.5440   10.1070   -5.8520 C   0  0  0  0  0  2  0  0  0  0  0  0
    4.2380    8.4800   -7.6290 N   0  0  0  0  0  4  0  0  0  0  0  0
    3.6070    8.8150   -8.3690 H   0  0  0  0  0  0  0  0  0  0  0  0
    4.4390    7.4930   -7.8390 H   0  0  0  0  0  0  0  0  0  0  0  0
    5.1210    9.0000   -7.7140 H   0  0  0  0  0  0  0  0  0  0  0  0
    3.6000    9.7080   -3.2250 C   0  0  0  0  0  3  0  0  0  0  0  0
    4.2870    9.7380   -1.8860 C   0  0  0  0  0  2  0  0  0  0  0  0
    3.3480   10.8470   -2.2770 C   0  0  0  0  0  2  0  0  0  0  0  0
    5.5240   10.6140   -4.4540 O   0  0  0  0  0  0  0  0  0  0  0  0
    5.2670   11.3720   -3.8930 H   0  0  0  0  0  0  0  0  0  0  0  0
  1 26  1  0  0  0  0
  1  6  1  0  0  0  0
  2  3  1  0  0  0  0
  2  1  2  0  0  0  0
  3  4  2  0  0  0  0
  4  7  1  0  0  0  0
  4  5  1  0  0  0  0
  6  5  2  0  0  0  0
  7  8  1  0  0  0  0
  9  8  2  0  0  0  0
  9 19  1  0  0  0  0
 10  9  1  0  0  0  0
 11 10  1  0  0  0  0
 11  7  2  0  0  0  0
 12 10  1  0  0  0  0
 12 13  1  0  0  0  0
 13 14  1  0  0  0  0
 14 19  2  0  0  0  0
 14 15  1  0  0  0  0
 15 16  2  0  0  0  0
 16 17  1  0  0  0  0
 18 17  2  0  0  0  0
 19 18  1  0  0  0  0
 20 21  1  0  0  0  0
 20 11  1  0  0  0  0
 22 21  2  0  0  0  0
 23 22  1  0  0  0  0
 24 23  2  0  0  0  0
 24 25  1  0  0  0  0
 25 20  2  0  0  0  0
 26 30  1  6  0  0  0
 26 29  1  0  0  0  0
 26 27  1  0  0  0  0
 27 28  1  0  0  0  0
 28 37  1  1  0  0  0
 28 34  1  0  0  0  0
 29 28  1  0  0  0  0
 31 30  1  0  0  0  0
 32 30  1  0  0  0  0
 33 30  1  0  0  0  0
 34 36  1  0  0  0  0
 34 35  1  0  0  0  0
 36 35  1  0  0  0  0
 37 38  1  0  0  0  0
M  END
>  <minimizedAffinity>
-10.9326258

$$$$

 OpenBabel11232420373D

 38 44  0  0  1  0  0  0  0  0999 V2000
   -2.6530    4.4990   -7.0650 C   0  0  0  0  0  0  0  0  0  0  0  0
   -1.7630    4.0670   -6.0590 C   0  0  0  0  0  3  0  0  0  0  0  0
   -0.5640    4.7380   -5.7880 C   0  0  0  0  0  3  0  0  0  0  0  0
   -0.2220    5.8910   -6.4910 C   0  0  0  0  0  0  0  0  0  0  0  0
   -1.0850    6.3560   -7.4830 C   0  0  0  0  0  3  0  0  0  0  0  0
   -2.2730    5.6690   -7.7620 C   0  0  0  0  0  3  0  0  0  0  0  0
    1.0380    6.5510   -6.2140 C   0  0  0  0  0  0  0  0  0  0  0  0
    1.1340    7.5730   -5.2970 N   0  0  0  0  0  0  0  0  0  0  0  0
    2.4020    7.9240   -5.3040 C   0  0  0  0  0  0  0  0  0  0  0  0
    3.1120    7.1810   -6.2050 N   0  0  0  0  0  0  0  0  0  0  0  0
    2.2660    6.2780   -6.8040 C   0  0  0  0  0  0  0  0  0  0  0  0
    4.5440    7.3440   -6.3720 C   0  0  0  0  0  2  0  0  0  0  0  0
    5.0350    8.6380   -5.9610 O   0  0  0  0  0  0  0  0  0  0  0  0
    4.3980    9.2340   -4.9060 C   0  0  0  0  0  0  0  0  0  0  0  0
    5.0540   10.2320   -4.2060 C   0  0  0  0  0  3  0  0  0  0  0  0
    4.5030   10.9050   -3.1680 N   0  0  0  0  0  0  0  0  0  0  0  0
    3.2340   10.5810   -2.8300 C   0  0  0  0  0  3  0  0  0  0  0  0
    2.4880    9.6150   -3.4820 C   0  0  0  0  0  3  0  0  0  0  0  0
    3.0890    8.9350   -4.5370 C   0  0  0  0  0  0  0  0  0  0  0  0
    2.6620    5.3430   -7.8460 C   0  0  0  0  0  0  0  0  0  0  0  0
    4.0080    5.2370   -8.2160 C   0  0  0  0  0  3  0  0  0  0  0  0
    4.3990    4.3350   -9.2050 C   0  0  0  0  0  3  0  0  0  0  0  0
    3.4460    3.5340   -9.8340 C   0  0  0  0  0  3  0  0  0  0  0  0
    2.1030    3.6380   -9.4760 C   0  0  0  0  0  3  0  0  0  0  0  0
    1.7100    4.5400   -8.4840 C   0  0  0  0  0  3  0  0  0  0  0  0
   -4.0120    3.7420   -7.4040 C   0  0  2  0  0  0  0  0  0  0  0  0
   -5.3710    4.3080   -6.9310 C   0  0  0  0  0  2  0  0  0  0  0  0
   -5.5090    3.1460   -5.8980 C   0  0  1  0  0  0  0  0  0  0  0  0
   -4.3270    2.4380   -6.6300 C   0  0  0  0  0  2  0  0  0  0  0  0
   -4.0250    3.5190   -8.8710 N   0  0  0  0  0  4  0  0  0  0  0  0
   -3.2150    2.9650   -9.1780 H   0  0  0  0  0  0  0  0  0  0  0  0
   -3.9790    4.4120   -9.3790 H   0  0  0  0  0  0  0  0  0  0  0  0
   -4.8740    3.0300   -9.1850 H   0  0  0  0  0  0  0  0  0  0  0  0
   -5.3360    3.5670   -4.4450 C   0  0  0  0  0  3  0  0  0  0  0  0
   -5.0490    4.9810   -4.0200 C   0  0  0  0  0  2  0  0  0  0  0  0
   -6.3340    4.3160   -3.6090 C   0  0  0  0  0  2  0  0  0  0  0  0
   -6.7460    2.4220   -6.0990 O   0  0  0  0  0  0  0  0  0  0  0  0
   -6.8420    1.8450   -5.3160 H   0  0  0  0  0  0  0  0  0  0  0  0
  1  2  1  0  0  0  0
  2  3  2  0  0  0  0
  4  7  1  0  0  0  0
  4  3  1  0  0  0  0
  5  4  2  0  0  0  0
  6  5  1  0  0  0  0
  6  1  2  0  0  0  0
  7  8  1  0  0  0  0
  9  8  2  0  0  0  0
  9 19  1  0  0  0  0
 10  9  1  0  0  0  0
 11  7  2  0  0  0  0
 11 10  1  0  0  0  0
 12 10  1  0  0  0  0
 12 13  1  0  0  0  0
 13 14  1  0  0  0  0
 14 19  2  0  0  0  0
 14 15  1  0  0  0  0
 15 16  2  0  0  0  0
 16 17  1  0  0  0  0
 18 17  2  0  0  0  0
 19 18  1  0  0  0  0
 20 11  1  0  0  0  0
 21 20  1  0  0  0  0
 22 21  2  0  0  0  0
 23 24  2  0  0  0  0
 23 22  1  0  0  0  0
 24 25  1  0  0  0  0
 25 20  2  0  0  0  0
 26 30  1  6  0  0  0
 26  1  1  0  0  0  0
 26 27  1  0  0  0  0
 26 29  1  0  0  0  0
 27 28  1  0  0  0  0
 28 37  1  6  0  0  0
 28 34  1  0  0  0  0
 29 28  1  0  0  0  0
 31 30  1  0  0  0  0
 32 30  1  0  0  0  0
 33 30  1  0  0  0  0
 34 35  1  0  0  0  0
 34 36  1  0  0  0  0
 35 36  1  0  0  0  0
 37 38  1  0  0  0  0
M  END
>  <minimizedAffinity>
-10.682847

$$$$

 OpenBabel11232420373D

 38 44  0  0  1  0  0  0  0  0999 V2000
    3.4240    5.3410   -8.2350 C   0  0  0  0  0  0  0  0  0  0  0  0
    2.6950    4.2140   -8.6710 C   0  0  0  0  0  3  0  0  0  0  0  0
    1.3570    4.0080   -8.3140 C   0  0  0  0  0  3  0  0  0  0  0  0
    0.6800    4.9420   -7.5310 C   0  0  0  0  0  0  0  0  0  0  0  0
    1.3640    6.0750   -7.0940 C   0  0  0  0  0  3  0  0  0  0  0  0
    2.7080    6.2650   -7.4390 C   0  0  0  0  0  3  0  0  0  0  0  0
   -0.6940    4.6930   -7.1490 C   0  0  0  0  0  0  0  0  0  0  0  0
   -1.3660    3.5620   -7.5530 N   0  0  0  0  0  0  0  0  0  0  0  0
   -2.5670    3.6670   -7.0270 C   0  0  0  0  0  0  0  0  0  0  0  0
   -2.6940    4.8310   -6.3220 N   0  0  0  0  0  0  0  0  0  0  0  0
   -1.5010    5.5140   -6.3700 C   0  0  0  0  0  0  0  0  0  0  0  0
   -3.9110    5.1640   -5.6050 C   0  0  0  0  0  2  0  0  0  0  0  0
   -5.0870    4.5010   -6.1180 O   0  0  0  0  0  0  0  0  0  0  0  0
   -4.9160    3.2420   -6.6250 C   0  0  0  0  0  0  0  0  0  0  0  0
   -6.0160    2.4090   -6.7330 C   0  0  0  0  0  3  0  0  0  0  0  0
   -5.9600    1.1580   -7.2480 N   0  0  0  0  0  0  0  0  0  0  0  0
   -4.7580    0.7300   -7.6950 C   0  0  0  0  0  3  0  0  0  0  0  0
   -3.6050    1.4950   -7.6510 C   0  0  0  0  0  3  0  0  0  0  0  0
   -3.6960    2.7720   -7.1050 C   0  0  0  0  0  0  0  0  0  0  0  0
   -1.2710    6.8150   -5.7610 C   0  0  0  0  0  0  0  0  0  0  0  0
   -1.4940    7.9820   -6.5000 C   0  0  0  0  0  3  0  0  0  0  0  0
   -1.2880    9.2350   -5.9200 C   0  0  0  0  0  3  0  0  0  0  0  0
   -0.8550    9.3270   -4.5980 C   0  0  0  0  0  3  0  0  0  0  0  0
   -0.6250    8.1690   -3.8570 C   0  0  0  0  0  3  0  0  0  0  0  0
   -0.8320    6.9150   -4.4360 C   0  0  0  0  0  3  0  0  0  0  0  0
    4.9500    5.5850   -8.6120 C   0  0  2  0  0  0  0  0  0  0  0  0
    6.0660    5.3850   -7.5600 C   0  0  0  0  0  2  0  0  0  0  0  0
    6.3040    6.9270   -7.5020 C   0  0  1  0  0  0  0  0  0  0  0  0
    5.4290    7.0480   -8.7880 C   0  0  0  0  0  2  0  0  0  0  0  0
    5.2290    4.7730   -9.8240 N   0  0  0  0  0  4  0  0  0  0  0  0
    4.6160    5.0370  -10.6060 H   0  0  0  0  0  0  0  0  0  0  0  0
    5.0620    3.7750   -9.6430 H   0  0  0  0  0  0  0  0  0  0  0  0
    6.2020    4.8700  -10.1450 H   0  0  0  0  0  0  0  0  0  0  0  0
    5.8300    7.5930   -6.2180 C   0  0  0  0  0  3  0  0  0  0  0  0
    5.4000    9.0320   -6.1390 C   0  0  0  0  0  2  0  0  0  0  0  0
    4.4110    7.9330   -5.8600 C   0  0  0  0  0  2  0  0  0  0  0  0
    7.6860    7.2460   -7.7890 O   0  0  0  0  0  0  0  0  0  0  0  0
    7.7910    8.1890   -7.5550 H   0  0  0  0  0  0  0  0  0  0  0  0
  1  6  1  0  0  0  0
  2  3  1  0  0  0  0
  2  1  2  0  0  0  0
  3  4  2  0  0  0  0
  4  7  1  0  0  0  0
  4  5  1  0  0  0  0
  6  5  2  0  0  0  0
  7 11  2  0  0  0  0
  8  7  1  0  0  0  0
  8  9  2  0  0  0  0
  9 10  1  0  0  0  0
 10 12  1  0  0  0  0
 11 10  1  0  0  0  0
 11 20  1  0  0  0  0
 13 12  1  0  0  0  0
 14 13  1  0  0  0  0
 15 14  1  0  0  0  0
 16 15  2  0  0  0  0
 17 18  2  0  0  0  0
 17 16  1  0  0  0  0
 18 19  1  0  0  0  0
 19  9  1  0  0  0  0
 19 14  2  0  0  0  0
 20 25  1  0  0  0  0
 21 22  1  0  0  0  0
 21 20  2  0  0  0  0
 22 23  2  0  0  0  0
 23 24  1  0  0  0  0
 25 24  2  0  0  0  0
 26 30  1  6  0  0  0
 26  1  1  0  0  0  0
 26 27  1  0  0  0  0
 27 28  1  0  0  0  0
 28 37  1  6  0  0  0
 28 34  1  0  0  0  0
 29 26  1  0  0  0  0
 29 28  1  0  0  0  0
 30 32  1  0  0  0  0
 31 30  1  0  0  0  0
 33 30  1  0  0  0  0
 34 35  1  0  0  0  0
 34 36  1  0  0  0  0
 35 36  1  0  0  0  0
 37 38  1  0  0  0  0
M  END
>  <minimizedAffinity>
-10.516161

$$$$

 OpenBabel11232420373D

 38 44  0  0  1  0  0  0  0  0999 V2000
    3.5820    5.0220   -8.3880 C   0  0  0  0  0  0  0  0  0  0  0  0
    2.7340    4.0330   -8.9310 C   0  0  0  0  0  3  0  0  0  0  0  0
    1.3990    3.8970   -8.5310 C   0  0  0  0  0  3  0  0  0  0  0  0
    0.8470    4.7680   -7.5940 C   0  0  0  0  0  0  0  0  0  0  0  0
    1.6520    5.7660   -7.0460 C   0  0  0  0  0  3  0  0  0  0  0  0
    2.9910    5.8840   -7.4370 C   0  0  0  0  0  3  0  0  0  0  0  0
   -0.5280    4.5900   -7.1730 C   0  0  0  0  0  0  0  0  0  0  0  0
   -1.2640    3.4900   -7.5500 N   0  0  0  0  0  0  0  0  0  0  0  0
   -2.4440    3.6570   -6.9930 C   0  0  0  0  0  0  0  0  0  0  0  0
   -2.4950    4.8300   -6.2930 N   0  0  0  0  0  0  0  0  0  0  0  0
   -1.2720    5.4530   -6.3780 C   0  0  0  0  0  0  0  0  0  0  0  0
   -3.6740    5.2260   -5.5470 C   0  0  0  0  0  2  0  0  0  0  0  0
   -4.8950    4.6190   -6.0220 O   0  0  0  0  0  0  0  0  0  0  0  0
   -4.7990    3.3500   -6.5250 C   0  0  0  0  0  0  0  0  0  0  0  0
   -5.9410    2.5700   -6.5970 C   0  0  0  0  0  3  0  0  0  0  0  0
   -5.9600    1.3150   -7.1040 N   0  0  0  0  0  0  0  0  0  0  0  0
   -4.7930    0.8270   -7.5800 C   0  0  0  0  0  3  0  0  0  0  0  0
   -3.6030    1.5340   -7.5730 C   0  0  0  0  0  3  0  0  0  0  0  0
   -3.6170    2.8180   -7.0340 C   0  0  0  0  0  0  0  0  0  0  0  0
   -0.9630    6.7450   -5.7850 C   0  0  0  0  0  0  0  0  0  0  0  0
   -1.2410    7.9230   -6.4900 C   0  0  0  0  0  3  0  0  0  0  0  0
   -0.9590    9.1660   -5.9240 C   0  0  0  0  0  3  0  0  0  0  0  0
   -0.3940    9.2410   -4.6510 C   0  0  0  0  0  3  0  0  0  0  0  0
   -0.1080    8.0730   -3.9460 C   0  0  0  0  0  3  0  0  0  0  0  0
   -0.3910    6.8270   -4.5100 C   0  0  0  0  0  3  0  0  0  0  0  0
    5.1080    5.1820   -8.8130 C   0  0  2  0  0  0  0  0  0  0  0  0
    5.6300    4.5620  -10.1300 C   0  0  0  0  0  2  0  0  0  0  0  0
    6.4390    3.4990   -9.3210 C   0  0  1  0  0  0  0  0  0  0  0  0
    6.1660    4.3530   -8.0450 C   0  0  0  0  0  2  0  0  0  0  0  0
    5.4170    6.6340   -8.7670 N   0  0  0  0  0  4  0  0  0  0  0  0
    5.2590    7.0250   -7.8290 H   0  0  0  0  0  0  0  0  0  0  0  0
    4.8100    7.1590   -9.4100 H   0  0  0  0  0  0  0  0  0  0  0  0
    6.3910    6.8350   -9.0280 H   0  0  0  0  0  0  0  0  0  0  0  0
    5.8800    2.0850   -9.4010 C   0  0  0  0  0  3  0  0  0  0  0  0
    6.5290    0.8980   -8.7420 C   0  0  0  0  0  2  0  0  0  0  0  0
    5.1610    1.3470   -8.3070 C   0  0  0  0  0  2  0  0  0  0  0  0
    7.8410    3.5380   -9.6760 O   0  0  0  0  0  0  0  0  0  0  0  0
    8.2350    2.7390   -9.2760 H   0  0  0  0  0  0  0  0  0  0  0  0
  1  6  1  0  0  0  0
  2  3  1  0  0  0  0
  2  1  2  0  0  0  0
  3  4  2  0  0  0  0
  4  7  1  0  0  0  0
  4  5  1  0  0  0  0
  6  5  2  0  0  0  0
  7 11  2  0  0  0  0
  8  7  1  0  0  0  0
  8  9  2  0  0  0  0
  9 10  1  0  0  0  0
 10 12  1  0  0  0  0
 11 10  1  0  0  0  0
 11 20  1  0  0  0  0
 13 12  1  0  0  0  0
 14 13  1  0  0  0  0
 15 14  1  0  0  0  0
 16 15  2  0  0  0  0
 17 18  2  0  0  0  0
 17 16  1  0  0  0  0
 18 19  1  0  0  0  0
 19  9  1  0  0  0  0
 19 14  2  0  0  0  0
 20 25  1  0  0  0  0
 21 22  1  0  0  0  0
 21 20  2  0  0  0  0
 22 23  2  0  0  0  0
 23 24  1  0  0  0  0
 25 24  2  0  0  0  0
 26 30  1  1  0  0  0
 26  1  1  0  0  0  0
 26 29  1  0  0  0  0
 27 28  1  0  0  0  0
 27 26  1  0  0  0  0
 28 37  1  6  0  0  0
 28 29  1  0  0  0  0
 30 31  1  0  0  0  0
 32 30  1  0  0  0  0
 33 30  1  0  0  0  0
 34 28  1  0  0  0  0
 34 35  1  0  0  0  0
 34 36  1  0  0  0  0
 35 36  1  0  0  0  0
 37 38  1  0  0  0  0
M  END
>  <minimizedAffinity>
-10.4393673

$$$$
