
 OpenBabel11232420373D

 38 44  0  0  1  0  0  0  0  0999 V2000
   -2.6530    4.4990   -7.0650 C   0  0  0  0  0  0  0  0  0  0  0  0
   -1.7630    4.0670   -6.0590 C   0  0  0  0  0  3  0  0  0  0  0  0
   -0.5640    4.7380   -5.7880 C   0  0  0  0  0  3  0  0  0  0  0  0
   -0.2220    5.8910   -6.4910 C   0  0  0  0  0  0  0  0  0  0  0  0
   -1.0850    6.3560   -7.4830 C   0  0  0  0  0  3  0  0  0  0  0  0
   -2.2730    5.6690   -7.7620 C   0  0  0  0  0  3  0  0  0  0  0  0
    1.0380    6.5510   -6.2140 C   0  0  0  0  0  0  0  0  0  0  0  0
    1.1340    7.5730   -5.2970 N   0  0  0  0  0  0  0  0  0  0  0  0
    2.4020    7.9240   -5.3040 C   0  0  0  0  0  0  0  0  0  0  0  0
    3.1120    7.1810   -6.2050 N   0  0  0  0  0  0  0  0  0  0  0  0
    2.2660    6.2780   -6.8040 C   0  0  0  0  0  0  0  0  0  0  0  0
    4.5440    7.3440   -6.3720 C   0  0  0  0  0  2  0  0  0  0  0  0
    5.0350    8.6380   -5.9610 O   0  0  0  0  0  0  0  0  0  0  0  0
    4.3980    9.2340   -4.9060 C   0  0  0  0  0  0  0  0  0  0  0  0
    5.0540   10.2320   -4.2060 C   0  0  0  0  0  3  0  0  0  0  0  0
    4.5030   10.9050   -3.1680 N   0  0  0  0  0  0  0  0  0  0  0  0
    3.2340   10.5810   -2.8300 C   0  0  0  0  0  3  0  0  0  0  0  0
    2.4880    9.6150   -3.4820 C   0  0  0  0  0  3  0  0  0  0  0  0
    3.0890    8.9350   -4.5370 C   0  0  0  0  0  0  0  0  0  0  0  0
    2.6620    5.3430   -7.8460 C   0  0  0  0  0  0  0  0  0  0  0  0
    4.0080    5.2370   -8.2160 C   0  0  0  0  0  3  0  0  0  0  0  0
    4.3990    4.3350   -9.2050 C   0  0  0  0  0  3  0  0  0  0  0  0
    3.4460    3.5340   -9.8340 C   0  0  0  0  0  3  0  0  0  0  0  0
    2.1030    3.6380   -9.4760 C   0  0  0  0  0  3  0  0  0  0  0  0
    1.7100    4.5400   -8.4840 C   0  0  0  0  0  3  0  0  0  0  0  0
   -4.0120    3.7420   -7.4040 C   0  0  2  0  0  0  0  0  0  0  0  0
   -5.3710    4.3080   -6.9310 C   0  0  0  0  0  2  0  0  0  0  0  0
   -5.5090    3.1460   -5.8980 C   0  0  1  0  0  0  0  0  0  0  0  0
   -4.3270    2.4380   -6.6300 C   0  0  0  0  0  2  0  0  0  0  0  0
   -4.0250    3.5190   -8.8710 N   0  0  0  0  0  4  0  0  0  0  0  0
   -3.2150    2.9650   -9.1780 H   0  0  0  0  0  0  0  0  0  0  0  0
   -3.9790    4.4120   -9.3790 H   0  0  0  0  0  0  0  0  0  0  0  0
   -4.8740    3.0300   -9.1850 H   0  0  0  0  0  0  0  0  0  0  0  0
   -5.3360    3.5670   -4.4450 C   0  0  0  0  0  3  0  0  0  0  0  0
   -5.0490    4.9810   -4.0200 C   0  0  0  0  0  2  0  0  0  0  0  0
   -6.3340    4.3160   -3.6090 C   0  0  0  0  0  2  0  0  0  0  0  0
   -6.7460    2.4220   -6.0990 O   0  0  0  0  0  0  0  0  0  0  0  0
   -6.8420    1.8450   -5.3160 H   0  0  0  0  0  0  0  0  0  0  0  0
  1  2  1  0  0  0  0
  2  3  2  0  0  0  0
  4  7  1  0  0  0  0
  4  3  1  0  0  0  0
  5  4  2  0  0  0  0
  6  5  1  0  0  0  0
  6  1  2  0  0  0  0
  7  8  1  0  0  0  0
  9  8  2  0  0  0  0
  9 19  1  0  0  0  0
 10  9  1  0  0  0  0
 11  7  2  0  0  0  0
 11 10  1  0  0  0  0
 12 10  1  0  0  0  0
 12 13  1  0  0  0  0
 13 14  1  0  0  0  0
 14 19  2  0  0  0  0
 14 15  1  0  0  0  0
 15 16  2  0  0  0  0
 16 17  1  0  0  0  0
 18 17  2  0  0  0  0
 19 18  1  0  0  0  0
 20 11  1  0  0  0  0
 21 20  1  0  0  0  0
 22 21  2  0  0  0  0
 23 24  2  0  0  0  0
 23 22  1  0  0  0  0
 24 25  1  0  0  0  0
 25 20  2  0  0  0  0
 26 30  1  6  0  0  0
 26  1  1  0  0  0  0
 26 27  1  0  0  0  0
 26 29  1  0  0  0  0
 27 28  1  0  0  0  0
 28 37  1  6  0  0  0
 28 34  1  0  0  0  0
 29 28  1  0  0  0  0
 31 30  1  0  0  0  0
 32 30  1  0  0  0  0
 33 30  1  0  0  0  0
 34 35  1  0  0  0  0
 34 36  1  0  0  0  0
 35 36  1  0  0  0  0
 37 38  1  0  0  0  0
M  END
>  <minimizedAffinity>
-10.682847

$$$$
