
 OpenBabel11232420373D

 38 44  0  0  1  0  0  0  0  0999 V2000
   -2.9630    4.5120   -6.9870 C   0  0  0  0  0  0  0  0  0  0  0  0
   -2.1170    4.1240   -5.9260 C   0  0  0  0  0  3  0  0  0  0  0  0
   -0.9160    4.7880   -5.6500 C   0  0  0  0  0  3  0  0  0  0  0  0
   -0.5260    5.8920   -6.4070 C   0  0  0  0  0  0  0  0  0  0  0  0
   -1.3430    6.3130   -7.4550 C   0  0  0  0  0  3  0  0  0  0  0  0
   -2.5340    5.6320   -7.7370 C   0  0  0  0  0  3  0  0  0  0  0  0
    0.7360    6.5450   -6.1230 C   0  0  0  0  0  0  0  0  0  0  0  0
    0.8340    7.5640   -5.2030 N   0  0  0  0  0  0  0  0  0  0  0  0
    2.1030    7.9080   -5.2030 C   0  0  0  0  0  0  0  0  0  0  0  0
    2.8130    7.1640   -6.1030 N   0  0  0  0  0  0  0  0  0  0  0  0
    1.9650    6.2660   -6.7080 C   0  0  0  0  0  0  0  0  0  0  0  0
    4.2470    7.3200   -6.2630 C   0  0  0  0  0  2  0  0  0  0  0  0
    4.7420    8.6100   -5.8470 O   0  0  0  0  0  0  0  0  0  0  0  0
    4.1040    9.2080   -4.7940 C   0  0  0  0  0  0  0  0  0  0  0  0
    4.7620   10.2000   -4.0880 C   0  0  0  0  0  3  0  0  0  0  0  0
    4.2090   10.8740   -3.0520 N   0  0  0  0  0  0  0  0  0  0  0  0
    2.9380   10.5560   -2.7200 C   0  0  0  0  0  3  0  0  0  0  0  0
    2.1900    9.5950   -3.3770 C   0  0  0  0  0  3  0  0  0  0  0  0
    2.7920    8.9140   -4.4320 C   0  0  0  0  0  0  0  0  0  0  0  0
    2.3610    5.3310   -7.7500 C   0  0  0  0  0  0  0  0  0  0  0  0
    3.6960    5.2740   -8.1670 C   0  0  0  0  0  3  0  0  0  0  0  0
    4.0870    4.3720   -9.1570 C   0  0  0  0  0  3  0  0  0  0  0  0
    3.1460    3.5240   -9.7380 C   0  0  0  0  0  3  0  0  0  0  0  0
    1.8130    3.5800   -9.3320 C   0  0  0  0  0  3  0  0  0  0  0  0
    1.4200    4.4810   -8.3400 C   0  0  0  0  0  3  0  0  0  0  0  0
   -4.3230    3.7600   -7.3310 C   0  0  2  0  0  0  0  0  0  0  0  0
   -4.5700    2.3130   -6.8430 C   0  0  0  0  0  2  0  0  0  0  0  0
   -4.4370    1.7850   -8.3060 C   0  0  1  0  0  0  0  0  0  0  0  0
   -4.5320    3.2670   -8.7840 C   0  0  0  0  0  2  0  0  0  0  0  0
   -5.4280    4.6490   -6.8940 N   0  0  0  0  0  4  0  0  0  0  0  0
   -5.3900    5.5620   -7.3670 H   0  0  0  0  0  0  0  0  0  0  0  0
   -5.3710    4.8390   -5.8850 H   0  0  0  0  0  0  0  0  0  0  0  0
   -6.3550    4.2420   -7.0790 H   0  0  0  0  0  0  0  0  0  0  0  0
   -3.1630    0.9970   -8.5810 C   0  0  0  0  0  3  0  0  0  0  0  0
   -2.4030    1.0750   -9.8770 C   0  0  0  0  0  2  0  0  0  0  0  0
   -1.7630    1.5430   -8.5990 C   0  0  0  0  0  2  0  0  0  0  0  0
   -5.6160    1.0420   -8.6960 O   0  0  0  0  0  0  0  0  0  0  0  0
   -5.3820    0.5990   -9.5340 H   0  0  0  0  0  0  0  0  0  0  0  0
  1  2  1  0  0  0  0
  2  3  2  0  0  0  0
  4  7  1  0  0  0  0
  4  3  1  0  0  0  0
  5  4  2  0  0  0  0
  6  5  1  0  0  0  0
  6  1  2  0  0  0  0
  7  8  1  0  0  0  0
  8  9  2  0  0  0  0
  9 19  1  0  0  0  0
 10  9  1  0  0  0  0
 11  7  2  0  0  0  0
 11 10  1  0  0  0  0
 12 10  1  0  0  0  0
 12 13  1  0  0  0  0
 13 14  1  0  0  0  0
 14 19  2  0  0  0  0
 14 15  1  0  0  0  0
 15 16  2  0  0  0  0
 16 17  1  0  0  0  0
 18 17  2  0  0  0  0
 19 18  1  0  0  0  0
 20 11  1  0  0  0  0
 21 20  1  0  0  0  0
 22 21  2  0  0  0  0
 23 24  2  0  0  0  0
 23 22  1  0  0  0  0
 24 25  1  0  0  0  0
 25 20  2  0  0  0  0
 26  1  1  0  0  0  0
 26 30  1  1  0  0  0
 26 27  1  0  0  0  0
 28 37  1  6  0  0  0
 28 27  1  0  0  0  0
 29 28  1  0  0  0  0
 29 26  1  0  0  0  0
 30 32  1  0  0  0  0
 31 30  1  0  0  0  0
 33 30  1  0  0  0  0
 34 28  1  0  0  0  0
 35 36  1  0  0  0  0
 35 34  1  0  0  0  0
 36 34  1  0  0  0  0
 38 37  1  0  0  0  0
M  END
>  <minimizedAffinity>
-11.3903761

$$$$
