
 OpenBabel11232420373D

 38 44  0  0  1  0  0  0  0  0999 V2000
   -3.4480    4.4310   -6.9660 C   0  0  0  0  0  0  0  0  0  0  0  0
   -2.6810    4.2850   -5.7900 C   0  0  0  0  0  3  0  0  0  0  0  0
   -1.4590    4.9450   -5.6110 C   0  0  0  0  0  3  0  0  0  0  0  0
   -0.9690    5.8070   -6.5900 C   0  0  0  0  0  0  0  0  0  0  0  0
   -1.7070    5.9880   -7.7590 C   0  0  0  0  0  3  0  0  0  0  0  0
   -2.9190    5.3090   -7.9390 C   0  0  0  0  0  3  0  0  0  0  0  0
    0.3110    6.4560   -6.3960 C   0  0  0  0  0  0  0  0  0  0  0  0
    1.4710    5.9450   -6.9330 N   0  0  0  0  0  0  0  0  0  0  0  0
    2.4190    6.7790   -6.5640 C   0  0  0  0  0  0  0  0  0  0  0  0
    1.9120    7.7890   -5.7950 N   0  0  0  0  0  0  0  0  0  0  0  0
    0.5530    7.6190   -5.6750 C   0  0  0  0  0  0  0  0  0  0  0  0
    2.7470    8.8670   -5.2980 C   0  0  0  0  0  2  0  0  0  0  0  0
    4.1450    8.5210   -5.2020 O   0  0  0  0  0  0  0  0  0  0  0  0
    4.6360    7.6550   -6.1410 C   0  0  0  0  0  0  0  0  0  0  0  0
    6.0000    7.6150   -6.3680 C   0  0  0  0  0  3  0  0  0  0  0  0
    6.5880    6.7750   -7.2520 N   0  0  0  0  0  0  0  0  0  0  0  0
    5.7800    5.9240   -7.9220 C   0  0  0  0  0  3  0  0  0  0  0  0
    4.4070    5.8720   -7.7510 C   0  0  0  0  0  3  0  0  0  0  0  0
    3.8340    6.7570   -6.8420 C   0  0  0  0  0  0  0  0  0  0  0  0
   -0.3200    8.4830   -4.8950 C   0  0  0  0  0  0  0  0  0  0  0  0
   -1.2730    9.2810   -5.5410 C   0  0  0  0  0  3  0  0  0  0  0  0
   -2.1220   10.1030   -4.8000 C   0  0  0  0  0  3  0  0  0  0  0  0
   -2.0220   10.1370   -3.4100 C   0  0  0  0  0  3  0  0  0  0  0  0
   -1.0720    9.3510   -2.7610 C   0  0  0  0  0  3  0  0  0  0  0  0
   -0.2220    8.5250   -3.5000 C   0  0  0  0  0  3  0  0  0  0  0  0
   -4.8300    3.6760   -7.1990 C   0  0  2  0  0  0  0  0  0  0  0  0
   -5.0540    2.2510   -6.6420 C   0  0  0  0  0  2  0  0  0  0  0  0
   -5.0110    1.6660   -8.0890 C   0  0  1  0  0  0  0  0  0  0  0  0
   -5.1270    3.1300   -8.6170 C   0  0  0  0  0  2  0  0  0  0  0  0
   -5.9030    4.5890   -6.7320 N   0  0  0  0  0  4  0  0  0  0  0  0
   -5.8890    5.4820   -7.2410 H   0  0  0  0  0  0  0  0  0  0  0  0
   -5.7850    4.8160   -5.7360 H   0  0  0  0  0  0  0  0  0  0  0  0
   -6.8410    4.1810   -6.8460 H   0  0  0  0  0  0  0  0  0  0  0  0
   -3.7590    0.8600   -8.4090 C   0  0  0  0  0  3  0  0  0  0  0  0
   -2.6110    1.3970   -9.2200 C   0  0  0  0  0  2  0  0  0  0  0  0
   -2.4060    1.0250   -7.7760 C   0  0  0  0  0  2  0  0  0  0  0  0
   -6.2150    0.9170   -8.3790 O   0  0  0  0  0  0  0  0  0  0  0  0
   -6.0320    0.4400   -9.2120 H   0  0  0  0  0  0  0  0  0  0  0  0
  1  2  1  0  0  0  0
  2  3  2  0  0  0  0
  4  7  1  0  0  0  0
  4  3  1  0  0  0  0
  5  4  2  0  0  0  0
  6  5  1  0  0  0  0
  6  1  2  0  0  0  0
  7 11  2  0  0  0  0
  8  9  2  0  0  0  0
  8  7  1  0  0  0  0
  9 10  1  0  0  0  0
 10 11  1  0  0  0  0
 10 12  1  0  0  0  0
 11 20  1  0  0  0  0
 12 13  1  0  0  0  0
 14 13  1  0  0  0  0
 15 14  1  0  0  0  0
 16 15  2  0  0  0  0
 17 18  2  0  0  0  0
 17 16  1  0  0  0  0
 18 19  1  0  0  0  0
 19  9  1  0  0  0  0
 19 14  2  0  0  0  0
 20 25  1  0  0  0  0
 21 20  2  0  0  0  0
 21 22  1  0  0  0  0
 22 23  2  0  0  0  0
 23 24  1  0  0  0  0
 25 24  2  0  0  0  0
 26  1  1  0  0  0  0
 26 30  1  1  0  0  0
 26 27  1  0  0  0  0
 28 37  1  6  0  0  0
 28 27  1  0  0  0  0
 29 28  1  0  0  0  0
 29 26  1  0  0  0  0
 30 32  1  0  0  0  0
 31 30  1  0  0  0  0
 33 30  1  0  0  0  0
 34 28  1  0  0  0  0
 34 36  1  0  0  0  0
 35 34  1  0  0  0  0
 35 36  1  0  0  0  0
 38 37  1  0  0  0  0
M  END
>  <minimizedAffinity>
-13.2032213

$$$$
