
 OpenBabel11232419233D

 39 44  0  0  1  0  0  0  0  0999 V2000
   36.1430   44.4260   18.2420 C   0  0  0  0  0  0  0  0  0  0  0  0
   36.2980   43.9980   19.5270 N   0  0  0  0  0  0  0  0  0  0  0  0
   37.4800   44.2130   20.1410 C   0  0  0  0  0  0  0  0  0  0  0  0
   37.5620   43.7420   21.5240 C   0  0  0  0  0  3  0  0  0  0  0  0
   38.6890   43.9080   22.2280 C   0  0  0  0  0  3  0  0  0  0  0  0
   39.8110   44.5320   21.6330 C   0  0  0  0  0  0  0  0  0  0  0  0
   40.9990   44.7870   22.1290 N   0  0  0  0  0  0  0  0  0  0  0  0
   41.7390   45.3900   21.1560 N   0  0  0  0  0  0  0  0  0  0  0  0
   40.9980   45.5000   20.0670 C   0  0  0  0  0  0  0  0  0  0  0  0
   39.7410   44.9800   20.3160 N   0  0  0  0  0  0  0  0  0  0  0  0
   38.5640   44.8420   19.5340 C   0  0  0  0  0  0  0  0  0  0  0  0
   38.3970   45.2910   18.2270 C   0  0  0  0  0  3  0  0  0  0  0  0
   37.1730   45.0960   17.5500 C   0  0  0  0  0  0  0  0  0  0  0  0
   37.0400   45.6320   16.1840 C   0  0  0  0  0  0  0  0  0  0  0  0
   36.9550   44.7640   15.0800 C   0  0  0  0  0  3  0  0  0  0  0  0
   36.8390   45.2640   13.7820 C   0  0  0  0  0  3  0  0  0  0  0  0
   36.8110   46.6390   13.5660 C   0  0  0  0  0  3  0  0  0  0  0  0
   36.9030   47.5140   14.6450 C   0  0  0  0  0  3  0  0  0  0  0  0
   37.0190   47.0150   15.9450 C   0  0  0  0  0  3  0  0  0  0  0  0
   32.1340   43.5240   16.7230 C   0  0  0  0  0  0  0  0  0  0  0  0
   32.4840   44.7720   17.2730 C   0  0  0  0  0  3  0  0  0  0  0  0
   33.7750   45.0550   17.7430 C   0  0  0  0  0  3  0  0  0  0  0  0
   34.8040   44.1050   17.6940 C   0  0  0  0  0  0  0  0  0  0  0  0
   34.4790   42.8600   17.1460 C   0  0  0  0  0  3  0  0  0  0  0  0
   33.1910   42.5880   16.6550 C   0  0  0  0  0  3  0  0  0  0  0  0
   28.3860   40.6640   17.0280 C   0  0  0  0  0  1  0  0  0  0  0  0
   29.6900   41.4450   17.0780 C   0  0  2  0  0  0  0  0  0  0  0  0
   29.5470   42.9770   17.2920 C   0  0  0  0  0  2  0  0  0  0  0  0
   30.6530   43.1840   16.2150 C   0  0  2  0  0  0  0  0  0  0  0  0
   30.2890   41.7640   15.6830 C   0  0  0  0  0  2  0  0  0  0  0  0
   30.2690   44.2070   15.2080 N   0  0  0  0  0  4  0  0  0  0  0  0
   31.0000   44.2860   14.4850 H   0  0  0  0  0  0  0  0  0  0  0  0
   29.3880   43.9920   14.7270 H   0  0  0  0  0  0  0  0  0  0  0  0
   30.1670   45.1380   15.6290 H   0  0  0  0  0  0  0  0  0  0  0  0
   30.6150   40.7920   17.9670 O   0  0  0  0  0  0  0  0  0  0  0  0
   30.1360   40.6160   18.7990 H   0  0  0  0  0  0  0  0  0  0  0  0
   41.4860   46.0740   18.8000 C   0  0  0  0  0  3  0  0  0  0  0  0
   41.3850   45.1830   17.7760 F   0  0  0  0  0  0  0  0  0  0  0  0
   40.7610   47.1660   18.4340 F   0  0  0  0  0  0  0  0  0  0  0  0
  1  2  1  0  0  0  0
  2  3  2  0  0  0  0
  3  4  1  0  0  0  0
  4  5  2  0  0  0  0
  6  7  2  0  0  0  0
  6  5  1  0  0  0  0
  8  7  1  0  0  0  0
  9 10  1  0  0  0  0
  9  8  2  0  0  0  0
 10  6  1  0  0  0  0
 11  3  1  0  0  0  0
 11 10  1  0  0  0  0
 12 11  2  0  0  0  0
 13 12  1  0  0  0  0
 13  1  2  0  0  0  0
 14 13  1  0  0  0  0
 15 14  2  0  0  0  0
 16 15  1  0  0  0  0
 17 16  2  0  0  0  0
 17 18  1  0  0  0  0
 18 19  2  0  0  0  0
 19 14  1  0  0  0  0
 20 21  1  0  0  0  0
 21 22  2  0  0  0  0
 23 22  1  0  0  0  0
 23  1  1  0  0  0  0
 24 23  2  0  0  0  0
 25 20  2  0  0  0  0
 25 24  1  0  0  0  0
 27 26  1  6  0  0  0
 27 28  1  0  0  0  0
 27 35  1  0  0  0  0
 29 31  1  6  0  0  0
 29 20  1  0  0  0  0
 29 28  1  0  0  0  0
 30 29  1  0  0  0  0
 30 27  1  0  0  0  0
 31 34  1  0  0  0  0
 32 31  1  0  0  0  0
 33 31  1  0  0  0  0
 35 36  1  0  0  0  0
 37  9  1  0  0  0  0
 38 37  1  0  0  0  0
 39 37  1  0  0  0  0
M  END
>  <minimizedAffinity>
-12.0329418

$$$$
