
 OpenBabel11232419233D

 39 44  0  0  1  0  0  0  0  0999 V2000
   35.8330   45.2310   17.0010 C   0  0  0  0  0  0  0  0  0  0  0  0
   36.0840   46.0950   15.9760 N   0  0  0  0  0  0  0  0  0  0  0  0
   37.2840   46.7100   15.9310 C   0  0  0  0  0  0  0  0  0  0  0  0
   37.4850   47.6060   14.7920 C   0  0  0  0  0  3  0  0  0  0  0  0
   38.6430   48.2650   14.6480 C   0  0  0  0  0  3  0  0  0  0  0  0
   39.6740   48.1040   15.6030 C   0  0  0  0  0  0  0  0  0  0  0  0
   40.8660   48.6490   15.6610 N   0  0  0  0  0  0  0  0  0  0  0  0
   41.4840   48.1890   16.7860 N   0  0  0  0  0  0  0  0  0  0  0  0
   40.6640   47.3630   17.4120 C   0  0  0  0  0  0  0  0  0  0  0  0
   39.4870   47.2550   16.6920 N   0  0  0  0  0  0  0  0  0  0  0  0
   38.2860   46.5220   16.8800 C   0  0  0  0  0  0  0  0  0  0  0  0
   38.0310   45.6290   17.9160 C   0  0  0  0  0  3  0  0  0  0  0  0
   36.7920   44.9550   17.9970 C   0  0  0  0  0  0  0  0  0  0  0  0
   36.5950   43.9880   19.0900 C   0  0  0  0  0  0  0  0  0  0  0  0
   35.6210   42.9780   18.9850 C   0  0  0  0  0  3  0  0  0  0  0  0
   35.4210   42.0640   20.0210 C   0  0  0  0  0  3  0  0  0  0  0  0
   36.1880   42.1470   21.1810 C   0  0  0  0  0  3  0  0  0  0  0  0
   37.1500   43.1460   21.3080 C   0  0  0  0  0  3  0  0  0  0  0  0
   37.3520   44.0610   20.2710 C   0  0  0  0  0  3  0  0  0  0  0  0
   31.8200   43.5040   16.6700 C   0  0  0  0  0  0  0  0  0  0  0  0
   32.9310   43.0050   15.9640 C   0  0  0  0  0  3  0  0  0  0  0  0
   34.2150   43.5560   16.0900 C   0  0  0  0  0  3  0  0  0  0  0  0
   34.4720   44.6470   16.9300 C   0  0  0  0  0  0  0  0  0  0  0  0
   33.3820   45.1560   17.6440 C   0  0  0  0  0  3  0  0  0  0  0  0
   32.1030   44.5850   17.5340 C   0  0  0  0  0  3  0  0  0  0  0  0
   28.8410   39.9670   17.6420 C   0  0  0  0  0  1  0  0  0  0  0  0
   29.9550   40.9830   17.4390 C   0  0  2  0  0  0  0  0  0  0  0  0
   29.5980   42.4520   17.7980 C   0  0  0  0  0  2  0  0  0  0  0  0
   30.3450   42.9000   16.5060 C   0  0  2  0  0  0  0  0  0  0  0  0
   30.1200   41.4530   15.9690 C   0  0  0  0  0  2  0  0  0  0  0  0
   29.5460   43.8600   15.7020 N   0  0  0  0  0  4  0  0  0  0  0  0
   30.0460   44.1000   14.8340 H   0  0  0  0  0  0  0  0  0  0  0  0
   28.6250   43.4930   15.4310 H   0  0  0  0  0  0  0  0  0  0  0  0
   29.3860   44.7400   16.2050 H   0  0  0  0  0  0  0  0  0  0  0  0
   31.1740   40.4940   18.0280 O   0  0  0  0  0  0  0  0  0  0  0  0
   30.9570   40.2040   18.9340 H   0  0  0  0  0  0  0  0  0  0  0  0
   40.9870   46.7010   18.6890 C   0  0  0  0  0  3  0  0  0  0  0  0
   41.1530   45.3600   18.5270 F   0  0  0  0  0  0  0  0  0  0  0  0
   42.1480   47.1730   19.2170 F   0  0  0  0  0  0  0  0  0  0  0  0
  1 13  1  0  0  0  0
  2  1  2  0  0  0  0
  3  2  1  0  0  0  0
  3 11  2  0  0  0  0
  4  3  1  0  0  0  0
  5  4  2  0  0  0  0
  5  6  1  0  0  0  0
  6  7  2  0  0  0  0
  6 10  1  0  0  0  0
  7  8  1  0  0  0  0
  8  9  2  0  0  0  0
  9 37  1  0  0  0  0
 10 11  1  0  0  0  0
 10  9  1  0  0  0  0
 11 12  1  0  0  0  0
 12 13  2  0  0  0  0
 13 14  1  0  0  0  0
 14 19  1  0  0  0  0
 15 14  2  0  0  0  0
 15 16  1  0  0  0  0
 16 17  2  0  0  0  0
 17 18  1  0  0  0  0
 19 18  2  0  0  0  0
 20 25  1  0  0  0  0
 21 22  1  0  0  0  0
 21 20  2  0  0  0  0
 22 23  2  0  0  0  0
 23  1  1  0  0  0  0
 23 24  1  0  0  0  0
 25 24  2  0  0  0  0
 27 26  1  1  0  0  0
 27 28  1  0  0  0  0
 27 35  1  0  0  0  0
 29 31  1  6  0  0  0
 29 20  1  0  0  0  0
 29 28  1  0  0  0  0
 30 29  1  0  0  0  0
 30 27  1  0  0  0  0
 31 34  1  0  0  0  0
 32 31  1  0  0  0  0
 33 31  1  0  0  0  0
 35 36  1  0  0  0  0
 37 39  1  0  0  0  0
 38 37  1  0  0  0  0
M  END
>  <minimizedAffinity>
-11.4072447

$$$$
