
 OpenBabel11232419233D

 39 44  0  0  1  0  0  0  0  0999 V2000
   35.9030   45.0010   17.1470 C   0  0  0  0  0  0  0  0  0  0  0  0
   36.0170   45.7460   16.0100 N   0  0  0  0  0  0  0  0  0  0  0  0
   37.1530   46.4440   15.8080 C   0  0  0  0  0  0  0  0  0  0  0  0
   37.2080   47.2020   14.5580 C   0  0  0  0  0  3  0  0  0  0  0  0
   38.2920   47.9270   14.2550 C   0  0  0  0  0  3  0  0  0  0  0  0
   39.3880   47.9720   15.1490 C   0  0  0  0  0  0  0  0  0  0  0  0
   40.5290   48.6140   15.0570 N   0  0  0  0  0  0  0  0  0  0  0  0
   41.2490   48.3510   16.1850 N   0  0  0  0  0  0  0  0  0  0  0  0
   40.5430   47.5480   16.9620 C   0  0  0  0  0  0  0  0  0  0  0  0
   39.3410   47.2560   16.3430 N   0  0  0  0  0  0  0  0  0  0  0  0
   38.2220   46.4590   16.7010 C   0  0  0  0  0  0  0  0  0  0  0  0
   38.1080   45.6870   17.8530 C   0  0  0  0  0  3  0  0  0  0  0  0
   36.9400   44.9320   18.1000 C   0  0  0  0  0  0  0  0  0  0  0  0
   36.8930   44.0980   19.3140 C   0  0  0  0  0  0  0  0  0  0  0  0
   37.7460   44.3660   20.3990 C   0  0  0  0  0  3  0  0  0  0  0  0
   37.7150   43.5750   21.5490 C   0  0  0  0  0  3  0  0  0  0  0  0
   36.8340   42.4990   21.6300 C   0  0  0  0  0  3  0  0  0  0  0  0
   35.9890   42.2120   20.5620 C   0  0  0  0  0  3  0  0  0  0  0  0
   36.0180   43.0040   19.4110 C   0  0  0  0  0  3  0  0  0  0  0  0
   32.0440   42.9330   17.3060 C   0  0  0  0  0  0  0  0  0  0  0  0
   33.1480   42.4450   16.5800 C   0  0  0  0  0  3  0  0  0  0  0  0
   34.3830   43.1080   16.5490 C   0  0  0  0  0  3  0  0  0  0  0  0
   34.5970   44.3070   17.2420 C   0  0  0  0  0  0  0  0  0  0  0  0
   33.5140   44.8060   17.9730 C   0  0  0  0  0  3  0  0  0  0  0  0
   32.2860   44.1270   18.0220 C   0  0  0  0  0  3  0  0  0  0  0  0
   27.5580   42.9300   15.8240 C   0  0  0  0  0  1  0  0  0  0  0  0
   29.0210   43.1270   16.1900 C   0  0  2  0  0  0  0  0  0  0  0  0
   29.9450   41.9020   15.9470 C   0  0  0  0  0  2  0  0  0  0  0  0
   30.6200   42.1980   17.3190 C   0  0  2  0  0  0  0  0  0  0  0  0
   29.3190   42.9670   17.7040 C   0  0  0  0  0  2  0  0  0  0  0  0
   30.7450   40.9770   18.1570 N   0  0  0  0  0  4  0  0  0  0  0  0
   31.1510   41.2150   19.0740 H   0  0  0  0  0  0  0  0  0  0  0  0
   29.8450   40.5140   18.3340 H   0  0  0  0  0  0  0  0  0  0  0  0
   31.3660   40.2810   17.7290 H   0  0  0  0  0  0  0  0  0  0  0  0
   29.4990   44.3670   15.6360 O   0  0  0  0  0  0  0  0  0  0  0  0
   29.2410   44.3770   14.6950 H   0  0  0  0  0  0  0  0  0  0  0  0
   40.9970   47.0810   18.2840 C   0  0  0  0  0  3  0  0  0  0  0  0
   41.2360   45.7410   18.2850 F   0  0  0  0  0  0  0  0  0  0  0  0
   42.1610   47.6810   18.6540 F   0  0  0  0  0  0  0  0  0  0  0  0
  1 23  1  0  0  0  0
  1 13  1  0  0  0  0
  2  1  2  0  0  0  0
  3  2  1  0  0  0  0
  3 11  2  0  0  0  0
  4  3  1  0  0  0  0
  5  4  2  0  0  0  0
  5  6  1  0  0  0  0
  6 10  1  0  0  0  0
  7  6  2  0  0  0  0
  7  8  1  0  0  0  0
  8  9  2  0  0  0  0
  9 37  1  0  0  0  0
 10 11  1  0  0  0  0
 10  9  1  0  0  0  0
 11 12  1  0  0  0  0
 12 13  2  0  0  0  0
 13 14  1  0  0  0  0
 14 19  2  0  0  0  0
 14 15  1  0  0  0  0
 15 16  2  0  0  0  0
 16 17  1  0  0  0  0
 18 17  2  0  0  0  0
 19 18  1  0  0  0  0
 20 29  1  0  0  0  0
 20 25  1  0  0  0  0
 21 20  2  0  0  0  0
 22 21  1  0  0  0  0
 22 23  2  0  0  0  0
 23 24  1  0  0  0  0
 24 25  2  0  0  0  0
 27 26  1  6  0  0  0
 27 30  1  0  0  0  0
 28 27  1  0  0  0  0
 28 29  1  0  0  0  0
 29 30  1  0  0  0  0
 29 31  1  1  0  0  0
 31 33  1  0  0  0  0
 31 32  1  0  0  0  0
 34 31  1  0  0  0  0
 35 27  1  0  0  0  0
 36 35  1  0  0  0  0
 37 38  1  0  0  0  0
 37 39  1  0  0  0  0
M  END
>  <minimizedAffinity>
-11.9387579

$$$$
