
 OpenBabel11232419233D

 39 44  0  0  1  0  0  0  0  0999 V2000
   36.1430   44.4260   18.2420 C   0  0  0  0  0  0  0  0  0  0  0  0
   36.2980   43.9980   19.5270 N   0  0  0  0  0  0  0  0  0  0  0  0
   37.4800   44.2130   20.1410 C   0  0  0  0  0  0  0  0  0  0  0  0
   37.5620   43.7420   21.5240 C   0  0  0  0  0  3  0  0  0  0  0  0
   38.6890   43.9080   22.2280 C   0  0  0  0  0  3  0  0  0  0  0  0
   39.8110   44.5320   21.6330 C   0  0  0  0  0  0  0  0  0  0  0  0
   40.9990   44.7870   22.1290 N   0  0  0  0  0  0  0  0  0  0  0  0
   41.7390   45.3900   21.1560 N   0  0  0  0  0  0  0  0  0  0  0  0
   40.9980   45.5000   20.0670 C   0  0  0  0  0  0  0  0  0  0  0  0
   39.7410   44.9800   20.3160 N   0  0  0  0  0  0  0  0  0  0  0  0
   38.5640   44.8420   19.5340 C   0  0  0  0  0  0  0  0  0  0  0  0
   38.3970   45.2910   18.2270 C   0  0  0  0  0  3  0  0  0  0  0  0
   37.1730   45.0960   17.5500 C   0  0  0  0  0  0  0  0  0  0  0  0
   37.0400   45.6320   16.1840 C   0  0  0  0  0  0  0  0  0  0  0  0
   36.9550   44.7640   15.0800 C   0  0  0  0  0  3  0  0  0  0  0  0
   36.8390   45.2640   13.7820 C   0  0  0  0  0  3  0  0  0  0  0  0
   36.8110   46.6390   13.5660 C   0  0  0  0  0  3  0  0  0  0  0  0
   36.9030   47.5140   14.6450 C   0  0  0  0  0  3  0  0  0  0  0  0
   37.0190   47.0150   15.9450 C   0  0  0  0  0  3  0  0  0  0  0  0
   32.1340   43.5240   16.7230 C   0  0  0  0  0  0  0  0  0  0  0  0
   32.4840   44.7720   17.2730 C   0  0  0  0  0  3  0  0  0  0  0  0
   33.7750   45.0550   17.7430 C   0  0  0  0  0  3  0  0  0  0  0  0
   34.8040   44.1050   17.6940 C   0  0  0  0  0  0  0  0  0  0  0  0
   34.4790   42.8600   17.1460 C   0  0  0  0  0  3  0  0  0  0  0  0
   33.1910   42.5880   16.6550 C   0  0  0  0  0  3  0  0  0  0  0  0
   28.3860   40.6640   17.0280 C   0  0  0  0  0  1  0  0  0  0  0  0
   29.6900   41.4450   17.0780 C   0  0  2  0  0  0  0  0  0  0  0  0
   29.5470   42.9770   17.2920 C   0  0  0  0  0  2  0  0  0  0  0  0
   30.6530   43.1840   16.2150 C   0  0  2  0  0  0  0  0  0  0  0  0
   30.2890   41.7640   15.6830 C   0  0  0  0  0  2  0  0  0  0  0  0
   30.2690   44.2070   15.2080 N   0  0  0  0  0  4  0  0  0  0  0  0
   31.0000   44.2860   14.4850 H   0  0  0  0  0  0  0  0  0  0  0  0
   29.3880   43.9920   14.7270 H   0  0  0  0  0  0  0  0  0  0  0  0
   30.1670   45.1380   15.6290 H   0  0  0  0  0  0  0  0  0  0  0  0
   30.6150   40.7920   17.9670 O   0  0  0  0  0  0  0  0  0  0  0  0
   30.1360   40.6160   18.7990 H   0  0  0  0  0  0  0  0  0  0  0  0
   41.4860   46.0740   18.8000 C   0  0  0  0  0  3  0  0  0  0  0  0
   41.3850   45.1830   17.7760 F   0  0  0  0  0  0  0  0  0  0  0  0
   40.7610   47.1660   18.4340 F   0  0  0  0  0  0  0  0  0  0  0  0
  1  2  1  0  0  0  0
  2  3  2  0  0  0  0
  3  4  1  0  0  0  0
  4  5  2  0  0  0  0
  6  7  2  0  0  0  0
  6  5  1  0  0  0  0
  8  7  1  0  0  0  0
  9 10  1  0  0  0  0
  9  8  2  0  0  0  0
 10  6  1  0  0  0  0
 11  3  1  0  0  0  0
 11 10  1  0  0  0  0
 12 11  2  0  0  0  0
 13 12  1  0  0  0  0
 13  1  2  0  0  0  0
 14 13  1  0  0  0  0
 15 14  2  0  0  0  0
 16 15  1  0  0  0  0
 17 16  2  0  0  0  0
 17 18  1  0  0  0  0
 18 19  2  0  0  0  0
 19 14  1  0  0  0  0
 20 21  1  0  0  0  0
 21 22  2  0  0  0  0
 23 22  1  0  0  0  0
 23  1  1  0  0  0  0
 24 23  2  0  0  0  0
 25 20  2  0  0  0  0
 25 24  1  0  0  0  0
 27 26  1  6  0  0  0
 27 28  1  0  0  0  0
 27 35  1  0  0  0  0
 29 31  1  6  0  0  0
 29 20  1  0  0  0  0
 29 28  1  0  0  0  0
 30 29  1  0  0  0  0
 30 27  1  0  0  0  0
 31 34  1  0  0  0  0
 32 31  1  0  0  0  0
 33 31  1  0  0  0  0
 35 36  1  0  0  0  0
 37  9  1  0  0  0  0
 38 37  1  0  0  0  0
 39 37  1  0  0  0  0
M  END
>  <minimizedAffinity>
-12.0329418

$$$$

 OpenBabel11232419233D

 39 44  0  0  1  0  0  0  0  0999 V2000
   35.9030   45.0010   17.1470 C   0  0  0  0  0  0  0  0  0  0  0  0
   36.0170   45.7460   16.0100 N   0  0  0  0  0  0  0  0  0  0  0  0
   37.1530   46.4440   15.8080 C   0  0  0  0  0  0  0  0  0  0  0  0
   37.2080   47.2020   14.5580 C   0  0  0  0  0  3  0  0  0  0  0  0
   38.2920   47.9270   14.2550 C   0  0  0  0  0  3  0  0  0  0  0  0
   39.3880   47.9720   15.1490 C   0  0  0  0  0  0  0  0  0  0  0  0
   40.5290   48.6140   15.0570 N   0  0  0  0  0  0  0  0  0  0  0  0
   41.2490   48.3510   16.1850 N   0  0  0  0  0  0  0  0  0  0  0  0
   40.5430   47.5480   16.9620 C   0  0  0  0  0  0  0  0  0  0  0  0
   39.3410   47.2560   16.3430 N   0  0  0  0  0  0  0  0  0  0  0  0
   38.2220   46.4590   16.7010 C   0  0  0  0  0  0  0  0  0  0  0  0
   38.1080   45.6870   17.8530 C   0  0  0  0  0  3  0  0  0  0  0  0
   36.9400   44.9320   18.1000 C   0  0  0  0  0  0  0  0  0  0  0  0
   36.8930   44.0980   19.3140 C   0  0  0  0  0  0  0  0  0  0  0  0
   37.7460   44.3660   20.3990 C   0  0  0  0  0  3  0  0  0  0  0  0
   37.7150   43.5750   21.5490 C   0  0  0  0  0  3  0  0  0  0  0  0
   36.8340   42.4990   21.6300 C   0  0  0  0  0  3  0  0  0  0  0  0
   35.9890   42.2120   20.5620 C   0  0  0  0  0  3  0  0  0  0  0  0
   36.0180   43.0040   19.4110 C   0  0  0  0  0  3  0  0  0  0  0  0
   32.0440   42.9330   17.3060 C   0  0  0  0  0  0  0  0  0  0  0  0
   33.1480   42.4450   16.5800 C   0  0  0  0  0  3  0  0  0  0  0  0
   34.3830   43.1080   16.5490 C   0  0  0  0  0  3  0  0  0  0  0  0
   34.5970   44.3070   17.2420 C   0  0  0  0  0  0  0  0  0  0  0  0
   33.5140   44.8060   17.9730 C   0  0  0  0  0  3  0  0  0  0  0  0
   32.2860   44.1270   18.0220 C   0  0  0  0  0  3  0  0  0  0  0  0
   27.5580   42.9300   15.8240 C   0  0  0  0  0  1  0  0  0  0  0  0
   29.0210   43.1270   16.1900 C   0  0  2  0  0  0  0  0  0  0  0  0
   29.9450   41.9020   15.9470 C   0  0  0  0  0  2  0  0  0  0  0  0
   30.6200   42.1980   17.3190 C   0  0  2  0  0  0  0  0  0  0  0  0
   29.3190   42.9670   17.7040 C   0  0  0  0  0  2  0  0  0  0  0  0
   30.7450   40.9770   18.1570 N   0  0  0  0  0  4  0  0  0  0  0  0
   31.1510   41.2150   19.0740 H   0  0  0  0  0  0  0  0  0  0  0  0
   29.8450   40.5140   18.3340 H   0  0  0  0  0  0  0  0  0  0  0  0
   31.3660   40.2810   17.7290 H   0  0  0  0  0  0  0  0  0  0  0  0
   29.4990   44.3670   15.6360 O   0  0  0  0  0  0  0  0  0  0  0  0
   29.2410   44.3770   14.6950 H   0  0  0  0  0  0  0  0  0  0  0  0
   40.9970   47.0810   18.2840 C   0  0  0  0  0  3  0  0  0  0  0  0
   41.2360   45.7410   18.2850 F   0  0  0  0  0  0  0  0  0  0  0  0
   42.1610   47.6810   18.6540 F   0  0  0  0  0  0  0  0  0  0  0  0
  1 23  1  0  0  0  0
  1 13  1  0  0  0  0
  2  1  2  0  0  0  0
  3  2  1  0  0  0  0
  3 11  2  0  0  0  0
  4  3  1  0  0  0  0
  5  4  2  0  0  0  0
  5  6  1  0  0  0  0
  6 10  1  0  0  0  0
  7  6  2  0  0  0  0
  7  8  1  0  0  0  0
  8  9  2  0  0  0  0
  9 37  1  0  0  0  0
 10 11  1  0  0  0  0
 10  9  1  0  0  0  0
 11 12  1  0  0  0  0
 12 13  2  0  0  0  0
 13 14  1  0  0  0  0
 14 19  2  0  0  0  0
 14 15  1  0  0  0  0
 15 16  2  0  0  0  0
 16 17  1  0  0  0  0
 18 17  2  0  0  0  0
 19 18  1  0  0  0  0
 20 29  1  0  0  0  0
 20 25  1  0  0  0  0
 21 20  2  0  0  0  0
 22 21  1  0  0  0  0
 22 23  2  0  0  0  0
 23 24  1  0  0  0  0
 24 25  2  0  0  0  0
 27 26  1  6  0  0  0
 27 30  1  0  0  0  0
 28 27  1  0  0  0  0
 28 29  1  0  0  0  0
 29 30  1  0  0  0  0
 29 31  1  1  0  0  0
 31 33  1  0  0  0  0
 31 32  1  0  0  0  0
 34 31  1  0  0  0  0
 35 27  1  0  0  0  0
 36 35  1  0  0  0  0
 37 38  1  0  0  0  0
 37 39  1  0  0  0  0
M  END
>  <minimizedAffinity>
-11.9387579

$$$$

 OpenBabel11232419233D

 39 44  0  0  1  0  0  0  0  0999 V2000
   35.8330   45.2310   17.0010 C   0  0  0  0  0  0  0  0  0  0  0  0
   36.0840   46.0950   15.9760 N   0  0  0  0  0  0  0  0  0  0  0  0
   37.2840   46.7100   15.9310 C   0  0  0  0  0  0  0  0  0  0  0  0
   37.4850   47.6060   14.7920 C   0  0  0  0  0  3  0  0  0  0  0  0
   38.6430   48.2650   14.6480 C   0  0  0  0  0  3  0  0  0  0  0  0
   39.6740   48.1040   15.6030 C   0  0  0  0  0  0  0  0  0  0  0  0
   40.8660   48.6490   15.6610 N   0  0  0  0  0  0  0  0  0  0  0  0
   41.4840   48.1890   16.7860 N   0  0  0  0  0  0  0  0  0  0  0  0
   40.6640   47.3630   17.4120 C   0  0  0  0  0  0  0  0  0  0  0  0
   39.4870   47.2550   16.6920 N   0  0  0  0  0  0  0  0  0  0  0  0
   38.2860   46.5220   16.8800 C   0  0  0  0  0  0  0  0  0  0  0  0
   38.0310   45.6290   17.9160 C   0  0  0  0  0  3  0  0  0  0  0  0
   36.7920   44.9550   17.9970 C   0  0  0  0  0  0  0  0  0  0  0  0
   36.5950   43.9880   19.0900 C   0  0  0  0  0  0  0  0  0  0  0  0
   35.6210   42.9780   18.9850 C   0  0  0  0  0  3  0  0  0  0  0  0
   35.4210   42.0640   20.0210 C   0  0  0  0  0  3  0  0  0  0  0  0
   36.1880   42.1470   21.1810 C   0  0  0  0  0  3  0  0  0  0  0  0
   37.1500   43.1460   21.3080 C   0  0  0  0  0  3  0  0  0  0  0  0
   37.3520   44.0610   20.2710 C   0  0  0  0  0  3  0  0  0  0  0  0
   31.8200   43.5040   16.6700 C   0  0  0  0  0  0  0  0  0  0  0  0
   32.9310   43.0050   15.9640 C   0  0  0  0  0  3  0  0  0  0  0  0
   34.2150   43.5560   16.0900 C   0  0  0  0  0  3  0  0  0  0  0  0
   34.4720   44.6470   16.9300 C   0  0  0  0  0  0  0  0  0  0  0  0
   33.3820   45.1560   17.6440 C   0  0  0  0  0  3  0  0  0  0  0  0
   32.1030   44.5850   17.5340 C   0  0  0  0  0  3  0  0  0  0  0  0
   28.8410   39.9670   17.6420 C   0  0  0  0  0  1  0  0  0  0  0  0
   29.9550   40.9830   17.4390 C   0  0  2  0  0  0  0  0  0  0  0  0
   29.5980   42.4520   17.7980 C   0  0  0  0  0  2  0  0  0  0  0  0
   30.3450   42.9000   16.5060 C   0  0  2  0  0  0  0  0  0  0  0  0
   30.1200   41.4530   15.9690 C   0  0  0  0  0  2  0  0  0  0  0  0
   29.5460   43.8600   15.7020 N   0  0  0  0  0  4  0  0  0  0  0  0
   30.0460   44.1000   14.8340 H   0  0  0  0  0  0  0  0  0  0  0  0
   28.6250   43.4930   15.4310 H   0  0  0  0  0  0  0  0  0  0  0  0
   29.3860   44.7400   16.2050 H   0  0  0  0  0  0  0  0  0  0  0  0
   31.1740   40.4940   18.0280 O   0  0  0  0  0  0  0  0  0  0  0  0
   30.9570   40.2040   18.9340 H   0  0  0  0  0  0  0  0  0  0  0  0
   40.9870   46.7010   18.6890 C   0  0  0  0  0  3  0  0  0  0  0  0
   41.1530   45.3600   18.5270 F   0  0  0  0  0  0  0  0  0  0  0  0
   42.1480   47.1730   19.2170 F   0  0  0  0  0  0  0  0  0  0  0  0
  1 13  1  0  0  0  0
  2  1  2  0  0  0  0
  3  2  1  0  0  0  0
  3 11  2  0  0  0  0
  4  3  1  0  0  0  0
  5  4  2  0  0  0  0
  5  6  1  0  0  0  0
  6  7  2  0  0  0  0
  6 10  1  0  0  0  0
  7  8  1  0  0  0  0
  8  9  2  0  0  0  0
  9 37  1  0  0  0  0
 10 11  1  0  0  0  0
 10  9  1  0  0  0  0
 11 12  1  0  0  0  0
 12 13  2  0  0  0  0
 13 14  1  0  0  0  0
 14 19  1  0  0  0  0
 15 14  2  0  0  0  0
 15 16  1  0  0  0  0
 16 17  2  0  0  0  0
 17 18  1  0  0  0  0
 19 18  2  0  0  0  0
 20 25  1  0  0  0  0
 21 22  1  0  0  0  0
 21 20  2  0  0  0  0
 22 23  2  0  0  0  0
 23  1  1  0  0  0  0
 23 24  1  0  0  0  0
 25 24  2  0  0  0  0
 27 26  1  1  0  0  0
 27 28  1  0  0  0  0
 27 35  1  0  0  0  0
 29 31  1  6  0  0  0
 29 20  1  0  0  0  0
 29 28  1  0  0  0  0
 30 29  1  0  0  0  0
 30 27  1  0  0  0  0
 31 34  1  0  0  0  0
 32 31  1  0  0  0  0
 33 31  1  0  0  0  0
 35 36  1  0  0  0  0
 37 39  1  0  0  0  0
 38 37  1  0  0  0  0
M  END
>  <minimizedAffinity>
-11.4072447

$$$$

 OpenBabel11232419233D

 39 44  0  0  1  0  0  0  0  0999 V2000
   36.6780   44.3280   19.3610 C   0  0  0  0  0  0  0  0  0  0  0  0
   36.3920   43.7770   20.5750 N   0  0  0  0  0  0  0  0  0  0  0  0
   37.3760   43.6950   21.4940 C   0  0  0  0  0  0  0  0  0  0  0  0
   36.9860   43.1110   22.7780 C   0  0  0  0  0  3  0  0  0  0  0  0
   37.8850   42.9850   23.7630 C   0  0  0  0  0  3  0  0  0  0  0  0
   39.2190   43.4080   23.5630 C   0  0  0  0  0  0  0  0  0  0  0  0
   40.2490   43.3720   24.3760 N   0  0  0  0  0  0  0  0  0  0  0  0
   41.3250   43.8830   23.7130 N   0  0  0  0  0  0  0  0  0  0  0  0
   40.9470   44.2280   22.4950 C   0  0  0  0  0  0  0  0  0  0  0  0
   39.5980   43.9620   22.3420 N   0  0  0  0  0  0  0  0  0  0  0  0
   38.6790   44.1320   21.2730 C   0  0  0  0  0  0  0  0  0  0  0  0
   38.9650   44.7060   20.0390 C   0  0  0  0  0  3  0  0  0  0  0  0
   37.9620   44.8220   19.0500 C   0  0  0  0  0  0  0  0  0  0  0  0
   38.3100   45.4790   17.7780 C   0  0  0  0  0  0  0  0  0  0  0  0
   37.6930   45.0840   16.5770 C   0  0  0  0  0  3  0  0  0  0  0  0
   38.0250   45.6940   15.3670 C   0  0  0  0  0  3  0  0  0  0  0  0
   38.9830   46.7050   15.3360 C   0  0  0  0  0  3  0  0  0  0  0  0
   39.6120   47.1020   16.5120 C   0  0  0  0  0  3  0  0  0  0  0  0
   39.2800   46.4920   17.7250 C   0  0  0  0  0  3  0  0  0  0  0  0
   33.1520   44.3860   16.7620 C   0  0  0  0  0  0  0  0  0  0  0  0
   33.4960   45.4530   17.6140 C   0  0  0  0  0  3  0  0  0  0  0  0
   34.6360   45.4300   18.4310 C   0  0  0  0  0  3  0  0  0  0  0  0
   35.5090   44.3340   18.4500 C   0  0  0  0  0  0  0  0  0  0  0  0
   35.1880   43.2650   17.6070 C   0  0  0  0  0  3  0  0  0  0  0  0
   34.0580   43.3020   16.7730 C   0  0  0  0  0  3  0  0  0  0  0  0
   28.8620   42.5750   15.9650 C   0  0  0  0  0  1  0  0  0  0  0  0
   30.2560   43.0080   16.3910 C   0  0  2  0  0  0  0  0  0  0  0  0
   30.4580   44.5380   16.5680 C   0  0  0  0  0  2  0  0  0  0  0  0
   31.8330   44.3930   15.8510 C   0  0  2  0  0  0  0  0  0  0  0  0
   31.2780   43.0760   15.2260 C   0  0  0  0  0  2  0  0  0  0  0  0
   32.0200   45.4110   14.7850 N   0  0  0  0  0  4  0  0  0  0  0  0
   32.9170   45.2580   14.3010 H   0  0  0  0  0  0  0  0  0  0  0  0
   31.2810   45.3900   14.0720 H   0  0  0  0  0  0  0  0  0  0  0  0
   32.0480   46.3630   15.1670 H   0  0  0  0  0  0  0  0  0  0  0  0
   30.6980   42.2060   17.5010 O   0  0  0  0  0  0  0  0  0  0  0  0
   29.9790   42.2090   18.1610 H   0  0  0  0  0  0  0  0  0  0  0  0
   41.8610   44.7870   21.4820 C   0  0  0  0  0  3  0  0  0  0  0  0
   41.7500   44.1320   20.2940 F   0  0  0  0  0  0  0  0  0  0  0  0
   41.5880   46.0950   21.2280 F   0  0  0  0  0  0  0  0  0  0  0  0
  1  2  1  0  0  0  0
  2  3  2  0  0  0  0
  3  4  1  0  0  0  0
  4  5  2  0  0  0  0
  6  5  1  0  0  0  0
  6  7  2  0  0  0  0
  8  7  1  0  0  0  0
  9  8  2  0  0  0  0
 10  9  1  0  0  0  0
 10  6  1  0  0  0  0
 11  3  1  0  0  0  0
 11 10  1  0  0  0  0
 12 11  2  0  0  0  0
 13  1  2  0  0  0  0
 13 12  1  0  0  0  0
 14 13  1  0  0  0  0
 15 14  2  0  0  0  0
 16 15  1  0  0  0  0
 17 16  2  0  0  0  0
 17 18  1  0  0  0  0
 18 19  2  0  0  0  0
 19 14  1  0  0  0  0
 20 25  2  0  0  0  0
 20 21  1  0  0  0  0
 21 22  2  0  0  0  0
 22 23  1  0  0  0  0
 23  1  1  0  0  0  0
 24 23  2  0  0  0  0
 25 24  1  0  0  0  0
 27 26  1  6  0  0  0
 27 28  1  0  0  0  0
 27 35  1  0  0  0  0
 29 31  1  6  0  0  0
 29 28  1  0  0  0  0
 29 20  1  0  0  0  0
 30 29  1  0  0  0  0
 30 27  1  0  0  0  0
 31 34  1  0  0  0  0
 32 31  1  0  0  0  0
 33 31  1  0  0  0  0
 35 36  1  0  0  0  0
 37  9  1  0  0  0  0
 38 37  1  0  0  0  0
 39 37  1  0  0  0  0
M  END
>  <minimizedAffinity>
-11.3984137

$$$$

 OpenBabel11232419233D

 39 44  0  0  1  0  0  0  0  0999 V2000
   35.7440   44.0170   19.0060 C   0  0  0  0  0  0  0  0  0  0  0  0
   35.9230   43.7090   20.3220 N   0  0  0  0  0  0  0  0  0  0  0  0
   37.1080   44.0000   20.8970 C   0  0  0  0  0  0  0  0  0  0  0  0
   37.2150   43.6590   22.3160 C   0  0  0  0  0  3  0  0  0  0  0  0
   38.3470   43.9080   22.9870 C   0  0  0  0  0  3  0  0  0  0  0  0
   39.4500   44.4950   22.3230 C   0  0  0  0  0  0  0  0  0  0  0  0
   40.6390   44.8140   22.7770 N   0  0  0  0  0  0  0  0  0  0  0  0
   41.3560   45.3380   21.7430 N   0  0  0  0  0  0  0  0  0  0  0  0
   40.6010   45.3360   20.6590 C   0  0  0  0  0  0  0  0  0  0  0  0
   39.3560   44.8190   20.9710 N   0  0  0  0  0  0  0  0  0  0  0  0
   38.1720   44.5900   20.2210 C   0  0  0  0  0  0  0  0  0  0  0  0
   37.9820   44.9150   18.8810 C   0  0  0  0  0  3  0  0  0  0  0  0
   36.7540   44.6380   18.2420 C   0  0  0  0  0  0  0  0  0  0  0  0
   36.5940   45.0450   16.8350 C   0  0  0  0  0  0  0  0  0  0  0  0
   37.0420   44.2120   15.7940 C   0  0  0  0  0  3  0  0  0  0  0  0
   36.9040   44.5950   14.4580 C   0  0  0  0  0  3  0  0  0  0  0  0
   36.3200   45.8190   14.1420 C   0  0  0  0  0  3  0  0  0  0  0  0
   35.8790   46.6620   15.1590 C   0  0  0  0  0  3  0  0  0  0  0  0
   36.0160   46.2790   16.4960 C   0  0  0  0  0  3  0  0  0  0  0  0
   31.7770   42.7720   17.6240 C   0  0  0  0  0  0  0  0  0  0  0  0
   32.0660   43.0610   18.9720 C   0  0  0  0  0  3  0  0  0  0  0  0
   33.3360   43.4730   19.4000 C   0  0  0  0  0  3  0  0  0  0  0  0
   34.4050   43.6230   18.5070 C   0  0  0  0  0  0  0  0  0  0  0  0
   34.1390   43.3460   17.1620 C   0  0  0  0  0  3  0  0  0  0  0  0
   32.8590   42.9560   16.7330 C   0  0  0  0  0  3  0  0  0  0  0  0
   27.5950   43.9130   15.7450 C   0  0  0  0  0  1  0  0  0  0  0  0
   28.9870   43.7670   16.3400 C   0  0  2  0  0  0  0  0  0  0  0  0
   29.8810   42.6700   15.6990 C   0  0  0  0  0  2  0  0  0  0  0  0
   30.3380   42.2690   17.1330 C   0  0  2  0  0  0  0  0  0  0  0  0
   29.0280   42.9390   17.6520 C   0  0  0  0  0  2  0  0  0  0  0  0
   30.2680   40.8010   17.3530 N   0  0  0  0  0  4  0  0  0  0  0  0
   30.5320   40.5740   18.3230 H   0  0  0  0  0  0  0  0  0  0  0  0
   29.3310   40.4120   17.1920 H   0  0  0  0  0  0  0  0  0  0  0  0
   30.9180   40.2920   16.7420 H   0  0  0  0  0  0  0  0  0  0  0  0
   29.6060   45.0620   16.4560 O   0  0  0  0  0  0  0  0  0  0  0  0
   29.5040   45.5050   15.5930 H   0  0  0  0  0  0  0  0  0  0  0  0
   41.0620   45.8010   19.3380 C   0  0  0  0  0  3  0  0  0  0  0  0
   42.2200   46.5100   19.4360 F   0  0  0  0  0  0  0  0  0  0  0  0
   41.3180   44.7590   18.5020 F   0  0  0  0  0  0  0  0  0  0  0  0
  1  2  1  0  0  0  0
  2  3  2  0  0  0  0
  3  4  1  0  0  0  0
  4  5  2  0  0  0  0
  6  7  2  0  0  0  0
  6  5  1  0  0  0  0
  8  7  1  0  0  0  0
  9 10  1  0  0  0  0
  9  8  2  0  0  0  0
 10  6  1  0  0  0  0
 11  3  1  0  0  0  0
 11 10  1  0  0  0  0
 12 11  2  0  0  0  0
 13 12  1  0  0  0  0
 13  1  2  0  0  0  0
 14 13  1  0  0  0  0
 15 14  2  0  0  0  0
 16 15  1  0  0  0  0
 17 16  2  0  0  0  0
 17 18  1  0  0  0  0
 18 19  2  0  0  0  0
 19 14  1  0  0  0  0
 20 21  1  0  0  0  0
 21 22  2  0  0  0  0
 23  1  1  0  0  0  0
 23 22  1  0  0  0  0
 24 23  2  0  0  0  0
 25 24  1  0  0  0  0
 25 20  2  0  0  0  0
 27 26  1  6  0  0  0
 27 35  1  0  0  0  0
 27 30  1  0  0  0  0
 28 27  1  0  0  0  0
 28 29  1  0  0  0  0
 29 31  1  1  0  0  0
 29 20  1  0  0  0  0
 29 30  1  0  0  0  0
 31 32  1  0  0  0  0
 33 31  1  0  0  0  0
 34 31  1  0  0  0  0
 36 35  1  0  0  0  0
 37 38  1  0  0  0  0
 37  9  1  0  0  0  0
 39 37  1  0  0  0  0
M  END
>  <minimizedAffinity>
-11.1638203

$$$$

 OpenBabel11232419233D

 39 44  0  0  1  0  0  0  0  0999 V2000
   36.4900   43.8950   19.7230 C   0  0  0  0  0  0  0  0  0  0  0  0
   36.4050   43.5110   21.0280 N   0  0  0  0  0  0  0  0  0  0  0  0
   37.4800   43.6860   21.8230 C   0  0  0  0  0  0  0  0  0  0  0  0
   37.3050   43.2680   23.2140 C   0  0  0  0  0  3  0  0  0  0  0  0
   38.3090   43.4010   24.0910 C   0  0  0  0  0  3  0  0  0  0  0  0
   39.5490   43.9400   23.6730 C   0  0  0  0  0  0  0  0  0  0  0  0
   40.6520   44.1500   24.3520 N   0  0  0  0  0  0  0  0  0  0  0  0
   41.5770   44.6720   23.4980 N   0  0  0  0  0  0  0  0  0  0  0  0
   41.0340   44.7780   22.2980 C   0  0  0  0  0  0  0  0  0  0  0  0
   39.7230   44.3370   22.3500 N   0  0  0  0  0  0  0  0  0  0  0  0
   38.6850   44.2320   21.3870 C   0  0  0  0  0  0  0  0  0  0  0  0
   38.7640   44.6360   20.0580 C   0  0  0  0  0  3  0  0  0  0  0  0
   37.6580   44.4800   19.1920 C   0  0  0  0  0  0  0  0  0  0  0  0
   37.7840   44.9670   17.8070 C   0  0  0  0  0  0  0  0  0  0  0  0
   38.5460   46.1130   17.5180 C   0  0  0  0  0  3  0  0  0  0  0  0
   38.6620   46.5870   16.2110 C   0  0  0  0  0  3  0  0  0  0  0  0
   38.0120   45.9270   15.1710 C   0  0  0  0  0  3  0  0  0  0  0  0
   37.2440   44.7970   15.4380 C   0  0  0  0  0  3  0  0  0  0  0  0
   37.1290   44.3210   16.7470 C   0  0  0  0  0  3  0  0  0  0  0  0
   32.7390   43.1430   17.5880 C   0  0  0  0  0  0  0  0  0  0  0  0
   33.0310   44.3670   18.2190 C   0  0  0  0  0  3  0  0  0  0  0  0
   34.2420   44.6020   18.8860 C   0  0  0  0  0  3  0  0  0  0  0  0
   35.2430   43.6250   18.9690 C   0  0  0  0  0  0  0  0  0  0  0  0
   34.9740   42.4020   18.3450 C   0  0  0  0  0  3  0  0  0  0  0  0
   33.7700   42.1790   17.6560 C   0  0  0  0  0  3  0  0  0  0  0  0
   29.0550   44.9170   15.2210 C   0  0  0  0  0  1  0  0  0  0  0  0
   30.3120   44.5600   15.9990 C   0  0  2  0  0  0  0  0  0  0  0  0
   31.1630   43.4040   15.4050 C   0  0  0  0  0  2  0  0  0  0  0  0
   31.3450   42.8560   16.8520 C   0  0  2  0  0  0  0  0  0  0  0  0
   30.0550   43.6490   17.2290 C   0  0  0  0  0  2  0  0  0  0  0  0
   31.0760   41.3980   16.9370 N   0  0  0  0  0  4  0  0  0  0  0  0
   31.1590   41.0770   17.9120 H   0  0  0  0  0  0  0  0  0  0  0  0
   30.1370   41.1400   16.6100 H   0  0  0  0  0  0  0  0  0  0  0  0
   31.7500   40.8520   16.3870 H   0  0  0  0  0  0  0  0  0  0  0  0
   31.0480   45.7570   16.3110 O   0  0  0  0  0  0  0  0  0  0  0  0
   31.1320   46.2650   15.4820 H   0  0  0  0  0  0  0  0  0  0  0  0
   41.7570   45.2750   21.1130 C   0  0  0  0  0  3  0  0  0  0  0  0
   41.6140   44.4340   20.0530 F   0  0  0  0  0  0  0  0  0  0  0  0
   41.2860   46.4860   20.7110 F   0  0  0  0  0  0  0  0  0  0  0  0
  1  2  1  0  0  0  0
  2  3  2  0  0  0  0
  3  4  1  0  0  0  0
  4  5  2  0  0  0  0
  6  5  1  0  0  0  0
  6  7  2  0  0  0  0
  8  7  1  0  0  0  0
  9 10  1  0  0  0  0
  9  8  2  0  0  0  0
 10  6  1  0  0  0  0
 11  3  1  0  0  0  0
 11 10  1  0  0  0  0
 12 11  2  0  0  0  0
 13  1  2  0  0  0  0
 13 12  1  0  0  0  0
 14 13  1  0  0  0  0
 15 14  1  0  0  0  0
 16 15  2  0  0  0  0
 17 18  2  0  0  0  0
 17 16  1  0  0  0  0
 18 19  1  0  0  0  0
 19 14  2  0  0  0  0
 20 25  2  0  0  0  0
 20 21  1  0  0  0  0
 21 22  2  0  0  0  0
 22 23  1  0  0  0  0
 23  1  1  0  0  0  0
 24 23  2  0  0  0  0
 25 24  1  0  0  0  0
 27 26  1  6  0  0  0
 27 35  1  0  0  0  0
 27 30  1  0  0  0  0
 28 27  1  0  0  0  0
 28 29  1  0  0  0  0
 29 31  1  1  0  0  0
 29 30  1  0  0  0  0
 29 20  1  0  0  0  0
 31 32  1  0  0  0  0
 33 31  1  0  0  0  0
 34 31  1  0  0  0  0
 36 35  1  0  0  0  0
 37  9  1  0  0  0  0
 38 37  1  0  0  0  0
 39 37  1  0  0  0  0
M  END
>  <minimizedAffinity>
-11.1365871

$$$$

 OpenBabel11232419233D

 39 44  0  0  1  0  0  0  0  0999 V2000
   37.5690   44.4380   19.9260 C   0  0  0  0  0  0  0  0  0  0  0  0
   38.7630   45.0750   19.7600 N   0  0  0  0  0  0  0  0  0  0  0  0
   39.0600   45.5830   18.5460 C   0  0  0  0  0  0  0  0  0  0  0  0
   40.3480   46.2690   18.4530 C   0  0  0  0  0  3  0  0  0  0  0  0
   40.7410   46.8140   17.2940 C   0  0  0  0  0  3  0  0  0  0  0  0
   39.9140   46.7200   16.1500 C   0  0  0  0  0  0  0  0  0  0  0  0
   40.1010   47.1690   14.9310 N   0  0  0  0  0  0  0  0  0  0  0  0
   39.0200   46.8110   14.1820 N   0  0  0  0  0  0  0  0  0  0  0  0
   38.1750   46.1440   14.9480 C   0  0  0  0  0  0  0  0  0  0  0  0
   38.6870   46.0650   16.2310 N   0  0  0  0  0  0  0  0  0  0  0  0
   38.2180   45.4870   17.4400 C   0  0  0  0  0  0  0  0  0  0  0  0
   36.9950   44.8480   17.6160 C   0  0  0  0  0  3  0  0  0  0  0  0
   36.6390   44.3100   18.8730 C   0  0  0  0  0  0  0  0  0  0  0  0
   35.3130   43.6840   19.0130 C   0  0  0  0  0  0  0  0  0  0  0  0
   35.1090   42.3460   18.6300 C   0  0  0  0  0  3  0  0  0  0  0  0
   33.8530   41.7490   18.7500 C   0  0  0  0  0  3  0  0  0  0  0  0
   32.7790   42.4810   19.2480 C   0  0  0  0  0  3  0  0  0  0  0  0
   32.9580   43.8100   19.6220 C   0  0  0  0  0  3  0  0  0  0  0  0
   34.2150   44.4090   19.5040 C   0  0  0  0  0  3  0  0  0  0  0  0
   37.1510   42.9420   24.0230 C   0  0  0  0  0  0  0  0  0  0  0  0
   37.5990   44.2430   23.7210 C   0  0  0  0  0  3  0  0  0  0  0  0
   37.7140   44.7160   22.4060 C   0  0  0  0  0  3  0  0  0  0  0  0
   37.3900   43.9170   21.3010 C   0  0  0  0  0  0  0  0  0  0  0  0
   36.9380   42.6230   21.5790 C   0  0  0  0  0  3  0  0  0  0  0  0
   36.8010   42.1600   22.8980 C   0  0  0  0  0  3  0  0  0  0  0  0
   39.0990   42.7090   28.3200 C   0  0  0  0  0  1  0  0  0  0  0  0
   38.6560   42.9030   26.8790 C   0  0  2  0  0  0  0  0  0  0  0  0
   37.1980   43.4060   26.6870 C   0  0  0  0  0  2  0  0  0  0  0  0
   37.0480   42.3840   25.5210 C   0  0  2  0  0  0  0  0  0  0  0  0
   38.2250   41.5920   26.1690 C   0  0  0  0  0  2  0  0  0  0  0  0
   35.7950   41.5930   25.6280 N   0  0  0  0  0  4  0  0  0  0  0  0
   35.7490   40.8960   24.8700 H   0  0  0  0  0  0  0  0  0  0  0  0
   35.7130   41.0830   26.5160 H   0  0  0  0  0  0  0  0  0  0  0  0
   34.9610   42.1840   25.5380 H   0  0  0  0  0  0  0  0  0  0  0  0
   39.6540   43.6480   26.1570 O   0  0  0  0  0  0  0  0  0  0  0  0
   39.8700   44.4320   26.6960 H   0  0  0  0  0  0  0  0  0  0  0  0
   36.9070   45.5710   14.4620 C   0  0  0  0  0  3  0  0  0  0  0  0
   35.9080   46.4960   14.4650 F   0  0  0  0  0  0  0  0  0  0  0  0
   37.0170   45.1260   13.1810 F   0  0  0  0  0  0  0  0  0  0  0  0
  1 23  1  0  0  0  0
  2  1  1  0  0  0  0
  3  2  2  0  0  0  0
  4  3  1  0  0  0  0
  5  4  2  0  0  0  0
  6 10  1  0  0  0  0
  6  5  1  0  0  0  0
  7  6  2  0  0  0  0
  8  7  1  0  0  0  0
  8  9  2  0  0  0  0
  9 10  1  0  0  0  0
 10 11  1  0  0  0  0
 11 12  2  0  0  0  0
 11  3  1  0  0  0  0
 12 13  1  0  0  0  0
 13 14  1  0  0  0  0
 13  1  2  0  0  0  0
 14 19  1  0  0  0  0
 15 16  1  0  0  0  0
 15 14  2  0  0  0  0
 16 17  2  0  0  0  0
 17 18  1  0  0  0  0
 19 18  2  0  0  0  0
 20 29  1  0  0  0  0
 21 20  1  0  0  0  0
 22 21  2  0  0  0  0
 23 24  2  0  0  0  0
 23 22  1  0  0  0  0
 24 25  1  0  0  0  0
 25 20  2  0  0  0  0
 27 26  1  1  0  0  0
 28 27  1  0  0  0  0
 29 31  1  1  0  0  0
 29 30  1  0  0  0  0
 29 28  1  0  0  0  0
 30 27  1  0  0  0  0
 31 33  1  0  0  0  0
 32 31  1  0  0  0  0
 34 31  1  0  0  0  0
 35 36  1  0  0  0  0
 35 27  1  0  0  0  0
 37 38  1  0  0  0  0
 37  9  1  0  0  0  0
 39 37  1  0  0  0  0
M  END
>  <minimizedAffinity>
-11.128273

$$$$

 OpenBabel11232419233D

 39 44  0  0  1  0  0  0  0  0999 V2000
   35.7160   44.5650   18.1290 C   0  0  0  0  0  0  0  0  0  0  0  0
   34.7590   43.9000   18.8370 N   0  0  0  0  0  0  0  0  0  0  0  0
   33.5420   43.7350   18.2800 C   0  0  0  0  0  0  0  0  0  0  0  0
   32.5760   42.9960   19.0930 C   0  0  0  0  0  3  0  0  0  0  0  0
   31.3380   42.7720   18.6340 C   0  0  0  0  0  3  0  0  0  0  0  0
   30.9550   43.2580   17.3620 C   0  0  0  0  0  0  0  0  0  0  0  0
   29.8100   43.1620   16.7290 N   0  0  0  0  0  0  0  0  0  0  0  0
   29.9340   43.8100   15.5360 N   0  0  0  0  0  0  0  0  0  0  0  0
   31.1570   44.3020   15.4450 C   0  0  0  0  0  0  0  0  0  0  0  0
   31.8680   43.9670   16.5840 N   0  0  0  0  0  0  0  0  0  0  0  0
   33.1970   44.2150   17.0190 C   0  0  0  0  0  0  0  0  0  0  0  0
   34.1800   44.8810   16.2930 C   0  0  0  0  0  3  0  0  0  0  0  0
   35.4710   45.0670   16.8340 C   0  0  0  0  0  0  0  0  0  0  0  0
   36.4850   45.7390   16.0030 C   0  0  0  0  0  0  0  0  0  0  0  0
   36.6980   47.1250   16.1150 C   0  0  0  0  0  3  0  0  0  0  0  0
   37.6490   47.7710   15.3230 C   0  0  0  0  0  3  0  0  0  0  0  0
   38.3990   47.0430   14.4030 C   0  0  0  0  0  3  0  0  0  0  0  0
   38.1950   45.6720   14.2690 C   0  0  0  0  0  3  0  0  0  0  0  0
   37.2440   45.0240   15.0620 C   0  0  0  0  0  3  0  0  0  0  0  0
   39.5470   44.8670   20.2340 C   0  0  0  0  0  0  0  0  0  0  0  0
   39.3830   45.2240   18.8820 C   0  0  0  0  0  3  0  0  0  0  0  0
   38.1480   45.1380   18.2220 C   0  0  0  0  0  3  0  0  0  0  0  0
   36.9920   44.6850   18.8730 C   0  0  0  0  0  0  0  0  0  0  0  0
   37.1320   44.3300   20.2180 C   0  0  0  0  0  3  0  0  0  0  0  0
   38.3660   44.4410   20.8820 C   0  0  0  0  0  3  0  0  0  0  0  0
   42.2220   43.3350   23.8140 C   0  0  0  0  0  1  0  0  0  0  0  0
   41.1970   43.6990   22.7510 C   0  0  2  0  0  0  0  0  0  0  0  0
   41.6860   43.5860   21.2810 C   0  0  0  0  0  2  0  0  0  0  0  0
   40.9610   44.9320   20.9840 C   0  0  2  0  0  0  0  0  0  0  0  0
   41.0500   45.2260   22.5140 C   0  0  0  0  0  2  0  0  0  0  0  0
   41.8280   45.8840   20.2420 N   0  0  0  0  0  4  0  0  0  0  0  0
   41.3360   46.7790   20.1030 H   0  0  0  0  0  0  0  0  0  0  0  0
   42.7080   46.0920   20.7280 H   0  0  0  0  0  0  0  0  0  0  0  0
   42.0710   45.5310   19.3090 H   0  0  0  0  0  0  0  0  0  0  0  0
   39.9500   43.0360   23.0280 O   0  0  0  0  0  0  0  0  0  0  0  0
   40.1560   42.0950   23.1850 H   0  0  0  0  0  0  0  0  0  0  0  0
   31.6370   45.0960   14.3010 C   0  0  0  0  0  3  0  0  0  0  0  0
   30.6800   45.2180   13.3410 F   0  0  0  0  0  0  0  0  0  0  0  0
   31.9720   46.3610   14.6750 F   0  0  0  0  0  0  0  0  0  0  0  0
  1  2  1  0  0  0  0
  1 23  1  0  0  0  0
  3  2  2  0  0  0  0
  3  4  1  0  0  0  0
  5  4  2  0  0  0  0
  6  5  1  0  0  0  0
  7  6  2  0  0  0  0
  8  7  1  0  0  0  0
  9  8  2  0  0  0  0
  9 10  1  0  0  0  0
 10 11  1  0  0  0  0
 10  6  1  0  0  0  0
 11  3  1  0  0  0  0
 12 13  1  0  0  0  0
 12 11  2  0  0  0  0
 13  1  2  0  0  0  0
 14 15  1  0  0  0  0
 14 13  1  0  0  0  0
 16 15  2  0  0  0  0
 17 16  1  0  0  0  0
 18 17  2  0  0  0  0
 18 19  1  0  0  0  0
 19 14  2  0  0  0  0
 20 25  1  0  0  0  0
 20 29  1  0  0  0  0
 21 20  2  0  0  0  0
 22 23  2  0  0  0  0
 22 21  1  0  0  0  0
 23 24  1  0  0  0  0
 24 25  2  0  0  0  0
 27 35  1  0  0  0  0
 27 26  1  1  0  0  0
 28 27  1  0  0  0  0
 29 31  1  6  0  0  0
 29 28  1  0  0  0  0
 29 30  1  0  0  0  0
 30 27  1  0  0  0  0
 31 33  1  0  0  0  0
 32 31  1  0  0  0  0
 34 31  1  0  0  0  0
 35 36  1  0  0  0  0
 37 39  1  0  0  0  0
 37  9  1  0  0  0  0
 38 37  1  0  0  0  0
M  END
>  <minimizedAffinity>
-10.718564

$$$$

 OpenBabel11232419233D

 39 44  0  0  1  0  0  0  0  0999 V2000
   39.1020   45.5480   19.2000 C   0  0  0  0  0  0  0  0  0  0  0  0
   39.9290   46.4330   18.5750 N   0  0  0  0  0  0  0  0  0  0  0  0
   39.6240   46.8260   17.3210 C   0  0  0  0  0  0  0  0  0  0  0  0
   40.5480   47.7910   16.7260 C   0  0  0  0  0  3  0  0  0  0  0  0
   40.3370   48.2510   15.4850 C   0  0  0  0  0  3  0  0  0  0  0  0
   39.2230   47.7980   14.7410 C   0  0  0  0  0  0  0  0  0  0  0  0
   38.8350   48.1060   13.5260 N   0  0  0  0  0  0  0  0  0  0  0  0
   37.7070   47.3910   13.2520 N   0  0  0  0  0  0  0  0  0  0  0  0
   37.4100   46.6480   14.3030 C   0  0  0  0  0  0  0  0  0  0  0  0
   38.3410   46.8760   15.3010 N   0  0  0  0  0  0  0  0  0  0  0  0
   38.5110   46.3720   16.6170 C   0  0  0  0  0  0  0  0  0  0  0  0
   37.6610   45.4800   17.2630 C   0  0  0  0  0  3  0  0  0  0  0  0
   37.9370   45.0490   18.5800 C   0  0  0  0  0  0  0  0  0  0  0  0
   36.9790   44.1390   19.2300 C   0  0  0  0  0  0  0  0  0  0  0  0
   35.6370   44.0940   18.8110 C   0  0  0  0  0  3  0  0  0  0  0  0
   34.7200   43.2420   19.4290 C   0  0  0  0  0  3  0  0  0  0  0  0
   35.1290   42.4240   20.4800 C   0  0  0  0  0  3  0  0  0  0  0  0
   36.4510   42.4610   20.9160 C   0  0  0  0  0  3  0  0  0  0  0  0
   37.3690   43.3140   20.2970 C   0  0  0  0  0  3  0  0  0  0  0  0
   40.4690   44.6160   23.2570 C   0  0  0  0  0  0  0  0  0  0  0  0
   39.2710   45.3060   22.9890 C   0  0  0  0  0  3  0  0  0  0  0  0
   38.8360   45.5850   21.6860 C   0  0  0  0  0  3  0  0  0  0  0  0
   39.5720   45.1940   20.5600 C   0  0  0  0  0  0  0  0  0  0  0  0
   40.7640   44.5030   20.8030 C   0  0  0  0  0  3  0  0  0  0  0  0
   41.1850   44.2040   22.1100 C   0  0  0  0  0  3  0  0  0  0  0  0
   39.8100   42.2830   27.3110 C   0  0  0  0  0  1  0  0  0  0  0  0
   39.8300   42.9360   25.9380 C   0  0  2  0  0  0  0  0  0  0  0  0
   41.1740   42.8350   25.1660 C   0  0  0  0  0  2  0  0  0  0  0  0
   40.9900   44.3230   24.7440 C   0  0  2  0  0  0  0  0  0  0  0  0
   40.0420   44.4730   25.9740 C   0  0  0  0  0  2  0  0  0  0  0  0
   42.2220   45.1240   24.9620 N   0  0  0  0  0  4  0  0  0  0  0  0
   42.0520   46.1110   24.7170 H   0  0  0  0  0  0  0  0  0  0  0  0
   42.5500   45.1040   25.9350 H   0  0  0  0  0  0  0  0  0  0  0  0
   42.9970   44.8020   24.3730 H   0  0  0  0  0  0  0  0  0  0  0  0
   38.6680   42.5320   25.1890 O   0  0  0  0  0  0  0  0  0  0  0  0
   38.6130   41.5600   25.2500 H   0  0  0  0  0  0  0  0  0  0  0  0
   36.2690   45.7160   14.3500 C   0  0  0  0  0  3  0  0  0  0  0  0
   36.6740   44.4430   14.6090 F   0  0  0  0  0  0  0  0  0  0  0  0
   35.3920   46.0500   15.3360 F   0  0  0  0  0  0  0  0  0  0  0  0
  1 23  1  0  0  0  0
  2  1  2  0  0  0  0
  3  2  1  0  0  0  0
  4  3  1  0  0  0  0
  5  4  2  0  0  0  0
  6 10  1  0  0  0  0
  6  5  1  0  0  0  0
  7  6  2  0  0  0  0
  8  7  1  0  0  0  0
  8  9  2  0  0  0  0
  9 37  1  0  0  0  0
  9 10  1  0  0  0  0
 10 11  1  0  0  0  0
 11 12  1  0  0  0  0
 11  3  2  0  0  0  0
 12 13  2  0  0  0  0
 13  1  1  0  0  0  0
 13 14  1  0  0  0  0
 14 19  1  0  0  0  0
 15 14  2  0  0  0  0
 15 16  1  0  0  0  0
 16 17  2  0  0  0  0
 17 18  1  0  0  0  0
 19 18  2  0  0  0  0
 20 29  1  0  0  0  0
 21 20  1  0  0  0  0
 22 21  2  0  0  0  0
 23 24  2  0  0  0  0
 23 22  1  0  0  0  0
 24 25  1  0  0  0  0
 25 20  2  0  0  0  0
 27 30  1  0  0  0  0
 27 26  1  1  0  0  0
 28 27  1  0  0  0  0
 29 31  1  1  0  0  0
 29 28  1  0  0  0  0
 29 30  1  0  0  0  0
 31 33  1  0  0  0  0
 32 31  1  0  0  0  0
 34 31  1  0  0  0  0
 35 36  1  0  0  0  0
 35 27  1  0  0  0  0
 37 38  1  0  0  0  0
 37 39  1  0  0  0  0
M  END
>  <minimizedAffinity>
-10.3883429

$$$$
