
 OpenBabel11232419233D

 39 44  0  0  1  0  0  0  0  0999 V2000
   35.7160   44.5650   18.1290 C   0  0  0  0  0  0  0  0  0  0  0  0
   34.7590   43.9000   18.8370 N   0  0  0  0  0  0  0  0  0  0  0  0
   33.5420   43.7350   18.2800 C   0  0  0  0  0  0  0  0  0  0  0  0
   32.5760   42.9960   19.0930 C   0  0  0  0  0  3  0  0  0  0  0  0
   31.3380   42.7720   18.6340 C   0  0  0  0  0  3  0  0  0  0  0  0
   30.9550   43.2580   17.3620 C   0  0  0  0  0  0  0  0  0  0  0  0
   29.8100   43.1620   16.7290 N   0  0  0  0  0  0  0  0  0  0  0  0
   29.9340   43.8100   15.5360 N   0  0  0  0  0  0  0  0  0  0  0  0
   31.1570   44.3020   15.4450 C   0  0  0  0  0  0  0  0  0  0  0  0
   31.8680   43.9670   16.5840 N   0  0  0  0  0  0  0  0  0  0  0  0
   33.1970   44.2150   17.0190 C   0  0  0  0  0  0  0  0  0  0  0  0
   34.1800   44.8810   16.2930 C   0  0  0  0  0  3  0  0  0  0  0  0
   35.4710   45.0670   16.8340 C   0  0  0  0  0  0  0  0  0  0  0  0
   36.4850   45.7390   16.0030 C   0  0  0  0  0  0  0  0  0  0  0  0
   36.6980   47.1250   16.1150 C   0  0  0  0  0  3  0  0  0  0  0  0
   37.6490   47.7710   15.3230 C   0  0  0  0  0  3  0  0  0  0  0  0
   38.3990   47.0430   14.4030 C   0  0  0  0  0  3  0  0  0  0  0  0
   38.1950   45.6720   14.2690 C   0  0  0  0  0  3  0  0  0  0  0  0
   37.2440   45.0240   15.0620 C   0  0  0  0  0  3  0  0  0  0  0  0
   39.5470   44.8670   20.2340 C   0  0  0  0  0  0  0  0  0  0  0  0
   39.3830   45.2240   18.8820 C   0  0  0  0  0  3  0  0  0  0  0  0
   38.1480   45.1380   18.2220 C   0  0  0  0  0  3  0  0  0  0  0  0
   36.9920   44.6850   18.8730 C   0  0  0  0  0  0  0  0  0  0  0  0
   37.1320   44.3300   20.2180 C   0  0  0  0  0  3  0  0  0  0  0  0
   38.3660   44.4410   20.8820 C   0  0  0  0  0  3  0  0  0  0  0  0
   42.2220   43.3350   23.8140 C   0  0  0  0  0  1  0  0  0  0  0  0
   41.1970   43.6990   22.7510 C   0  0  2  0  0  0  0  0  0  0  0  0
   41.6860   43.5860   21.2810 C   0  0  0  0  0  2  0  0  0  0  0  0
   40.9610   44.9320   20.9840 C   0  0  2  0  0  0  0  0  0  0  0  0
   41.0500   45.2260   22.5140 C   0  0  0  0  0  2  0  0  0  0  0  0
   41.8280   45.8840   20.2420 N   0  0  0  0  0  4  0  0  0  0  0  0
   41.3360   46.7790   20.1030 H   0  0  0  0  0  0  0  0  0  0  0  0
   42.7080   46.0920   20.7280 H   0  0  0  0  0  0  0  0  0  0  0  0
   42.0710   45.5310   19.3090 H   0  0  0  0  0  0  0  0  0  0  0  0
   39.9500   43.0360   23.0280 O   0  0  0  0  0  0  0  0  0  0  0  0
   40.1560   42.0950   23.1850 H   0  0  0  0  0  0  0  0  0  0  0  0
   31.6370   45.0960   14.3010 C   0  0  0  0  0  3  0  0  0  0  0  0
   30.6800   45.2180   13.3410 F   0  0  0  0  0  0  0  0  0  0  0  0
   31.9720   46.3610   14.6750 F   0  0  0  0  0  0  0  0  0  0  0  0
  1  2  1  0  0  0  0
  1 23  1  0  0  0  0
  3  2  2  0  0  0  0
  3  4  1  0  0  0  0
  5  4  2  0  0  0  0
  6  5  1  0  0  0  0
  7  6  2  0  0  0  0
  8  7  1  0  0  0  0
  9  8  2  0  0  0  0
  9 10  1  0  0  0  0
 10 11  1  0  0  0  0
 10  6  1  0  0  0  0
 11  3  1  0  0  0  0
 12 13  1  0  0  0  0
 12 11  2  0  0  0  0
 13  1  2  0  0  0  0
 14 15  1  0  0  0  0
 14 13  1  0  0  0  0
 16 15  2  0  0  0  0
 17 16  1  0  0  0  0
 18 17  2  0  0  0  0
 18 19  1  0  0  0  0
 19 14  2  0  0  0  0
 20 25  1  0  0  0  0
 20 29  1  0  0  0  0
 21 20  2  0  0  0  0
 22 23  2  0  0  0  0
 22 21  1  0  0  0  0
 23 24  1  0  0  0  0
 24 25  2  0  0  0  0
 27 35  1  0  0  0  0
 27 26  1  1  0  0  0
 28 27  1  0  0  0  0
 29 31  1  6  0  0  0
 29 28  1  0  0  0  0
 29 30  1  0  0  0  0
 30 27  1  0  0  0  0
 31 33  1  0  0  0  0
 32 31  1  0  0  0  0
 34 31  1  0  0  0  0
 35 36  1  0  0  0  0
 37 39  1  0  0  0  0
 37  9  1  0  0  0  0
 38 37  1  0  0  0  0
M  END
>  <minimizedAffinity>
-10.718564

$$$$
