
 OpenBabel11232420413D

 41 46  0  0  1  0  0  0  0  0999 V2000
  -19.2060   21.6700   10.7820 C   0  0  0  0  0  0  0  0  0  0  0  0
  -19.9290   21.1270   11.8320 N   0  0  0  0  0  0  0  0  0  0  0  0
  -20.0190   19.8430   11.5820 C   0  0  0  0  0  0  0  0  0  0  0  0
  -19.3930   19.5310   10.4100 N   0  0  0  0  0  0  0  0  0  0  0  0
  -18.8360   20.6750    9.8810 C   0  0  0  0  0  0  0  0  0  0  0  0
  -19.2390   18.1550    9.9780 C   0  0  0  0  0  2  0  0  0  0  0  0
  -20.2640   17.2740   10.4880 O   0  0  0  0  0  0  0  0  0  0  0  0
  -20.7190   17.5250   11.7580 C   0  0  0  0  0  0  0  0  0  0  0  0
  -21.3460   16.4790   12.4290 C   0  0  0  0  0  3  0  0  0  0  0  0
  -21.8570   16.6830   13.7160 C   0  0  0  0  0  3  0  0  0  0  0  0
  -21.7490   17.9400   14.3280 C   0  0  0  0  0  0  0  0  0  0  0  0
  -21.1490   18.9980   13.6320 C   0  0  0  0  0  3  0  0  0  0  0  0
  -20.6360   18.7890   12.3500 C   0  0  0  0  0  0  0  0  0  0  0  0
  -18.3120   25.9300   10.8760 C   0  0  0  0  0  0  0  0  0  0  0  0
  -18.4850   25.1450   12.0360 C   0  0  0  0  0  3  0  0  0  0  0  0
  -18.7680   23.7710   11.9810 C   0  0  0  0  0  3  0  0  0  0  0  0
  -18.9010   23.0990   10.7620 C   0  0  0  0  0  0  0  0  0  0  0  0
  -18.7580   23.8510    9.6000 C   0  0  0  0  0  3  0  0  0  0  0  0
  -18.4640   25.2240    9.6620 C   0  0  0  0  0  3  0  0  0  0  0  0
  -19.3680   30.5400   11.6690 C   0  0  0  0  0  1  0  0  0  0  0  0
  -19.4120   29.0220   11.5660 C   0  0  1  0  0  0  0  0  0  0  0  0
  -18.9630   28.4810   10.1840 C   0  0  0  0  0  2  0  0  0  0  0  0
  -17.9790   27.5060   10.8910 C   0  0  1  0  0  0  0  0  0  0  0  0
  -18.2100   28.2920   12.2130 C   0  0  0  0  0  2  0  0  0  0  0  0
  -16.5980   27.7310   10.3880 N   0  0  0  0  0  4  0  0  0  0  0  0
  -15.9030   27.2890   11.0030 H   0  0  0  0  0  0  0  0  0  0  0  0
  -16.4830   27.3280    9.4480 H   0  0  0  0  0  0  0  0  0  0  0  0
  -16.3520   28.7260   10.3220 H   0  0  0  0  0  0  0  0  0  0  0  0
  -20.7030   28.5460   11.9860 O   0  0  0  0  0  0  0  0  0  0  0  0
  -20.8910   28.9590   12.8500 H   0  0  0  0  0  0  0  0  0  0  0  0
  -18.0040   20.6660    8.6860 C   0  0  0  0  0  0  0  0  0  0  0  0
  -16.6310   20.4080    8.7820 C   0  0  0  0  0  3  0  0  0  0  0  0
  -15.8360   20.4130    7.6350 C   0  0  0  0  0  3  0  0  0  0  0  0
  -16.4070   20.6750    6.3900 C   0  0  0  0  0  3  0  0  0  0  0  0
  -17.7730   20.9310    6.2890 C   0  0  0  0  0  3  0  0  0  0  0  0
  -18.5710   20.9270    7.4340 C   0  0  0  0  0  3  0  0  0  0  0  0
  -22.2690   18.2150   15.6950 C   0  0  0  0  0  0  0  0  0  0  0  0
  -23.0370   19.3310   15.8770 N   0  0  0  0  0  0  0  0  0  0  0  0
  -22.0480   17.4530   16.6290 O   0  0  0  0  0  0  0  0  0  0  0  0
  -23.3880   19.5000   16.8110 H   0  0  0  0  0  0  0  0  0  0  0  0
  -23.3310   19.9550   15.1420 H   0  0  0  0  0  0  0  0  0  0  0  0
  1  2  1  0  0  0  0
  3  2  2  0  0  0  0
  3 13  1  0  0  0  0
  4  3  1  0  0  0  0
  5  4  1  0  0  0  0
  5  1  2  0  0  0  0
  6  4  1  0  0  0  0
  6  7  1  0  0  0  0
  7  8  1  0  0  0  0
  8 13  2  0  0  0  0
  8  9  1  0  0  0  0
  9 10  2  0  0  0  0
 10 11  1  0  0  0  0
 11 37  1  0  0  0  0
 12 11  2  0  0  0  0
 13 12  1  0  0  0  0
 14 23  1  0  0  0  0
 14 15  1  0  0  0  0
 16 15  2  0  0  0  0
 17  1  1  0  0  0  0
 17 16  1  0  0  0  0
 18 19  1  0  0  0  0
 18 17  2  0  0  0  0
 19 14  2  0  0  0  0
 21 20  1  1  0  0  0
 21 29  1  0  0  0  0
 21 24  1  0  0  0  0
 22 23  1  0  0  0  0
 22 21  1  0  0  0  0
 23 25  1  6  0  0  0
 23 24  1  0  0  0  0
 25 26  1  0  0  0  0
 27 25  1  0  0  0  0
 28 25  1  0  0  0  0
 29 30  1  0  0  0  0
 31 32  1  0  0  0  0
 31  5  1  0  0  0  0
 33 32  2  0  0  0  0
 34 33  1  0  0  0  0
 35 34  2  0  0  0  0
 35 36  1  0  0  0  0
 36 31  2  0  0  0  0
 37 38  1  0  0  0  0
 37 39  2  0  0  0  0
 38 40  1  0  0  0  0
 41 38  1  0  0  0  0
M  END
>  <minimizedAffinity>
-12.6400585

$$$$
