
 OpenBabel11232420413D

 41 46  0  0  1  0  0  0  0  0999 V2000
  -17.1210   29.8300   11.9350 C   0  0  0  0  0  0  0  0  0  0  0  0
  -16.1070   30.2920   11.1120 N   0  0  0  0  0  0  0  0  0  0  0  0
  -15.7400   31.4500   11.6070 C   0  0  0  0  0  0  0  0  0  0  0  0
  -16.4790   31.7620   12.7100 N   0  0  0  0  0  0  0  0  0  0  0  0
  -17.3580   30.7330   12.9680 C   0  0  0  0  0  0  0  0  0  0  0  0
  -16.1770   32.9300   13.5180 C   0  0  0  0  0  2  0  0  0  0  0  0
  -15.5300   33.9880   12.7770 O   0  0  0  0  0  0  0  0  0  0  0  0
  -14.6450   33.6070   11.8010 C   0  0  0  0  0  0  0  0  0  0  0  0
  -13.7020   34.5480   11.3930 C   0  0  0  0  0  3  0  0  0  0  0  0
  -12.7910   34.2280   10.3800 C   0  0  0  0  0  3  0  0  0  0  0  0
  -12.8290   32.9670    9.7680 C   0  0  0  0  0  0  0  0  0  0  0  0
  -13.8040   32.0390   10.1580 C   0  0  0  0  0  3  0  0  0  0  0  0
  -14.7090   32.3600   11.1720 C   0  0  0  0  0  0  0  0  0  0  0  0
  -18.8470   25.9210   11.0990 C   0  0  0  0  0  0  0  0  0  0  0  0
  -17.4840   26.2290   10.8990 C   0  0  0  0  0  3  0  0  0  0  0  0
  -16.9490   27.4960   11.1820 C   0  0  0  0  0  3  0  0  0  0  0  0
  -17.7450   28.5350   11.6740 C   0  0  0  0  0  0  0  0  0  0  0  0
  -19.0980   28.2680   11.8590 C   0  0  0  0  0  3  0  0  0  0  0  0
  -19.6260   26.9940   11.5860 C   0  0  0  0  0  3  0  0  0  0  0  0
  -18.8680   21.1260   11.0670 C   0  0  0  0  0  1  0  0  0  0  0  0
  -18.4960   22.5900   11.2560 C   0  0  1  0  0  0  0  0  0  0  0  0
  -18.6820   23.4460    9.9780 C   0  0  0  0  0  2  0  0  0  0  0  0
  -19.5040   24.4810   10.7960 C   0  0  1  0  0  0  0  0  0  0  0  0
  -19.5740   23.4490   11.9580 C   0  0  0  0  0  2  0  0  0  0  0  0
  -20.8450   24.6620   10.1800 N   0  0  0  0  0  4  0  0  0  0  0  0
  -21.4880   25.1370   10.8260 H   0  0  0  0  0  0  0  0  0  0  0  0
  -20.7790   25.2360    9.3280 H   0  0  0  0  0  0  0  0  0  0  0  0
  -21.2870   23.7740    9.9130 H   0  0  0  0  0  0  0  0  0  0  0  0
  -17.1810   22.6840   11.8320 O   0  0  0  0  0  0  0  0  0  0  0  0
  -17.1700   22.0970   12.6130 H   0  0  0  0  0  0  0  0  0  0  0  0
  -18.2180   30.7060   14.1430 C   0  0  0  0  0  0  0  0  0  0  0  0
  -19.5420   31.1540   14.0600 C   0  0  0  0  0  3  0  0  0  0  0  0
  -20.3580   31.1380   15.1920 C   0  0  0  0  0  3  0  0  0  0  0  0
  -19.8570   30.6740   16.4080 C   0  0  0  0  0  3  0  0  0  0  0  0
  -18.5400   30.2260   16.4960 C   0  0  0  0  0  3  0  0  0  0  0  0
  -17.7210   30.2410   15.3660 C   0  0  0  0  0  3  0  0  0  0  0  0
  -11.8840   32.5680    8.6890 C   0  0  0  0  0  0  0  0  0  0  0  0
  -11.9400   33.2470    7.5040 N   0  0  0  0  0  0  0  0  0  0  0  0
  -11.0560   31.6820    8.8600 O   0  0  0  0  0  0  0  0  0  0  0  0
  -11.2860   32.9680    6.7840 H   0  0  0  0  0  0  0  0  0  0  0  0
  -12.5330   34.0420    7.3210 H   0  0  0  0  0  0  0  0  0  0  0  0
  1  5  2  0  0  0  0
  2  3  2  0  0  0  0
  2  1  1  0  0  0  0
  3  4  1  0  0  0  0
  4  5  1  0  0  0  0
  4  6  1  0  0  0  0
  5 31  1  0  0  0  0
  7  6  1  0  0  0  0
  8  7  1  0  0  0  0
  9  8  1  0  0  0  0
 10  9  2  0  0  0  0
 11 12  2  0  0  0  0
 11 10  1  0  0  0  0
 12 13  1  0  0  0  0
 13  3  1  0  0  0  0
 13  8  2  0  0  0  0
 14 19  1  0  0  0  0
 15 14  2  0  0  0  0
 15 16  1  0  0  0  0
 16 17  2  0  0  0  0
 17 18  1  0  0  0  0
 17  1  1  0  0  0  0
 19 18  2  0  0  0  0
 21 20  1  6  0  0  0
 21 29  1  0  0  0  0
 21 24  1  0  0  0  0
 22 23  1  0  0  0  0
 22 21  1  0  0  0  0
 23 25  1  6  0  0  0
 23 14  1  0  0  0  0
 23 24  1  0  0  0  0
 25 26  1  0  0  0  0
 27 25  1  0  0  0  0
 28 25  1  0  0  0  0
 29 30  1  0  0  0  0
 31 36  1  0  0  0  0
 32 31  2  0  0  0  0
 32 33  1  0  0  0  0
 33 34  2  0  0  0  0
 34 35  1  0  0  0  0
 36 35  2  0  0  0  0
 37 39  2  0  0  0  0
 37 11  1  0  0  0  0
 38 37  1  0  0  0  0
 40 38  1  0  0  0  0
 41 38  1  0  0  0  0
M  END
>  <minimizedAffinity>
-10.3551083

$$$$
