
 OpenBabel11232420413D

 41 46  0  0  1  0  0  0  0  0999 V2000
  -20.0610   20.9560   11.8290 C   0  0  0  0  0  0  0  0  0  0  0  0
  -19.9950   22.3300   11.9930 N   0  0  0  0  0  0  0  0  0  0  0  0
  -19.2980   22.7820   10.9780 C   0  0  0  0  0  0  0  0  0  0  0  0
  -18.9020   21.7580   10.1680 N   0  0  0  0  0  0  0  0  0  0  0  0
  -19.3960   20.5730   10.6670 C   0  0  0  0  0  0  0  0  0  0  0  0
  -18.2300   22.0080    8.9060 C   0  0  0  0  0  2  0  0  0  0  0  0
  -17.4970   23.2540    8.8830 O   0  0  0  0  0  0  0  0  0  0  0  0
  -18.0500   24.3090    9.5630 C   0  0  0  0  0  0  0  0  0  0  0  0
  -17.6320   25.5870    9.2050 C   0  0  0  0  0  3  0  0  0  0  0  0
  -18.1380   26.7020    9.8830 C   0  0  0  0  0  3  0  0  0  0  0  0
  -19.0590   26.5360   10.9280 C   0  0  0  0  0  0  0  0  0  0  0  0
  -19.4470   25.2440   11.3070 C   0  0  0  0  0  3  0  0  0  0  0  0
  -18.9430   24.1350   10.6250 C   0  0  0  0  0  0  0  0  0  0  0  0
  -22.1460   18.4060   14.6770 C   0  0  0  0  0  0  0  0  0  0  0  0
  -20.8830   18.0920   14.1290 C   0  0  0  0  0  3  0  0  0  0  0  0
  -20.2280   18.9330   13.2170 C   0  0  0  0  0  3  0  0  0  0  0  0
  -20.7960   20.1370   12.7900 C   0  0  0  0  0  0  0  0  0  0  0  0
  -22.0520   20.4630   13.2950 C   0  0  0  0  0  3  0  0  0  0  0  0
  -22.6990   19.6220   14.2170 C   0  0  0  0  0  3  0  0  0  0  0  0
  -22.9550   14.3050   17.0260 C   0  0  0  0  0  1  0  0  0  0  0  0
  -22.3900   15.3890   16.1180 C   0  0  1  0  0  0  0  0  0  0  0  0
  -23.4640   16.0960   15.2550 C   0  0  0  0  0  2  0  0  0  0  0  0
  -22.9320   17.4770   15.7320 C   0  0  1  0  0  0  0  0  0  0  0  0
  -22.1020   16.7380   16.8200 C   0  0  0  0  0  2  0  0  0  0  0  0
  -24.0350   18.2540   16.3590 N   0  0  0  0  0  4  0  0  0  0  0  0
  -23.6680   19.0470   16.8990 H   0  0  0  0  0  0  0  0  0  0  0  0
  -24.6680   18.6310   15.6410 H   0  0  0  0  0  0  0  0  0  0  0  0
  -24.6070   17.6910   17.0000 H   0  0  0  0  0  0  0  0  0  0  0  0
  -21.2900   14.8570   15.3590 O   0  0  0  0  0  0  0  0  0  0  0  0
  -20.6880   14.4230   15.9940 H   0  0  0  0  0  0  0  0  0  0  0  0
  -19.2420   19.3010    9.9760 C   0  0  0  0  0  0  0  0  0  0  0  0
  -18.0790   19.0310    9.2430 C   0  0  0  0  0  3  0  0  0  0  0  0
  -17.9420   17.8150    8.5720 C   0  0  0  0  0  3  0  0  0  0  0  0
  -18.9620   16.8660    8.6300 C   0  0  0  0  0  3  0  0  0  0  0  0
  -20.1200   17.1290    9.3580 C   0  0  0  0  0  3  0  0  0  0  0  0
  -20.2610   18.3440   10.0310 C   0  0  0  0  0  3  0  0  0  0  0  0
  -19.6350   27.6830   11.6810 C   0  0  0  0  0  0  0  0  0  0  0  0
  -18.7710   28.5470   12.2940 N   0  0  0  0  0  0  0  0  0  0  0  0
  -20.8440   27.8740   11.7300 O   0  0  0  0  0  0  0  0  0  0  0  0
  -19.1790   29.3250   12.7960 H   0  0  0  0  0  0  0  0  0  0  0  0
  -17.7660   28.5040   12.2250 H   0  0  0  0  0  0  0  0  0  0  0  0
  1  2  1  0  0  0  0
  1 17  1  0  0  0  0
  3  2  2  0  0  0  0
  4  5  1  0  0  0  0
  4  3  1  0  0  0  0
  5  1  2  0  0  0  0
  6  4  1  0  0  0  0
  7  6  1  0  0  0  0
  7  8  1  0  0  0  0
  8 13  1  0  0  0  0
  9  8  2  0  0  0  0
  9 10  1  0  0  0  0
 10 11  2  0  0  0  0
 11 12  1  0  0  0  0
 11 37  1  0  0  0  0
 13  3  1  0  0  0  0
 13 12  2  0  0  0  0
 14 23  1  0  0  0  0
 15 14  2  0  0  0  0
 16 15  1  0  0  0  0
 17 16  2  0  0  0  0
 17 18  1  0  0  0  0
 18 19  2  0  0  0  0
 19 14  1  0  0  0  0
 21 24  1  0  0  0  0
 21 20  1  1  0  0  0
 22 23  1  0  0  0  0
 22 21  1  0  0  0  0
 23 25  1  1  0  0  0
 23 24  1  0  0  0  0
 25 26  1  0  0  0  0
 25 28  1  0  0  0  0
 27 25  1  0  0  0  0
 29 30  1  0  0  0  0
 29 21  1  0  0  0  0
 31 36  1  0  0  0  0
 31  5  1  0  0  0  0
 32 31  2  0  0  0  0
 33 34  2  0  0  0  0
 33 32  1  0  0  0  0
 34 35  1  0  0  0  0
 35 36  2  0  0  0  0
 37 39  2  0  0  0  0
 37 38  1  0  0  0  0
 38 40  1  0  0  0  0
 41 38  1  0  0  0  0
M  END
>  <minimizedAffinity>
-11.05791

$$$$
