
 OpenBabel11232420413D

 41 46  0  0  1  0  0  0  0  0999 V2000
  -22.3210   17.7430   13.8230 C   0  0  0  0  0  0  0  0  0  0  0  0
  -22.6450   16.6530   13.0320 N   0  0  0  0  0  0  0  0  0  0  0  0
  -23.0770   15.7270   13.8530 C   0  0  0  0  0  0  0  0  0  0  0  0
  -23.0400   16.1670   15.1440 N   0  0  0  0  0  0  0  0  0  0  0  0
  -22.5850   17.4680   15.1620 C   0  0  0  0  0  0  0  0  0  0  0  0
  -23.5900   15.3770   16.2300 C   0  0  0  0  0  2  0  0  0  0  0  0
  -23.5830   13.9560   15.9650 O   0  0  0  0  0  0  0  0  0  0  0  0
  -23.8210   13.5660   14.6720 C   0  0  0  0  0  0  0  0  0  0  0  0
  -24.2560   12.2600   14.4700 C   0  0  0  0  0  3  0  0  0  0  0  0
  -24.4870   11.7950   13.1700 C   0  0  0  0  0  3  0  0  0  0  0  0
  -24.2730   12.6380   12.0690 C   0  0  0  0  0  0  0  0  0  0  0  0
  -23.8000   13.9400   12.2790 C   0  0  0  0  0  3  0  0  0  0  0  0
  -23.5750   14.4010   13.5780 C   0  0  0  0  0  0  0  0  0  0  0  0
  -20.7020   21.3380   11.9730 C   0  0  0  0  0  0  0  0  0  0  0  0
  -20.0060   20.1110   12.0330 C   0  0  0  0  0  3  0  0  0  0  0  0
  -20.5510   18.9630   12.6300 C   0  0  0  0  0  3  0  0  0  0  0  0
  -21.8230   18.9730   13.2100 C   0  0  0  0  0  0  0  0  0  0  0  0
  -22.5250   20.1740   13.1880 C   0  0  0  0  0  3  0  0  0  0  0  0
  -21.9790   21.3170   12.5780 C   0  0  0  0  0  3  0  0  0  0  0  0
  -17.1860   24.3540   10.7360 C   0  0  0  0  0  1  0  0  0  0  0  0
  -17.9880   23.1790   11.2800 C   0  0  1  0  0  0  0  0  0  0  0  0
  -19.2050   23.6040   12.1390 C   0  0  0  0  0  2  0  0  0  0  0  0
  -20.1200   22.6770   11.2920 C   0  0  1  0  0  0  0  0  0  0  0  0
  -18.9620   22.5330   10.2650 C   0  0  0  0  0  2  0  0  0  0  0  0
  -21.2370   23.4670   10.7090 N   0  0  0  0  0  4  0  0  0  0  0  0
  -21.7050   22.9460    9.9550 H   0  0  0  0  0  0  0  0  0  0  0  0
  -21.9440   23.6820   11.4250 H   0  0  0  0  0  0  0  0  0  0  0  0
  -20.9300   24.3620   10.3100 H   0  0  0  0  0  0  0  0  0  0  0  0
  -17.1040   22.2550   11.9380 O   0  0  0  0  0  0  0  0  0  0  0  0
  -16.3710   22.0710   11.3200 H   0  0  0  0  0  0  0  0  0  0  0  0
  -22.5280   18.2660   16.3780 C   0  0  0  0  0  0  0  0  0  0  0  0
  -21.4020   18.2110   17.2090 C   0  0  0  0  0  3  0  0  0  0  0  0
  -21.3580   18.9690   18.3790 C   0  0  0  0  0  3  0  0  0  0  0  0
  -22.4360   19.7840   18.7250 C   0  0  0  0  0  3  0  0  0  0  0  0
  -23.5590   19.8430   17.9010 C   0  0  0  0  0  3  0  0  0  0  0  0
  -23.6060   19.0870   16.7300 C   0  0  0  0  0  3  0  0  0  0  0  0
  -24.5060   12.2010   10.6660 C   0  0  0  0  0  0  0  0  0  0  0  0
  -25.7800   12.2660   10.1760 N   0  0  0  0  0  0  0  0  0  0  0  0
  -23.5840   11.8230    9.9530 O   0  0  0  0  0  0  0  0  0  0  0  0
  -25.9200   11.9720    9.2180 H   0  0  0  0  0  0  0  0  0  0  0  0
  -26.5710   12.6470   10.6730 H   0  0  0  0  0  0  0  0  0  0  0  0
  1  5  2  0  0  0  0
  2  1  1  0  0  0  0
  2  3  2  0  0  0  0
  3  4  1  0  0  0  0
  4  5  1  0  0  0  0
  4  6  1  0  0  0  0
  5 31  1  0  0  0  0
  7  6  1  0  0  0  0
  8  7  1  0  0  0  0
  9  8  1  0  0  0  0
 10  9  2  0  0  0  0
 11 12  2  0  0  0  0
 11 10  1  0  0  0  0
 12 13  1  0  0  0  0
 13  3  1  0  0  0  0
 13  8  2  0  0  0  0
 14 15  2  0  0  0  0
 14 19  1  0  0  0  0
 15 16  1  0  0  0  0
 16 17  2  0  0  0  0
 17  1  1  0  0  0  0
 18 17  1  0  0  0  0
 19 18  2  0  0  0  0
 21 20  1  6  0  0  0
 21 29  1  0  0  0  0
 21 22  1  0  0  0  0
 23 25  1  6  0  0  0
 23 14  1  0  0  0  0
 23 22  1  0  0  0  0
 24 21  1  0  0  0  0
 24 23  1  0  0  0  0
 25 27  1  0  0  0  0
 26 25  1  0  0  0  0
 28 25  1  0  0  0  0
 30 29  1  0  0  0  0
 31 36  2  0  0  0  0
 31 32  1  0  0  0  0
 32 33  2  0  0  0  0
 33 34  1  0  0  0  0
 35 34  2  0  0  0  0
 36 35  1  0  0  0  0
 37 11  1  0  0  0  0
 38 37  1  0  0  0  0
 38 41  1  0  0  0  0
 39 37  2  0  0  0  0
 40 38  1  0  0  0  0
M  END
>  <minimizedAffinity>
-11.205698

$$$$
