
 OpenBabel11232420413D

 41 46  0  0  1  0  0  0  0  0999 V2000
  -21.6130   16.5240   12.5950 C   0  0  0  0  0  0  0  0  0  0  0  0
  -22.0320   15.4290   11.8560 N   0  0  0  0  0  0  0  0  0  0  0  0
  -22.6630   14.6460   12.6980 C   0  0  0  0  0  0  0  0  0  0  0  0
  -22.6630   15.1820   13.9530 N   0  0  0  0  0  0  0  0  0  0  0  0
  -22.0210   16.4010   13.9200 C   0  0  0  0  0  0  0  0  0  0  0  0
  -23.4100   14.5710   15.0370 C   0  0  0  0  0  2  0  0  0  0  0  0
  -23.5950   13.1470   14.8750 O   0  0  0  0  0  0  0  0  0  0  0  0
  -23.7840   12.6890   13.5960 C   0  0  0  0  0  0  0  0  0  0  0  0
  -24.3930   11.4460   13.4480 C   0  0  0  0  0  3  0  0  0  0  0  0
  -24.5870   10.9130   12.1680 C   0  0  0  0  0  3  0  0  0  0  0  0
  -24.1620   11.6220   11.0350 C   0  0  0  0  0  0  0  0  0  0  0  0
  -23.5170   12.8560   11.1950 C   0  0  0  0  0  3  0  0  0  0  0  0
  -23.3300   13.3870   12.4730 C   0  0  0  0  0  0  0  0  0  0  0  0
  -19.4010   19.6720   10.5570 C   0  0  0  0  0  0  0  0  0  0  0  0
  -19.4650   18.3400   10.0940 C   0  0  0  0  0  3  0  0  0  0  0  0
  -20.1900   17.3430   10.7650 C   0  0  0  0  0  3  0  0  0  0  0  0
  -20.8900   17.6140   11.9450 C   0  0  0  0  0  0  0  0  0  0  0  0
  -20.8260   18.9130   12.4400 C   0  0  0  0  0  3  0  0  0  0  0  0
  -20.1080   19.9110   11.7570 C   0  0  0  0  0  3  0  0  0  0  0  0
  -16.7240   21.4800    7.0130 C   0  0  0  0  0  1  0  0  0  0  0  0
  -17.5560   20.5680    7.9040 C   0  0  1  0  0  0  0  0  0  0  0  0
  -17.1180   20.5860    9.3910 C   0  0  0  0  0  2  0  0  0  0  0  0
  -18.5890   20.8500    9.8170 C   0  0  1  0  0  0  0  0  0  0  0  0
  -18.9260   21.1500    8.3290 C   0  0  0  0  0  2  0  0  0  0  0  0
  -18.6640   22.0950   10.6270 N   0  0  0  0  0  4  0  0  0  0  0  0
  -19.6330   22.4270   10.7080 H   0  0  0  0  0  0  0  0  0  0  0  0
  -18.3100   21.9310   11.5790 H   0  0  0  0  0  0  0  0  0  0  0  0
  -18.1140   22.8660   10.2290 H   0  0  0  0  0  0  0  0  0  0  0  0
  -17.6130   19.2510    7.3290 O   0  0  0  0  0  0  0  0  0  0  0  0
  -17.8800   19.3590    6.3960 H   0  0  0  0  0  0  0  0  0  0  0  0
  -21.9430   17.2810   15.0770 C   0  0  0  0  0  0  0  0  0  0  0  0
  -20.9240   17.1170   16.0240 C   0  0  0  0  0  3  0  0  0  0  0  0
  -20.8600   17.9550   17.1370 C   0  0  0  0  0  3  0  0  0  0  0  0
  -21.8120   18.9600   17.3100 C   0  0  0  0  0  3  0  0  0  0  0  0
  -22.8280   19.1290   16.3710 C   0  0  0  0  0  3  0  0  0  0  0  0
  -22.8940   18.2920   15.2560 C   0  0  0  0  0  3  0  0  0  0  0  0
  -24.3450   11.1080    9.6500 C   0  0  0  0  0  0  0  0  0  0  0  0
  -25.6190   11.0060    9.1660 N   0  0  0  0  0  0  0  0  0  0  0  0
  -23.3870   10.8120    8.9470 O   0  0  0  0  0  0  0  0  0  0  0  0
  -25.7250   10.6620    8.2210 H   0  0  0  0  0  0  0  0  0  0  0  0
  -26.4470   11.3110    9.6540 H   0  0  0  0  0  0  0  0  0  0  0  0
  1  5  2  0  0  0  0
  2  1  1  0  0  0  0
  2  3  2  0  0  0  0
  3  4  1  0  0  0  0
  4  6  1  0  0  0  0
  5  4  1  0  0  0  0
  5 31  1  0  0  0  0
  7  6  1  0  0  0  0
  8  7  1  0  0  0  0
  9  8  1  0  0  0  0
 10  9  2  0  0  0  0
 11 12  2  0  0  0  0
 11 10  1  0  0  0  0
 12 13  1  0  0  0  0
 13  3  1  0  0  0  0
 13  8  2  0  0  0  0
 14 19  1  0  0  0  0
 15 14  2  0  0  0  0
 15 16  1  0  0  0  0
 16 17  2  0  0  0  0
 17 18  1  0  0  0  0
 17  1  1  0  0  0  0
 19 18  2  0  0  0  0
 21 20  1  6  0  0  0
 21 24  1  0  0  0  0
 21 22  1  0  0  0  0
 22 23  1  0  0  0  0
 23 14  1  0  0  0  0
 23 25  1  1  0  0  0
 24 23  1  0  0  0  0
 25 26  1  0  0  0  0
 25 27  1  0  0  0  0
 28 25  1  0  0  0  0
 29 21  1  0  0  0  0
 30 29  1  0  0  0  0
 31 36  2  0  0  0  0
 31 32  1  0  0  0  0
 32 33  2  0  0  0  0
 33 34  1  0  0  0  0
 35 34  2  0  0  0  0
 36 35  1  0  0  0  0
 37 11  1  0  0  0  0
 38 37  1  0  0  0  0
 38 41  1  0  0  0  0
 39 37  2  0  0  0  0
 40 38  1  0  0  0  0
M  END
>  <minimizedAffinity>
-10.2030506

$$$$
