
 OpenBabel11232420413D

 41 46  0  0  1  0  0  0  0  0999 V2000
  -18.8680   22.7110   10.3210 C   0  0  0  0  0  0  0  0  0  0  0  0
  -17.9580   22.5150    9.2950 N   0  0  0  0  0  0  0  0  0  0  0  0
  -17.9300   21.2220    9.0800 C   0  0  0  0  0  0  0  0  0  0  0  0
  -18.7760   20.5700    9.9280 N   0  0  0  0  0  0  0  0  0  0  0  0
  -19.4170   21.4950   10.7220 C   0  0  0  0  0  0  0  0  0  0  0  0
  -19.0240   19.1460    9.8030 C   0  0  0  0  0  2  0  0  0  0  0  0
  -17.9250   18.4220    9.2040 O   0  0  0  0  0  0  0  0  0  0  0  0
  -17.2280   19.0660    8.2130 C   0  0  0  0  0  0  0  0  0  0  0  0
  -16.4910   18.2750    7.3360 C   0  0  0  0  0  3  0  0  0  0  0  0
  -15.7360   18.8760    6.3220 C   0  0  0  0  0  3  0  0  0  0  0  0
  -15.7120   20.2730    6.1920 C   0  0  0  0  0  0  0  0  0  0  0  0
  -16.4270   21.0630    7.1020 C   0  0  0  0  0  3  0  0  0  0  0  0
  -17.1830   20.4590    8.1090 C   0  0  0  0  0  0  0  0  0  0  0  0
  -19.5950   26.7420   11.7970 C   0  0  0  0  0  0  0  0  0  0  0  0
  -18.3460   26.0910   11.8910 C   0  0  0  0  0  3  0  0  0  0  0  0
  -18.1340   24.7930   11.4030 C   0  0  0  0  0  3  0  0  0  0  0  0
  -19.1600   24.0610   10.7960 C   0  0  0  0  0  0  0  0  0  0  0  0
  -20.4100   24.6670   10.7100 C   0  0  0  0  0  3  0  0  0  0  0  0
  -20.6130   25.9730   11.1910 C   0  0  0  0  0  3  0  0  0  0  0  0
  -18.9370   31.4910   11.8660 C   0  0  0  0  0  1  0  0  0  0  0  0
  -18.8700   30.0050   11.5410 C   0  0  1  0  0  0  0  0  0  0  0  0
  -18.6790   29.1060   12.7880 C   0  0  0  0  0  2  0  0  0  0  0  0
  -19.8830   28.2330   12.3370 C   0  0  1  0  0  0  0  0  0  0  0  0
  -20.2420   29.3320   11.2970 C   0  0  0  0  0  2  0  0  0  0  0  0
  -20.9050   28.1850   13.4160 N   0  0  0  0  0  4  0  0  0  0  0  0
  -21.8030   27.8350   13.0600 H   0  0  0  0  0  0  0  0  0  0  0  0
  -20.6040   27.5590   14.1750 H   0  0  0  0  0  0  0  0  0  0  0  0
  -21.0860   29.1050   13.8370 H   0  0  0  0  0  0  0  0  0  0  0  0
  -17.8960   29.7820   10.5060 O   0  0  0  0  0  0  0  0  0  0  0  0
  -18.0980   30.4070    9.7840 H   0  0  0  0  0  0  0  0  0  0  0  0
  -20.4660   21.1340   11.6640 C   0  0  0  0  0  0  0  0  0  0  0  0
  -20.3310   19.9970   12.4710 C   0  0  0  0  0  3  0  0  0  0  0  0
  -21.3460   19.6480   13.3630 C   0  0  0  0  0  3  0  0  0  0  0  0
  -22.4970   20.4300   13.4540 C   0  0  0  0  0  3  0  0  0  0  0  0
  -22.6350   21.5630   12.6540 C   0  0  0  0  0  3  0  0  0  0  0  0
  -21.6230   21.9160   11.7610 C   0  0  0  0  0  3  0  0  0  0  0  0
  -14.9310   20.9670    5.1330 C   0  0  0  0  0  0  0  0  0  0  0  0
  -15.5650   21.9260    4.3930 N   0  0  0  0  0  0  0  0  0  0  0  0
  -13.7470   20.7160    4.9420 O   0  0  0  0  0  0  0  0  0  0  0  0
  -15.0180   22.3940    3.6820 H   0  0  0  0  0  0  0  0  0  0  0  0
  -16.5080   22.2460    4.5500 H   0  0  0  0  0  0  0  0  0  0  0  0
  1  5  2  0  0  0  0
  1 17  1  0  0  0  0
  2  1  1  0  0  0  0
  3  2  2  0  0  0  0
  3  4  1  0  0  0  0
  4  5  1  0  0  0  0
  5 31  1  0  0  0  0
  6  4  1  0  0  0  0
  7  6  1  0  0  0  0
  8  7  1  0  0  0  0
  9  8  2  0  0  0  0
 10  9  1  0  0  0  0
 11 10  2  0  0  0  0
 11 12  1  0  0  0  0
 12 13  2  0  0  0  0
 13  8  1  0  0  0  0
 13  3  1  0  0  0  0
 14 15  1  0  0  0  0
 14 23  1  0  0  0  0
 16 15  2  0  0  0  0
 17 16  1  0  0  0  0
 18 17  2  0  0  0  0
 18 19  1  0  0  0  0
 19 14  2  0  0  0  0
 21 20  1  1  0  0  0
 21 22  1  0  0  0  0
 23 22  1  0  0  0  0
 23 25  1  1  0  0  0
 24 21  1  0  0  0  0
 24 23  1  0  0  0  0
 25 28  1  0  0  0  0
 25 27  1  0  0  0  0
 26 25  1  0  0  0  0
 29 21  1  0  0  0  0
 30 29  1  0  0  0  0
 31 36  2  0  0  0  0
 31 32  1  0  0  0  0
 32 33  2  0  0  0  0
 33 34  1  0  0  0  0
 35 34  2  0  0  0  0
 36 35  1  0  0  0  0
 37 11  1  0  0  0  0
 38 41  1  0  0  0  0
 38 37  1  0  0  0  0
 39 37  2  0  0  0  0
 40 38  1  0  0  0  0
M  END
>  <minimizedAffinity>
-11.1791935

$$$$
