
 OpenBabel11232420413D

 41 46  0  0  1  0  0  0  0  0999 V2000
  -20.5820   17.2250   14.6030 C   0  0  0  0  0  0  0  0  0  0  0  0
  -19.9590   17.9330   13.5890 N   0  0  0  0  0  0  0  0  0  0  0  0
  -20.7060   18.9900   13.3750 C   0  0  0  0  0  0  0  0  0  0  0  0
  -21.7910   18.9920   14.2010 N   0  0  0  0  0  0  0  0  0  0  0  0
  -21.7320   17.8880   15.0230 C   0  0  0  0  0  0  0  0  0  0  0  0
  -22.7010   20.1210   14.2520 C   0  0  0  0  0  2  0  0  0  0  0  0
  -22.7470   20.8780   13.0210 O   0  0  0  0  0  0  0  0  0  0  0  0
  -21.5690   21.0030   12.3290 C   0  0  0  0  0  0  0  0  0  0  0  0
  -21.4720   22.0550   11.4230 C   0  0  0  0  0  3  0  0  0  0  0  0
  -20.3060   22.2170   10.6650 C   0  0  0  0  0  3  0  0  0  0  0  0
  -19.2390   21.3180   10.8090 C   0  0  0  0  0  0  0  0  0  0  0  0
  -19.3590   20.2410   11.6980 C   0  0  0  0  0  3  0  0  0  0  0  0
  -20.5220   20.0860   12.4550 C   0  0  0  0  0  0  0  0  0  0  0  0
  -18.8530   13.5810   16.2440 C   0  0  0  0  0  0  0  0  0  0  0  0
  -19.5590   14.5260   17.0190 C   0  0  0  0  0  3  0  0  0  0  0  0
  -20.1130   15.6910   16.4670 C   0  0  0  0  0  3  0  0  0  0  0  0
  -19.9890   15.9880   15.1060 C   0  0  0  0  0  0  0  0  0  0  0  0
  -19.2780   15.0860   14.3190 C   0  0  0  0  0  3  0  0  0  0  0  0
  -18.7350   13.9150   14.8760 C   0  0  0  0  0  3  0  0  0  0  0  0
  -18.9120    9.5930   18.9060 C   0  0  0  0  0  1  0  0  0  0  0  0
  -19.2770   10.8940   18.2030 C   0  0  1  0  0  0  0  0  0  0  0  0
  -18.2140   12.0090   18.3720 C   0  0  0  0  0  2  0  0  0  0  0  0
  -18.2070   12.2280   16.8330 C   0  0  1  0  0  0  0  0  0  0  0  0
  -19.0100   10.9050   16.6790 C   0  0  0  0  0  2  0  0  0  0  0  0
  -16.8270   12.0620   16.3060 N   0  0  0  0  0  4  0  0  0  0  0  0
  -16.8310   11.9520   15.2840 H   0  0  0  0  0  0  0  0  0  0  0  0
  -16.2500   12.8850   16.5280 H   0  0  0  0  0  0  0  0  0  0  0  0
  -16.3450   11.2420   16.6940 H   0  0  0  0  0  0  0  0  0  0  0  0
  -20.6050   11.2920   18.5860 O   0  0  0  0  0  0  0  0  0  0  0  0
  -21.1840   10.5160   18.4580 H   0  0  0  0  0  0  0  0  0  0  0  0
  -22.6880   17.6520   16.0960 C   0  0  0  0  0  0  0  0  0  0  0  0
  -23.5980   16.5910   16.0120 C   0  0  0  0  0  3  0  0  0  0  0  0
  -24.5200   16.3760   17.0370 C   0  0  0  0  0  3  0  0  0  0  0  0
  -24.5380   17.2180   18.1480 C   0  0  0  0  0  3  0  0  0  0  0  0
  -23.6340   18.2750   18.2380 C   0  0  0  0  0  3  0  0  0  0  0  0
  -22.7100   18.4930   17.2150 C   0  0  0  0  0  3  0  0  0  0  0  0
  -17.9740   21.4420   10.0350 C   0  0  0  0  0  0  0  0  0  0  0  0
  -16.8540   21.8590   10.6980 N   0  0  0  0  0  0  0  0  0  0  0  0
  -17.9210   21.1510    8.8460 O   0  0  0  0  0  0  0  0  0  0  0  0
  -16.0010   21.9310   10.1580 H   0  0  0  0  0  0  0  0  0  0  0  0
  -16.8010   22.0320   11.6900 H   0  0  0  0  0  0  0  0  0  0  0  0
  1  5  2  0  0  0  0
  1 17  1  0  0  0  0
  2  1  1  0  0  0  0
  3  2  2  0  0  0  0
  3  4  1  0  0  0  0
  4  6  1  0  0  0  0
  4  5  1  0  0  0  0
  5 31  1  0  0  0  0
  7  6  1  0  0  0  0
  8 13  1  0  0  0  0
  8  7  1  0  0  0  0
  9  8  2  0  0  0  0
 10 11  2  0  0  0  0
 10  9  1  0  0  0  0
 11 12  1  0  0  0  0
 12 13  2  0  0  0  0
 13  3  1  0  0  0  0
 14 23  1  0  0  0  0
 14 15  1  0  0  0  0
 16 15  2  0  0  0  0
 17 16  1  0  0  0  0
 18 19  1  0  0  0  0
 18 17  2  0  0  0  0
 19 14  2  0  0  0  0
 21 22  1  0  0  0  0
 21 29  1  0  0  0  0
 21 20  1  1  0  0  0
 23 25  1  6  0  0  0
 23 22  1  0  0  0  0
 24 23  1  0  0  0  0
 24 21  1  0  0  0  0
 25 27  1  0  0  0  0
 25 28  1  0  0  0  0
 26 25  1  0  0  0  0
 30 29  1  0  0  0  0
 31 36  1  0  0  0  0
 32 31  2  0  0  0  0
 32 33  1  0  0  0  0
 33 34  2  0  0  0  0
 34 35  1  0  0  0  0
 36 35  2  0  0  0  0
 37 38  1  0  0  0  0
 37 11  1  0  0  0  0
 38 41  1  0  0  0  0
 39 37  2  0  0  0  0
 40 38  1  0  0  0  0
M  END
>  <minimizedAffinity>
-10.5615149

$$$$
