
 OpenBabel11232418533D

 41 47  0  0  1  0  0  0  0  0999 V2000
    7.4630   -7.1700    9.8140 C   0  0  0  0  0  0  0  0  0  0  0  0
    7.6530   -8.0460    8.7940 N   0  0  0  0  0  0  0  0  0  0  0  0
    7.3200   -7.6390    7.5500 C   0  0  0  0  0  0  0  0  0  0  0  0
    7.5380   -8.6240    6.4910 C   0  0  0  0  0  3  0  0  0  0  0  0
    7.2350   -8.3300    5.2210 C   0  0  0  0  0  3  0  0  0  0  0  0
    6.6970   -7.0640    4.8940 C   0  0  0  0  0  0  0  0  0  0  0  0
    6.3310   -6.5740    3.7330 N   0  0  0  0  0  0  0  0  0  0  0  0
    5.8620   -5.3110    3.9390 N   0  0  0  0  0  0  0  0  0  0  0  0
    5.9440   -5.0320    5.2290 C   0  0  0  0  0  0  0  0  0  0  0  0
    6.4860   -6.1180    5.8960 N   0  0  0  0  0  0  0  0  0  0  0  0
    6.8000   -6.3770    7.2570 C   0  0  0  0  0  0  0  0  0  0  0  0
    6.6370   -5.4810    8.3100 C   0  0  0  0  0  3  0  0  0  0  0  0
    6.9730   -5.8650    9.6230 C   0  0  0  0  0  0  0  0  0  0  0  0
    8.4350   -8.8060   13.7180 C   0  0  0  0  0  0  0  0  0  0  0  0
    9.3480   -8.0140   12.9870 C   0  0  0  0  0  3  0  0  0  0  0  0
    9.0390   -7.4930   11.7250 C   0  0  0  0  0  3  0  0  0  0  0  0
    7.7920   -7.7270   11.1360 C   0  0  0  0  0  0  0  0  0  0  0  0
    6.8770   -8.5220   11.8360 C   0  0  0  0  0  3  0  0  0  0  0  0
    7.1950   -9.0480   13.0930 C   0  0  0  0  0  3  0  0  0  0  0  0
    8.8040   -9.4240   15.1360 C   0  0  1  0  0  0  0  0  0  0  0  0
   10.1140  -10.2370   15.2630 C   0  0  0  0  0  2  0  0  0  0  0  0
   10.5010   -9.4540   16.5600 C   0  0  1  0  0  0  0  0  0  0  0  0
    9.3180   -8.4810   16.2490 C   0  0  0  0  0  2  0  0  0  0  0  0
    7.6160  -10.2000   15.5670 N   0  0  0  0  0  4  0  0  0  0  0  0
    7.3860  -10.9370   14.8870 H   0  0  0  0  0  0  0  0  0  0  0  0
    6.7830   -9.5990   15.6240 H   0  0  0  0  0  0  0  0  0  0  0  0
    7.7320  -10.6520   16.4800 H   0  0  0  0  0  0  0  0  0  0  0  0
   10.4530  -10.2210   17.8890 C   0  0  0  0  0  3  0  0  0  0  0  0
   10.9010  -11.6390   18.1330 C   0  0  0  0  0  2  0  0  0  0  0  0
   11.6090  -10.5050   18.8120 C   0  0  0  0  0  2  0  0  0  0  0  0
   11.7900   -8.8000   16.4340 O   0  0  0  0  0  0  0  0  0  0  0  0
   11.8050   -8.3060   15.5960 H   0  0  0  0  0  0  0  0  0  0  0  0
    6.8230   -4.8950   10.7200 C   0  0  0  0  0  0  0  0  0  0  0  0
    6.1190   -5.2320   11.8880 C   0  0  0  0  0  3  0  0  0  0  0  0
    5.9750   -4.3090   12.9260 C   0  0  0  0  0  3  0  0  0  0  0  0
    6.5250   -3.0350   12.8110 C   0  0  0  0  0  3  0  0  0  0  0  0
    7.2170   -2.6790   11.6560 C   0  0  0  0  0  3  0  0  0  0  0  0
    7.3630   -3.6020   10.6180 C   0  0  0  0  0  3  0  0  0  0  0  0
    5.5010   -3.7580    5.8210 C   0  0  0  0  0  3  0  0  0  0  0  0
    6.5060   -3.1510    6.5100 F   0  0  0  0  0  0  0  0  0  0  0  0
    5.1020   -2.8760    4.8640 F   0  0  0  0  0  0  0  0  0  0  0  0
  1 17  1  0  0  0  0
  2  1  2  0  0  0  0
  3  2  1  0  0  0  0
  4  3  1  0  0  0  0
  5  4  2  0  0  0  0
  6  5  1  0  0  0  0
  6 10  1  0  0  0  0
  7  8  1  0  0  0  0
  7  6  2  0  0  0  0
  8  9  2  0  0  0  0
  9 39  1  0  0  0  0
  9 10  1  0  0  0  0
 10 11  1  0  0  0  0
 11  3  2  0  0  0  0
 11 12  1  0  0  0  0
 12 13  2  0  0  0  0
 13  1  1  0  0  0  0
 13 33  1  0  0  0  0
 14 20  1  0  0  0  0
 15 14  2  0  0  0  0
 16 15  1  0  0  0  0
 17 16  2  0  0  0  0
 17 18  1  0  0  0  0
 18 19  2  0  0  0  0
 19 14  1  0  0  0  0
 20 21  1  0  0  0  0
 20 24  1  1  0  0  0
 20 23  1  0  0  0  0
 21 22  1  0  0  0  0
 22 31  1  6  0  0  0
 22 28  1  0  0  0  0
 23 22  1  0  0  0  0
 24 26  1  0  0  0  0
 24 27  1  0  0  0  0
 25 24  1  0  0  0  0
 28 29  1  0  0  0  0
 28 30  1  0  0  0  0
 29 30  1  0  0  0  0
 32 31  1  0  0  0  0
 33 34  1  0  0  0  0
 34 35  2  0  0  0  0
 36 35  1  0  0  0  0
 37 36  2  0  0  0  0
 38 33  2  0  0  0  0
 38 37  1  0  0  0  0
 39 40  1  0  0  0  0
 41 39  1  0  0  0  0
M  END
>  <minimizedAffinity>
-12.4314785

$$$$
