
 OpenBabel11232418533D

 41 47  0  0  1  0  0  0  0  0999 V2000
    7.4630   -7.1700    9.8140 C   0  0  0  0  0  0  0  0  0  0  0  0
    7.6530   -8.0460    8.7940 N   0  0  0  0  0  0  0  0  0  0  0  0
    7.3200   -7.6390    7.5500 C   0  0  0  0  0  0  0  0  0  0  0  0
    7.5380   -8.6240    6.4910 C   0  0  0  0  0  3  0  0  0  0  0  0
    7.2350   -8.3300    5.2210 C   0  0  0  0  0  3  0  0  0  0  0  0
    6.6970   -7.0640    4.8940 C   0  0  0  0  0  0  0  0  0  0  0  0
    6.3310   -6.5740    3.7330 N   0  0  0  0  0  0  0  0  0  0  0  0
    5.8620   -5.3110    3.9390 N   0  0  0  0  0  0  0  0  0  0  0  0
    5.9440   -5.0320    5.2290 C   0  0  0  0  0  0  0  0  0  0  0  0
    6.4860   -6.1180    5.8960 N   0  0  0  0  0  0  0  0  0  0  0  0
    6.8000   -6.3770    7.2570 C   0  0  0  0  0  0  0  0  0  0  0  0
    6.6370   -5.4810    8.3100 C   0  0  0  0  0  3  0  0  0  0  0  0
    6.9730   -5.8650    9.6230 C   0  0  0  0  0  0  0  0  0  0  0  0
    8.4350   -8.8060   13.7180 C   0  0  0  0  0  0  0  0  0  0  0  0
    9.3480   -8.0140   12.9870 C   0  0  0  0  0  3  0  0  0  0  0  0
    9.0390   -7.4930   11.7250 C   0  0  0  0  0  3  0  0  0  0  0  0
    7.7920   -7.7270   11.1360 C   0  0  0  0  0  0  0  0  0  0  0  0
    6.8770   -8.5220   11.8360 C   0  0  0  0  0  3  0  0  0  0  0  0
    7.1950   -9.0480   13.0930 C   0  0  0  0  0  3  0  0  0  0  0  0
    8.8040   -9.4240   15.1360 C   0  0  1  0  0  0  0  0  0  0  0  0
   10.1140  -10.2370   15.2630 C   0  0  0  0  0  2  0  0  0  0  0  0
   10.5010   -9.4540   16.5600 C   0  0  1  0  0  0  0  0  0  0  0  0
    9.3180   -8.4810   16.2490 C   0  0  0  0  0  2  0  0  0  0  0  0
    7.6160  -10.2000   15.5670 N   0  0  0  0  0  4  0  0  0  0  0  0
    7.3860  -10.9370   14.8870 H   0  0  0  0  0  0  0  0  0  0  0  0
    6.7830   -9.5990   15.6240 H   0  0  0  0  0  0  0  0  0  0  0  0
    7.7320  -10.6520   16.4800 H   0  0  0  0  0  0  0  0  0  0  0  0
   10.4530  -10.2210   17.8890 C   0  0  0  0  0  3  0  0  0  0  0  0
   10.9010  -11.6390   18.1330 C   0  0  0  0  0  2  0  0  0  0  0  0
   11.6090  -10.5050   18.8120 C   0  0  0  0  0  2  0  0  0  0  0  0
   11.7900   -8.8000   16.4340 O   0  0  0  0  0  0  0  0  0  0  0  0
   11.8050   -8.3060   15.5960 H   0  0  0  0  0  0  0  0  0  0  0  0
    6.8230   -4.8950   10.7200 C   0  0  0  0  0  0  0  0  0  0  0  0
    6.1190   -5.2320   11.8880 C   0  0  0  0  0  3  0  0  0  0  0  0
    5.9750   -4.3090   12.9260 C   0  0  0  0  0  3  0  0  0  0  0  0
    6.5250   -3.0350   12.8110 C   0  0  0  0  0  3  0  0  0  0  0  0
    7.2170   -2.6790   11.6560 C   0  0  0  0  0  3  0  0  0  0  0  0
    7.3630   -3.6020   10.6180 C   0  0  0  0  0  3  0  0  0  0  0  0
    5.5010   -3.7580    5.8210 C   0  0  0  0  0  3  0  0  0  0  0  0
    6.5060   -3.1510    6.5100 F   0  0  0  0  0  0  0  0  0  0  0  0
    5.1020   -2.8760    4.8640 F   0  0  0  0  0  0  0  0  0  0  0  0
  1 17  1  0  0  0  0
  2  1  2  0  0  0  0
  3  2  1  0  0  0  0
  4  3  1  0  0  0  0
  5  4  2  0  0  0  0
  6  5  1  0  0  0  0
  6 10  1  0  0  0  0
  7  8  1  0  0  0  0
  7  6  2  0  0  0  0
  8  9  2  0  0  0  0
  9 39  1  0  0  0  0
  9 10  1  0  0  0  0
 10 11  1  0  0  0  0
 11  3  2  0  0  0  0
 11 12  1  0  0  0  0
 12 13  2  0  0  0  0
 13  1  1  0  0  0  0
 13 33  1  0  0  0  0
 14 20  1  0  0  0  0
 15 14  2  0  0  0  0
 16 15  1  0  0  0  0
 17 16  2  0  0  0  0
 17 18  1  0  0  0  0
 18 19  2  0  0  0  0
 19 14  1  0  0  0  0
 20 21  1  0  0  0  0
 20 24  1  1  0  0  0
 20 23  1  0  0  0  0
 21 22  1  0  0  0  0
 22 31  1  6  0  0  0
 22 28  1  0  0  0  0
 23 22  1  0  0  0  0
 24 26  1  0  0  0  0
 24 27  1  0  0  0  0
 25 24  1  0  0  0  0
 28 29  1  0  0  0  0
 28 30  1  0  0  0  0
 29 30  1  0  0  0  0
 32 31  1  0  0  0  0
 33 34  1  0  0  0  0
 34 35  2  0  0  0  0
 36 35  1  0  0  0  0
 37 36  2  0  0  0  0
 38 33  2  0  0  0  0
 38 37  1  0  0  0  0
 39 40  1  0  0  0  0
 41 39  1  0  0  0  0
M  END
>  <minimizedAffinity>
-12.4314785

$$$$

 OpenBabel11232418533D

 41 47  0  0  1  0  0  0  0  0999 V2000
    8.1460   -4.9070   12.7670 C   0  0  0  0  0  0  0  0  0  0  0  0
    8.4380   -3.7180   13.3560 N   0  0  0  0  0  0  0  0  0  0  0  0
    8.0760   -2.5920   12.7030 C   0  0  0  0  0  0  0  0  0  0  0  0
    8.4200   -1.3410   13.3780 C   0  0  0  0  0  3  0  0  0  0  0  0
    8.1160   -0.1640   12.8180 C   0  0  0  0  0  3  0  0  0  0  0  0
    7.4620   -0.1220   11.5650 C   0  0  0  0  0  0  0  0  0  0  0  0
    7.0800    0.9050   10.8440 N   0  0  0  0  0  0  0  0  0  0  0  0
    6.5030    0.4280    9.7050 N   0  0  0  0  0  0  0  0  0  0  0  0
    6.5340   -0.8940    9.7350 C   0  0  0  0  0  0  0  0  0  0  0  0
    7.1290   -1.3090   10.9140 N   0  0  0  0  0  0  0  0  0  0  0  0
    7.4210   -2.5830   11.4700 C   0  0  0  0  0  0  0  0  0  0  0  0
    7.1050   -3.8100   10.8930 C   0  0  0  0  0  3  0  0  0  0  0  0
    7.4630   -5.0080   11.5410 C   0  0  0  0  0  0  0  0  0  0  0  0
    9.6040   -8.3400   14.9910 C   0  0  0  0  0  0  0  0  0  0  0  0
   10.0310   -8.0620   13.6730 C   0  0  0  0  0  3  0  0  0  0  0  0
    9.5550   -6.9610   12.9520 C   0  0  0  0  0  3  0  0  0  0  0  0
    8.6370   -6.0710   13.5200 C   0  0  0  0  0  0  0  0  0  0  0  0
    8.1900   -6.3350   14.8200 C   0  0  0  0  0  3  0  0  0  0  0  0
    8.6610   -7.4430   15.5330 C   0  0  0  0  0  3  0  0  0  0  0  0
   10.1210   -9.6120   15.7920 C   0  0  1  0  0  0  0  0  0  0  0  0
    9.2130  -10.2030   16.8960 C   0  0  0  0  0  2  0  0  0  0  0  0
    9.4310  -11.6470   16.3340 C   0  0  1  0  0  0  0  0  0  0  0  0
   10.1130  -10.9900   15.0900 C   0  0  0  0  0  2  0  0  0  0  0  0
   11.4670   -9.2550   16.3040 N   0  0  0  0  0  4  0  0  0  0  0  0
   11.4270   -8.4230   16.9090 H   0  0  0  0  0  0  0  0  0  0  0  0
   12.1030   -9.0120   15.5320 H   0  0  0  0  0  0  0  0  0  0  0  0
   11.9120  -10.0050   16.8440 H   0  0  0  0  0  0  0  0  0  0  0  0
   10.2780  -12.6110   17.1760 C   0  0  0  0  0  3  0  0  0  0  0  0
   10.7950  -13.9640   16.7560 C   0  0  0  0  0  2  0  0  0  0  0  0
   11.7600  -12.8550   17.0540 C   0  0  0  0  0  2  0  0  0  0  0  0
    8.1770  -12.2890   15.9900 O   0  0  0  0  0  0  0  0  0  0  0  0
    7.6540  -11.6760   15.4460 H   0  0  0  0  0  0  0  0  0  0  0  0
    7.0940   -6.2960   10.9310 C   0  0  0  0  0  0  0  0  0  0  0  0
    6.3280   -7.2350   11.6410 C   0  0  0  0  0  3  0  0  0  0  0  0
    5.9820   -8.4590   11.0630 C   0  0  0  0  0  3  0  0  0  0  0  0
    6.4010   -8.7650    9.7710 C   0  0  0  0  0  3  0  0  0  0  0  0
    7.1690   -7.8490    9.0550 C   0  0  0  0  0  3  0  0  0  0  0  0
    7.5150   -6.6250    9.6320 C   0  0  0  0  0  3  0  0  0  0  0  0
    6.0180   -1.7490    8.6510 C   0  0  0  0  0  3  0  0  0  0  0  0
    5.5410   -1.0070    7.6150 F   0  0  0  0  0  0  0  0  0  0  0  0
    6.9950   -2.5460    8.1370 F   0  0  0  0  0  0  0  0  0  0  0  0
  1  2  1  0  0  0  0
  1 17  1  0  0  0  0
  3  2  2  0  0  0  0
  3  4  1  0  0  0  0
  5  4  2  0  0  0  0
  6  5  1  0  0  0  0
  7  6  2  0  0  0  0
  8  9  2  0  0  0  0
  8  7  1  0  0  0  0
  9 10  1  0  0  0  0
 10 11  1  0  0  0  0
 10  6  1  0  0  0  0
 11  3  1  0  0  0  0
 12 11  2  0  0  0  0
 12 13  1  0  0  0  0
 13  1  2  0  0  0  0
 14 19  1  0  0  0  0
 14 20  1  0  0  0  0
 15 14  2  0  0  0  0
 16 17  2  0  0  0  0
 16 15  1  0  0  0  0
 17 18  1  0  0  0  0
 18 19  2  0  0  0  0
 20 24  1  1  0  0  0
 20 21  1  0  0  0  0
 22 31  1  6  0  0  0
 22 21  1  0  0  0  0
 22 28  1  0  0  0  0
 23 20  1  0  0  0  0
 23 22  1  0  0  0  0
 24 27  1  0  0  0  0
 24 25  1  0  0  0  0
 26 24  1  0  0  0  0
 29 30  1  0  0  0  0
 29 28  1  0  0  0  0
 30 28  1  0  0  0  0
 32 31  1  0  0  0  0
 33 13  1  0  0  0  0
 33 34  1  0  0  0  0
 35 34  2  0  0  0  0
 36 35  1  0  0  0  0
 37 38  1  0  0  0  0
 37 36  2  0  0  0  0
 38 33  2  0  0  0  0
 39  9  1  0  0  0  0
 40 39  1  0  0  0  0
 41 39  1  0  0  0  0
M  END
>  <minimizedAffinity>
-12.2949867

$$$$

 OpenBabel11232418533D

 41 47  0  0  1  0  0  0  0  0999 V2000
    8.5450  -11.2420   14.0350 C   0  0  0  0  0  0  0  0  0  0  0  0
    7.7510  -12.0130   13.2480 N   0  0  0  0  0  0  0  0  0  0  0  0
    7.7090  -13.3380   13.5090 C   0  0  0  0  0  0  0  0  0  0  0  0
    6.8450  -14.1210   12.6280 C   0  0  0  0  0  3  0  0  0  0  0  0
    6.7340  -15.4460   12.7900 C   0  0  0  0  0  3  0  0  0  0  0  0
    7.4580  -16.0970   13.8160 C   0  0  0  0  0  0  0  0  0  0  0  0
    7.5000  -17.3670   14.1450 N   0  0  0  0  0  0  0  0  0  0  0  0
    8.3570  -17.4990   15.1980 N   0  0  0  0  0  0  0  0  0  0  0  0
    8.8350  -16.3060   15.5080 C   0  0  0  0  0  0  0  0  0  0  0  0
    8.2840  -15.3590   14.6610 N   0  0  0  0  0  0  0  0  0  0  0  0
    8.4280  -13.9520   14.5370 C   0  0  0  0  0  0  0  0  0  0  0  0
    9.2170  -13.1430   15.3510 C   0  0  0  0  0  3  0  0  0  0  0  0
    9.2870  -11.7570   15.1150 C   0  0  0  0  0  0  0  0  0  0  0  0
    8.6320   -7.0640   12.8540 C   0  0  0  0  0  0  0  0  0  0  0  0
    7.5550   -7.6160   13.5820 C   0  0  0  0  0  3  0  0  0  0  0  0
    7.5220   -8.9650   13.9560 C   0  0  0  0  0  3  0  0  0  0  0  0
    8.5740   -9.8270   13.6320 C   0  0  0  0  0  0  0  0  0  0  0  0
    9.6460   -9.3040   12.8980 C   0  0  0  0  0  3  0  0  0  0  0  0
    9.6700   -7.9580   12.5190 C   0  0  0  0  0  3  0  0  0  0  0  0
    8.6490   -5.5400   12.4020 C   0  0  1  0  0  0  0  0  0  0  0  0
    7.7460   -5.1150   11.2200 C   0  0  0  0  0  2  0  0  0  0  0  0
    7.2210   -3.8850   12.0320 C   0  0  1  0  0  0  0  0  0  0  0  0
    7.9310   -4.4920   13.2860 C   0  0  0  0  0  2  0  0  0  0  0  0
   10.0730   -5.1950   12.1740 N   0  0  0  0  0  4  0  0  0  0  0  0
   10.4920   -5.8010   11.4560 H   0  0  0  0  0  0  0  0  0  0  0  0
   10.6300   -5.3400   13.0270 H   0  0  0  0  0  0  0  0  0  0  0  0
   10.2160   -4.2240   11.8750 H   0  0  0  0  0  0  0  0  0  0  0  0
    7.6710   -2.4910   11.5730 C   0  0  0  0  0  3  0  0  0  0  0  0
    7.0460   -1.6510   10.4880 C   0  0  0  0  0  2  0  0  0  0  0  0
    7.0210   -1.1750   11.9110 C   0  0  0  0  0  2  0  0  0  0  0  0
    5.7770   -3.9010   12.1660 O   0  0  0  0  0  0  0  0  0  0  0  0
    5.5040   -4.7830   12.4710 H   0  0  0  0  0  0  0  0  0  0  0  0
   10.1010  -10.9130   16.0040 C   0  0  0  0  0  0  0  0  0  0  0  0
    9.5270   -9.8360   16.7000 C   0  0  0  0  0  3  0  0  0  0  0  0
   10.3010   -9.0340   17.5410 C   0  0  0  0  0  3  0  0  0  0  0  0
   11.6610   -9.2910   17.6940 C   0  0  0  0  0  3  0  0  0  0  0  0
   12.2510  -10.3490   17.0050 C   0  0  0  0  0  3  0  0  0  0  0  0
   11.4760  -11.1520   16.1650 C   0  0  0  0  0  3  0  0  0  0  0  0
    9.8130  -16.0720   16.5860 C   0  0  0  0  0  3  0  0  0  0  0  0
    9.4330  -16.6770   17.7440 F   0  0  0  0  0  0  0  0  0  0  0  0
   11.0350  -16.5800   16.2690 F   0  0  0  0  0  0  0  0  0  0  0  0
  1 13  1  0  0  0  0
  2  3  1  0  0  0  0
  2  1  2  0  0  0  0
  3 11  2  0  0  0  0
  4  5  2  0  0  0  0
  4  3  1  0  0  0  0
  5  6  1  0  0  0  0
  6  7  2  0  0  0  0
  6 10  1  0  0  0  0
  7  8  1  0  0  0  0
  8  9  2  0  0  0  0
  9 39  1  0  0  0  0
 10  9  1  0  0  0  0
 11 10  1  0  0  0  0
 11 12  1  0  0  0  0
 13 12  2  0  0  0  0
 13 33  1  0  0  0  0
 14 15  1  0  0  0  0
 15 16  2  0  0  0  0
 17 16  1  0  0  0  0
 17  1  1  0  0  0  0
 18 17  2  0  0  0  0
 19 14  2  0  0  0  0
 19 18  1  0  0  0  0
 20 24  1  6  0  0  0
 20 14  1  0  0  0  0
 20 23  1  0  0  0  0
 21 22  1  0  0  0  0
 21 20  1  0  0  0  0
 22 31  1  1  0  0  0
 22 23  1  0  0  0  0
 24 26  1  0  0  0  0
 25 24  1  0  0  0  0
 27 24  1  0  0  0  0
 28 30  1  0  0  0  0
 28 22  1  0  0  0  0
 29 28  1  0  0  0  0
 29 30  1  0  0  0  0
 31 32  1  0  0  0  0
 33 38  2  0  0  0  0
 33 34  1  0  0  0  0
 34 35  2  0  0  0  0
 35 36  1  0  0  0  0
 37 36  2  0  0  0  0
 38 37  1  0  0  0  0
 39 40  1  0  0  0  0
 41 39  1  0  0  0  0
M  END
>  <minimizedAffinity>
-11.9452667

$$$$

 OpenBabel11232418533D

 41 47  0  0  1  0  0  0  0  0999 V2000
    8.3450   -6.6800   12.1200 C   0  0  0  0  0  0  0  0  0  0  0  0
    8.7610   -7.9570   12.3240 N   0  0  0  0  0  0  0  0  0  0  0  0
    9.3320   -8.2450   13.5140 C   0  0  0  0  0  0  0  0  0  0  0  0
    9.7680   -9.6310   13.6780 C   0  0  0  0  0  3  0  0  0  0  0  0
   10.3550  -10.0260   14.8150 C   0  0  0  0  0  3  0  0  0  0  0  0
   10.5590   -9.1020   15.8660 C   0  0  0  0  0  0  0  0  0  0  0  0
   11.1090   -9.2710   17.0460 N   0  0  0  0  0  0  0  0  0  0  0  0
   11.0850   -8.0730   17.6960 N   0  0  0  0  0  0  0  0  0  0  0  0
   10.5180   -7.1740   16.9080 C   0  0  0  0  0  0  0  0  0  0  0  0
   10.1470   -7.7790   15.7190 N   0  0  0  0  0  0  0  0  0  0  0  0
    9.5120   -7.3120   14.5380 C   0  0  0  0  0  0  0  0  0  0  0  0
    9.0550   -6.0150   14.3220 C   0  0  0  0  0  3  0  0  0  0  0  0
    8.4530   -5.6720   13.0960 C   0  0  0  0  0  0  0  0  0  0  0  0
    6.7260   -6.0070    8.1470 C   0  0  0  0  0  0  0  0  0  0  0  0
    7.3770   -7.2100    8.4980 C   0  0  0  0  0  3  0  0  0  0  0  0
    7.9070   -7.4250    9.7760 C   0  0  0  0  0  3  0  0  0  0  0  0
    7.7980   -6.4500   10.7730 C   0  0  0  0  0  0  0  0  0  0  0  0
    7.1690   -5.2440   10.4420 C   0  0  0  0  0  3  0  0  0  0  0  0
    6.6500   -5.0300    9.1610 C   0  0  0  0  0  3  0  0  0  0  0  0
    6.1570   -5.7540    6.6840 C   0  0  1  0  0  0  0  0  0  0  0  0
    4.9400   -4.8130    6.5220 C   0  0  0  0  0  2  0  0  0  0  0  0
    5.6510   -4.0570    5.3510 C   0  0  1  0  0  0  0  0  0  0  0  0
    6.9520   -4.8410    5.7210 C   0  0  0  0  0  2  0  0  0  0  0  0
    5.9110   -7.0960    6.1020 N   0  0  0  0  0  4  0  0  0  0  0  0
    5.2450   -7.6330    6.6740 H   0  0  0  0  0  0  0  0  0  0  0  0
    6.7760   -7.6530    6.0780 H   0  0  0  0  0  0  0  0  0  0  0  0
    5.5380   -7.0660    5.1470 H   0  0  0  0  0  0  0  0  0  0  0  0
    5.0870   -4.2550    3.9380 C   0  0  0  0  0  3  0  0  0  0  0  0
    3.6330   -4.3430    3.5470 C   0  0  0  0  0  2  0  0  0  0  0  0
    4.4710   -3.2000    3.0540 C   0  0  0  0  0  2  0  0  0  0  0  0
    5.7770   -2.6380    5.6210 O   0  0  0  0  0  0  0  0  0  0  0  0
    6.1480   -2.5240    6.5120 H   0  0  0  0  0  0  0  0  0  0  0  0
    7.9480   -4.3040   12.8970 C   0  0  0  0  0  0  0  0  0  0  0  0
    8.7850   -3.2940   12.3950 C   0  0  0  0  0  3  0  0  0  0  0  0
    8.3050   -1.9950   12.2090 C   0  0  0  0  0  3  0  0  0  0  0  0
    6.9850   -1.6850   12.5280 C   0  0  0  0  0  3  0  0  0  0  0  0
    6.1430   -2.6720   13.0370 C   0  0  0  0  0  3  0  0  0  0  0  0
    6.6220   -3.9710   13.2210 C   0  0  0  0  0  3  0  0  0  0  0  0
   10.3450   -5.7570   17.2760 C   0  0  0  0  0  3  0  0  0  0  0  0
   10.4010   -5.5820   18.6250 F   0  0  0  0  0  0  0  0  0  0  0  0
   11.3290   -4.9810   16.7450 F   0  0  0  0  0  0  0  0  0  0  0  0
  1  2  2  0  0  0  0
  1 13  1  0  0  0  0
  2  3  1  0  0  0  0
  3  4  1  0  0  0  0
  3 11  2  0  0  0  0
  4  5  2  0  0  0  0
  5  6  1  0  0  0  0
  6  7  2  0  0  0  0
  7  8  1  0  0  0  0
  9 39  1  0  0  0  0
  9  8  2  0  0  0  0
 10  6  1  0  0  0  0
 10  9  1  0  0  0  0
 11 10  1  0  0  0  0
 12 11  1  0  0  0  0
 13 12  2  0  0  0  0
 14 15  2  0  0  0  0
 14 19  1  0  0  0  0
 15 16  1  0  0  0  0
 16 17  2  0  0  0  0
 17  1  1  0  0  0  0
 18 17  1  0  0  0  0
 19 18  2  0  0  0  0
 20 24  1  6  0  0  0
 20 14  1  0  0  0  0
 21 20  1  0  0  0  0
 22 31  1  1  0  0  0
 22 23  1  0  0  0  0
 22 21  1  0  0  0  0
 23 20  1  0  0  0  0
 24 25  1  0  0  0  0
 26 24  1  0  0  0  0
 27 24  1  0  0  0  0
 28 22  1  0  0  0  0
 29 28  1  0  0  0  0
 30 29  1  0  0  0  0
 30 28  1  0  0  0  0
 31 32  1  0  0  0  0
 33 13  1  0  0  0  0
 33 38  1  0  0  0  0
 34 33  2  0  0  0  0
 35 34  1  0  0  0  0
 35 36  2  0  0  0  0
 36 37  1  0  0  0  0
 37 38  2  0  0  0  0
 39 40  1  0  0  0  0
 41 39  1  0  0  0  0
M  END
>  <minimizedAffinity>
-11.6377439

$$$$

 OpenBabel11232418533D

 41 47  0  0  1  0  0  0  0  0999 V2000
    7.5530   -5.9870   11.4830 C   0  0  0  0  0  0  0  0  0  0  0  0
    7.7300   -4.8110   12.1380 N   0  0  0  0  0  0  0  0  0  0  0  0
    7.4610   -3.6720   11.4630 C   0  0  0  0  0  0  0  0  0  0  0  0
    7.6750   -2.4350   12.2140 C   0  0  0  0  0  3  0  0  0  0  0  0
    7.4470   -1.2470   11.6400 C   0  0  0  0  0  3  0  0  0  0  0  0
    7.0010   -1.1810   10.3000 C   0  0  0  0  0  0  0  0  0  0  0  0
    6.7240   -0.1390    9.5520 N   0  0  0  0  0  0  0  0  0  0  0  0
    6.3430   -0.5930    8.3240 N   0  0  0  0  0  0  0  0  0  0  0  0
    6.3880   -1.9140    8.3280 C   0  0  0  0  0  0  0  0  0  0  0  0
    6.7940   -2.3530    9.5770 N   0  0  0  0  0  0  0  0  0  0  0  0
    7.0110   -3.6380   10.1420 C   0  0  0  0  0  0  0  0  0  0  0  0
    6.8090   -4.8530    9.4930 C   0  0  0  0  0  3  0  0  0  0  0  0
    7.0760   -6.0640   10.1610 C   0  0  0  0  0  0  0  0  0  0  0  0
    8.6870   -9.4600   13.8310 C   0  0  0  0  0  0  0  0  0  0  0  0
    9.5030   -8.9540   12.7960 C   0  0  0  0  0  3  0  0  0  0  0  0
    9.1360   -7.8400   12.0320 C   0  0  0  0  0  3  0  0  0  0  0  0
    7.9350   -7.1650   12.2770 C   0  0  0  0  0  0  0  0  0  0  0  0
    7.1030   -7.6580   13.2890 C   0  0  0  0  0  3  0  0  0  0  0  0
    7.4710   -8.7780   14.0430 C   0  0  0  0  0  3  0  0  0  0  0  0
    9.0940  -10.7460   14.6720 C   0  0  1  0  0  0  0  0  0  0  0  0
   10.5750  -10.9140   15.0840 C   0  0  0  0  0  2  0  0  0  0  0  0
   10.1520  -11.2540   16.5510 C   0  0  1  0  0  0  0  0  0  0  0  0
    8.7020  -10.8140   16.1670 C   0  0  0  0  0  2  0  0  0  0  0  0
    8.5860  -11.9120   13.9090 N   0  0  0  0  0  4  0  0  0  0  0  0
    8.9900  -11.9420   12.9630 H   0  0  0  0  0  0  0  0  0  0  0  0
    7.5670  -11.8540   13.7800 H   0  0  0  0  0  0  0  0  0  0  0  0
    8.7890  -12.8130   14.3560 H   0  0  0  0  0  0  0  0  0  0  0  0
   10.3480  -12.7010   17.0260 C   0  0  0  0  0  3  0  0  0  0  0  0
   11.0130  -13.8210   16.2670 C   0  0  0  0  0  2  0  0  0  0  0  0
   11.6220  -13.3190   17.5420 C   0  0  0  0  0  2  0  0  0  0  0  0
   10.7570  -10.3510   17.5120 O   0  0  0  0  0  0  0  0  0  0  0  0
   10.6150   -9.4380   17.2100 H   0  0  0  0  0  0  0  0  0  0  0  0
    6.8280   -7.3400    9.4700 C   0  0  0  0  0  0  0  0  0  0  0  0
    7.2720   -7.5440    8.1530 C   0  0  0  0  0  3  0  0  0  0  0  0
    7.0330   -8.7540    7.4980 C   0  0  0  0  0  3  0  0  0  0  0  0
    6.3420   -9.7750    8.1460 C   0  0  0  0  0  3  0  0  0  0  0  0
    5.8850   -9.5870    9.4480 C   0  0  0  0  0  3  0  0  0  0  0  0
    6.1260   -8.3770   10.1040 C   0  0  0  0  0  3  0  0  0  0  0  0
    6.0640   -2.7470    7.1560 C   0  0  0  0  0  3  0  0  0  0  0  0
    7.1130   -3.5390    6.8020 F   0  0  0  0  0  0  0  0  0  0  0  0
    5.0190   -3.5810    7.4100 F   0  0  0  0  0  0  0  0  0  0  0  0
  1  2  1  0  0  0  0
  1 17  1  0  0  0  0
  3  2  2  0  0  0  0
  3  4  1  0  0  0  0
  5  4  2  0  0  0  0
  6  5  1  0  0  0  0
  7  6  2  0  0  0  0
  8  9  2  0  0  0  0
  8  7  1  0  0  0  0
  9 10  1  0  0  0  0
 10 11  1  0  0  0  0
 10  6  1  0  0  0  0
 11  3  1  0  0  0  0
 12 11  2  0  0  0  0
 12 13  1  0  0  0  0
 13  1  2  0  0  0  0
 14 19  1  0  0  0  0
 14 20  1  0  0  0  0
 15 14  2  0  0  0  0
 16 17  2  0  0  0  0
 16 15  1  0  0  0  0
 17 18  1  0  0  0  0
 18 19  2  0  0  0  0
 20 24  1  6  0  0  0
 20 21  1  0  0  0  0
 20 23  1  0  0  0  0
 21 22  1  0  0  0  0
 22 28  1  0  0  0  0
 22 31  1  1  0  0  0
 23 22  1  0  0  0  0
 24 27  1  0  0  0  0
 25 24  1  0  0  0  0
 26 24  1  0  0  0  0
 28 30  1  0  0  0  0
 29 28  1  0  0  0  0
 29 30  1  0  0  0  0
 32 31  1  0  0  0  0
 33 38  1  0  0  0  0
 33 13  1  0  0  0  0
 34 33  2  0  0  0  0
 35 36  2  0  0  0  0
 35 34  1  0  0  0  0
 36 37  1  0  0  0  0
 37 38  2  0  0  0  0
 39 41  1  0  0  0  0
 39  9  1  0  0  0  0
 40 39  1  0  0  0  0
M  END
>  <minimizedAffinity>
-11.0458088

$$$$

 OpenBabel11232418533D

 41 47  0  0  1  0  0  0  0  0999 V2000
    8.1550   -7.3130   12.9600 C   0  0  0  0  0  0  0  0  0  0  0  0
    7.4880   -7.0920   11.7970 N   0  0  0  0  0  0  0  0  0  0  0  0
    7.3530   -5.8120   11.3880 C   0  0  0  0  0  0  0  0  0  0  0  0
    6.6210   -5.6310   10.1350 C   0  0  0  0  0  3  0  0  0  0  0  0
    6.4210   -4.4030    9.6390 C   0  0  0  0  0  3  0  0  0  0  0  0
    6.9150   -3.2710   10.3280 C   0  0  0  0  0  0  0  0  0  0  0  0
    6.8310   -1.9960   10.0290 N   0  0  0  0  0  0  0  0  0  0  0  0
    7.4550   -1.2910   11.0150 N   0  0  0  0  0  0  0  0  0  0  0  0
    7.9200   -2.1410   11.9150 C   0  0  0  0  0  0  0  0  0  0  0  0
    7.6140   -3.4340   11.5220 N   0  0  0  0  0  0  0  0  0  0  0  0
    7.8620   -4.7140   12.0850 C   0  0  0  0  0  0  0  0  0  0  0  0
    8.5650   -4.9600   13.2600 C   0  0  0  0  0  3  0  0  0  0  0  0
    8.7300   -6.2800   13.7220 C   0  0  0  0  0  0  0  0  0  0  0  0
    8.2700  -11.4940   14.1310 C   0  0  0  0  0  0  0  0  0  0  0  0
    9.2500  -10.9220   13.2890 C   0  0  0  0  0  3  0  0  0  0  0  0
    9.2100   -9.5770   12.9040 C   0  0  0  0  0  3  0  0  0  0  0  0
    8.1910   -8.7300   13.3550 C   0  0  0  0  0  0  0  0  0  0  0  0
    7.2010   -9.2790   14.1780 C   0  0  0  0  0  3  0  0  0  0  0  0
    7.2410  -10.6270   14.5530 C   0  0  0  0  0  3  0  0  0  0  0  0
    8.3020  -13.0310   14.5370 C   0  0  1  0  0  0  0  0  0  0  0  0
    6.9680  -13.7180   14.9120 C   0  0  0  0  0  2  0  0  0  0  0  0
    7.3050  -14.9310   13.9850 C   0  0  1  0  0  0  0  0  0  0  0  0
    8.5000  -14.0910   13.4280 C   0  0  0  0  0  2  0  0  0  0  0  0
    9.3180  -13.1500   15.6100 N   0  0  0  0  0  4  0  0  0  0  0  0
    9.0800  -12.5560   16.4160 H   0  0  0  0  0  0  0  0  0  0  0  0
   10.2400  -12.8280   15.2840 H   0  0  0  0  0  0  0  0  0  0  0  0
    9.4340  -14.1080   15.9600 H   0  0  0  0  0  0  0  0  0  0  0  0
    7.6390  -16.2680   14.6620 C   0  0  0  0  0  3  0  0  0  0  0  0
    6.8230  -16.9790   15.7120 C   0  0  0  0  0  2  0  0  0  0  0  0
    7.0220  -17.6100   14.3660 C   0  0  0  0  0  2  0  0  0  0  0  0
    6.2800  -15.1480   12.9820 O   0  0  0  0  0  0  0  0  0  0  0  0
    6.0860  -14.2990   12.5490 H   0  0  0  0  0  0  0  0  0  0  0  0
    9.5040   -6.5240   14.9500 C   0  0  0  0  0  0  0  0  0  0  0  0
   10.3540   -7.6370   15.0560 C   0  0  0  0  0  3  0  0  0  0  0  0
   11.0840   -7.8700   16.2240 C   0  0  0  0  0  3  0  0  0  0  0  0
   10.9720   -6.9980   17.3040 C   0  0  0  0  0  3  0  0  0  0  0  0
   10.1270   -5.8930   17.2210 C   0  0  0  0  0  3  0  0  0  0  0  0
    9.3970   -5.6600   16.0530 C   0  0  0  0  0  3  0  0  0  0  0  0
    8.6320   -1.7290   13.1370 C   0  0  0  0  0  3  0  0  0  0  0  0
    9.0560   -0.4380   13.0570 F   0  0  0  0  0  0  0  0  0  0  0  0
    7.8270   -1.8030   14.2320 F   0  0  0  0  0  0  0  0  0  0  0  0
  1 17  1  0  0  0  0
  1 13  1  0  0  0  0
  2  1  2  0  0  0  0
  3  2  1  0  0  0  0
  3 11  2  0  0  0  0
  4  3  1  0  0  0  0
  5  4  2  0  0  0  0
  5  6  1  0  0  0  0
  6 10  1  0  0  0  0
  7  6  2  0  0  0  0
  7  8  1  0  0  0  0
  8  9  2  0  0  0  0
  9 39  1  0  0  0  0
 10  9  1  0  0  0  0
 10 11  1  0  0  0  0
 11 12  1  0  0  0  0
 12 13  2  0  0  0  0
 13 33  1  0  0  0  0
 14 20  1  0  0  0  0
 14 19  1  0  0  0  0
 15 14  2  0  0  0  0
 16 15  1  0  0  0  0
 16 17  2  0  0  0  0
 17 18  1  0  0  0  0
 18 19  2  0  0  0  0
 20 21  1  0  0  0  0
 20 24  1  1  0  0  0
 22 31  1  6  0  0  0
 22 28  1  0  0  0  0
 22 21  1  0  0  0  0
 23 22  1  0  0  0  0
 23 20  1  0  0  0  0
 24 27  1  0  0  0  0
 24 25  1  0  0  0  0
 26 24  1  0  0  0  0
 28 29  1  0  0  0  0
 30 28  1  0  0  0  0
 30 29  1  0  0  0  0
 32 31  1  0  0  0  0
 33 34  2  0  0  0  0
 33 38  1  0  0  0  0
 34 35  1  0  0  0  0
 35 36  2  0  0  0  0
 37 36  1  0  0  0  0
 38 37  2  0  0  0  0
 39 41  1  0  0  0  0
 40 39  1  0  0  0  0
M  END
>  <minimizedAffinity>
-10.8334064

$$$$

 OpenBabel11232418533D

 41 47  0  0  1  0  0  0  0  0999 V2000
    8.7700  -11.2560   14.4170 C   0  0  0  0  0  0  0  0  0  0  0  0
    8.2520  -12.3980   13.8940 N   0  0  0  0  0  0  0  0  0  0  0  0
    8.6340  -13.5690   14.4480 C   0  0  0  0  0  0  0  0  0  0  0  0
    8.0510  -14.7660   13.8420 C   0  0  0  0  0  3  0  0  0  0  0  0
    8.3670  -15.9820   14.3060 C   0  0  0  0  0  3  0  0  0  0  0  0
    9.2700  -16.1160   15.3850 C   0  0  0  0  0  0  0  0  0  0  0  0
    9.7150  -17.1950   15.9860 N   0  0  0  0  0  0  0  0  0  0  0  0
   10.5810  -16.8040   16.9640 N   0  0  0  0  0  0  0  0  0  0  0  0
   10.6610  -15.4840   16.9570 C   0  0  0  0  0  0  0  0  0  0  0  0
    9.8300  -14.9820   15.9700 N   0  0  0  0  0  0  0  0  0  0  0  0
    9.5210  -13.6700   15.5220 C   0  0  0  0  0  0  0  0  0  0  0  0
   10.0220  -12.4900   16.0630 C   0  0  0  0  0  3  0  0  0  0  0  0
    9.6480  -11.2470   15.5170 C   0  0  0  0  0  0  0  0  0  0  0  0
    7.5210   -7.6700   12.3110 C   0  0  0  0  0  0  0  0  0  0  0  0
    8.7940   -8.2490   12.1180 C   0  0  0  0  0  3  0  0  0  0  0  0
    9.2020   -9.4010   12.8030 C   0  0  0  0  0  3  0  0  0  0  0  0
    8.3470  -10.0400   13.7060 C   0  0  0  0  0  0  0  0  0  0  0  0
    7.0850   -9.4740   13.9240 C   0  0  0  0  0  3  0  0  0  0  0  0
    6.6860   -8.3180   13.2450 C   0  0  0  0  0  3  0  0  0  0  0  0
    7.0770   -6.3430   11.5570 C   0  0  1  0  0  0  0  0  0  0  0  0
    6.0050   -5.4460   12.2200 C   0  0  0  0  0  2  0  0  0  0  0  0
    6.8750   -4.1730   11.9600 C   0  0  1  0  0  0  0  0  0  0  0  0
    8.0400   -5.1320   11.5490 C   0  0  0  0  0  2  0  0  0  0  0  0
    6.6930   -6.7590   10.1870 N   0  0  0  0  0  4  0  0  0  0  0  0
    5.9300   -7.4490   10.2070 H   0  0  0  0  0  0  0  0  0  0  0  0
    7.4780   -7.2190    9.7060 H   0  0  0  0  0  0  0  0  0  0  0  0
    6.3840   -5.9800    9.5930 H   0  0  0  0  0  0  0  0  0  0  0  0
    6.3750   -3.1780   10.9040 C   0  0  0  0  0  3  0  0  0  0  0  0
    7.1340   -2.0070   10.3320 C   0  0  0  0  0  2  0  0  0  0  0  0
    6.7420   -3.1490    9.4430 C   0  0  0  0  0  2  0  0  0  0  0  0
    7.1690   -3.4580   13.1870 O   0  0  0  0  0  0  0  0  0  0  0  0
    7.4990   -4.0940   13.8450 H   0  0  0  0  0  0  0  0  0  0  0  0
   10.1640  -10.0080   16.1210 C   0  0  0  0  0  0  0  0  0  0  0  0
    9.3020   -8.9380   16.4160 C   0  0  0  0  0  3  0  0  0  0  0  0
    9.7930   -7.7610   16.9860 C   0  0  0  0  0  3  0  0  0  0  0  0
   11.1520   -7.6340   17.2650 C   0  0  0  0  0  3  0  0  0  0  0  0
   12.0230   -8.6800   16.9710 C   0  0  0  0  0  3  0  0  0  0  0  0
   11.5320   -9.8580   16.4010 C   0  0  0  0  0  3  0  0  0  0  0  0
   11.5260  -14.7120   17.8670 C   0  0  0  0  0  3  0  0  0  0  0  0
   12.4740  -14.0150   17.1820 F   0  0  0  0  0  0  0  0  0  0  0  0
   10.8130  -13.7960   18.5770 F   0  0  0  0  0  0  0  0  0  0  0  0
  1 13  1  0  0  0  0
  2  1  2  0  0  0  0
  2  3  1  0  0  0  0
  3 11  2  0  0  0  0
  4  5  2  0  0  0  0
  4  3  1  0  0  0  0
  5  6  1  0  0  0  0
  6 10  1  0  0  0  0
  6  7  2  0  0  0  0
  7  8  1  0  0  0  0
  9  8  2  0  0  0  0
  9 39  1  0  0  0  0
 10  9  1  0  0  0  0
 11 10  1  0  0  0  0
 11 12  1  0  0  0  0
 13 12  2  0  0  0  0
 13 33  1  0  0  0  0
 14 19  1  0  0  0  0
 15 14  2  0  0  0  0
 15 16  1  0  0  0  0
 16 17  2  0  0  0  0
 17 18  1  0  0  0  0
 17  1  1  0  0  0  0
 19 18  2  0  0  0  0
 20 24  1  6  0  0  0
 20 21  1  0  0  0  0
 20 14  1  0  0  0  0
 22 21  1  0  0  0  0
 22 31  1  1  0  0  0
 23 20  1  0  0  0  0
 23 22  1  0  0  0  0
 24 25  1  0  0  0  0
 26 24  1  0  0  0  0
 27 24  1  0  0  0  0
 28 22  1  0  0  0  0
 29 28  1  0  0  0  0
 30 29  1  0  0  0  0
 30 28  1  0  0  0  0
 31 32  1  0  0  0  0
 33 38  2  0  0  0  0
 33 34  1  0  0  0  0
 34 35  2  0  0  0  0
 35 36  1  0  0  0  0
 37 36  2  0  0  0  0
 38 37  1  0  0  0  0
 39 41  1  0  0  0  0
 40 39  1  0  0  0  0
M  END
>  <minimizedAffinity>
-10.6948605

$$$$

 OpenBabel11232418533D

 41 47  0  0  1  0  0  0  0  0999 V2000
    7.7070   -4.7900   12.4000 C   0  0  0  0  0  0  0  0  0  0  0  0
    7.8910   -3.8700   13.3820 N   0  0  0  0  0  0  0  0  0  0  0  0
    7.7730   -2.5660   13.0470 C   0  0  0  0  0  0  0  0  0  0  0  0
    7.9880   -1.6180   14.1390 C   0  0  0  0  0  3  0  0  0  0  0  0
    7.9030   -0.3000   13.9180 C   0  0  0  0  0  3  0  0  0  0  0  0
    7.6090    0.1840   12.6230 C   0  0  0  0  0  0  0  0  0  0  0  0
    7.4850    1.4160   12.1880 N   0  0  0  0  0  0  0  0  0  0  0  0
    7.2080    1.3660   10.8550 N   0  0  0  0  0  0  0  0  0  0  0  0
    7.1640    0.0990   10.4780 C   0  0  0  0  0  0  0  0  0  0  0  0
    7.4030   -0.7120   11.5750 N   0  0  0  0  0  0  0  0  0  0  0  0
    7.4710   -2.1180   11.7590 C   0  0  0  0  0  0  0  0  0  0  0  0
    7.2590   -3.0760   10.7710 C   0  0  0  0  0  3  0  0  0  0  0  0
    7.3710   -4.4450   11.0780 C   0  0  0  0  0  0  0  0  0  0  0  0
    8.3330   -8.8820   13.7140 C   0  0  0  0  0  0  0  0  0  0  0  0
    7.0640   -8.2650   13.7580 C   0  0  0  0  0  3  0  0  0  0  0  0
    6.8620   -6.9430   13.3430 C   0  0  0  0  0  3  0  0  0  0  0  0
    7.9210   -6.1760   12.8480 C   0  0  0  0  0  0  0  0  0  0  0  0
    9.1910   -6.7620   12.8090 C   0  0  0  0  0  3  0  0  0  0  0  0
    9.3890   -8.0810   13.2340 C   0  0  0  0  0  3  0  0  0  0  0  0
    8.5630  -10.3720   14.2200 C   0  0  1  0  0  0  0  0  0  0  0  0
    7.3230  -11.2270   14.5680 C   0  0  0  0  0  2  0  0  0  0  0  0
    7.8880  -12.4270   13.7400 C   0  0  1  0  0  0  0  0  0  0  0  0
    8.9800  -11.4510   13.1930 C   0  0  0  0  0  2  0  0  0  0  0  0
    9.5180  -10.2790   15.3500 N   0  0  0  0  0  4  0  0  0  0  0  0
    9.1480   -9.6830   16.1030 H   0  0  0  0  0  0  0  0  0  0  0  0
   10.4020   -9.8420   15.0530 H   0  0  0  0  0  0  0  0  0  0  0  0
    9.7490  -11.1880   15.7660 H   0  0  0  0  0  0  0  0  0  0  0  0
    8.3690  -13.6600   14.5180 C   0  0  0  0  0  3  0  0  0  0  0  0
    7.5170  -14.7810   15.0540 C   0  0  0  0  0  2  0  0  0  0  0  0
    8.5320  -15.0590   13.9850 C   0  0  0  0  0  2  0  0  0  0  0  0
    6.9680  -12.8490   12.7000 O   0  0  0  0  0  0  0  0  0  0  0  0
    6.6800  -12.0640   12.2040 H   0  0  0  0  0  0  0  0  0  0  0  0
    7.1130   -5.4440   10.0290 C   0  0  0  0  0  0  0  0  0  0  0  0
    6.6310   -5.0560    8.7680 C   0  0  0  0  0  3  0  0  0  0  0  0
    6.3840   -6.0060    7.7740 C   0  0  0  0  0  3  0  0  0  0  0  0
    6.6080   -7.3570    8.0270 C   0  0  0  0  0  3  0  0  0  0  0  0
    7.0770   -7.7620    9.2750 C   0  0  0  0  0  3  0  0  0  0  0  0
    7.3260   -6.8120   10.2680 C   0  0  0  0  0  3  0  0  0  0  0  0
    6.9130   -0.3340    9.0920 C   0  0  0  0  0  3  0  0  0  0  0  0
    7.3250   -1.6150    8.8870 F   0  0  0  0  0  0  0  0  0  0  0  0
    5.5850   -0.3040    8.7930 F   0  0  0  0  0  0  0  0  0  0  0  0
  1 17  1  0  0  0  0
  1  2  1  0  0  0  0
  3  2  2  0  0  0  0
  3  4  1  0  0  0  0
  5  4  2  0  0  0  0
  6  5  1  0  0  0  0
  7  6  2  0  0  0  0
  8  7  1  0  0  0  0
  9  8  2  0  0  0  0
  9 10  1  0  0  0  0
 10 11  1  0  0  0  0
 10  6  1  0  0  0  0
 11  3  1  0  0  0  0
 12 13  1  0  0  0  0
 12 11  2  0  0  0  0
 13  1  2  0  0  0  0
 14 15  1  0  0  0  0
 14 20  1  0  0  0  0
 16 15  2  0  0  0  0
 17 16  1  0  0  0  0
 18 17  2  0  0  0  0
 18 19  1  0  0  0  0
 19 14  2  0  0  0  0
 20 21  1  0  0  0  0
 20 24  1  1  0  0  0
 22 31  1  6  0  0  0
 22 28  1  0  0  0  0
 22 21  1  0  0  0  0
 23 22  1  0  0  0  0
 23 20  1  0  0  0  0
 24 27  1  0  0  0  0
 24 25  1  0  0  0  0
 26 24  1  0  0  0  0
 28 29  1  0  0  0  0
 30 28  1  0  0  0  0
 30 29  1  0  0  0  0
 32 31  1  0  0  0  0
 33 38  1  0  0  0  0
 33 13  1  0  0  0  0
 34 33  2  0  0  0  0
 35 36  2  0  0  0  0
 35 34  1  0  0  0  0
 36 37  1  0  0  0  0
 37 38  2  0  0  0  0
 39  9  1  0  0  0  0
 40 39  1  0  0  0  0
 41 39  1  0  0  0  0
M  END
>  <minimizedAffinity>
-10.6610394

$$$$

 OpenBabel11232418533D

 41 47  0  0  1  0  0  0  0  0999 V2000
    8.4870   -9.4220   14.0590 C   0  0  0  0  0  0  0  0  0  0  0  0
    7.9720  -10.5530   13.5090 N   0  0  0  0  0  0  0  0  0  0  0  0
    8.3240  -11.7340   14.0620 C   0  0  0  0  0  0  0  0  0  0  0  0
    7.7470  -12.9180   13.4280 C   0  0  0  0  0  3  0  0  0  0  0  0
    8.0340  -14.1410   13.8890 C   0  0  0  0  0  3  0  0  0  0  0  0
    8.9030  -14.2960   14.9940 C   0  0  0  0  0  0  0  0  0  0  0  0
    9.3170  -15.3860   15.5980 N   0  0  0  0  0  0  0  0  0  0  0  0
   10.1570  -15.0140   16.6050 N   0  0  0  0  0  0  0  0  0  0  0  0
   10.2520  -13.6950   16.6140 C   0  0  0  0  0  0  0  0  0  0  0  0
    9.4580  -13.1740   15.6060 N   0  0  0  0  0  0  0  0  0  0  0  0
    9.1770  -11.8550   15.1620 C   0  0  0  0  0  0  0  0  0  0  0  0
    9.6750  -10.6850   15.7290 C   0  0  0  0  0  3  0  0  0  0  0  0
    9.3320   -9.4330   15.1840 C   0  0  0  0  0  0  0  0  0  0  0  0
    7.3430   -5.7940   11.9660 C   0  0  0  0  0  0  0  0  0  0  0  0
    6.5070   -6.4000   12.9290 C   0  0  0  0  0  3  0  0  0  0  0  0
    6.8700   -7.5750   13.5980 C   0  0  0  0  0  3  0  0  0  0  0  0
    8.1000   -8.1940   13.3470 C   0  0  0  0  0  0  0  0  0  0  0  0
    8.9380   -7.6180   12.3860 C   0  0  0  0  0  3  0  0  0  0  0  0
    8.5650   -6.4490   11.7130 C   0  0  0  0  0  3  0  0  0  0  0  0
    6.9090   -4.4790   11.1840 C   0  0  1  0  0  0  0  0  0  0  0  0
    7.4910   -4.2400    9.7710 C   0  0  0  0  0  2  0  0  0  0  0  0
    6.0680   -3.8980    9.2180 C   0  0  1  0  0  0  0  0  0  0  0  0
    5.4880   -4.4060   10.5780 C   0  0  0  0  0  2  0  0  0  0  0  0
    7.1820   -3.3470   12.1030 N   0  0  0  0  0  4  0  0  0  0  0  0
    8.1760   -3.3130   12.3670 H   0  0  0  0  0  0  0  0  0  0  0  0
    6.6580   -3.4510   12.9830 H   0  0  0  0  0  0  0  0  0  0  0  0
    6.9390   -2.4310   11.7070 H   0  0  0  0  0  0  0  0  0  0  0  0
    5.7910   -2.4380    8.8340 C   0  0  0  0  0  3  0  0  0  0  0  0
    6.7560   -1.2820    8.9160 C   0  0  0  0  0  2  0  0  0  0  0  0
    6.2400   -1.7310    7.5810 C   0  0  0  0  0  2  0  0  0  0  0  0
    5.6950   -4.7600    8.1130 O   0  0  0  0  0  0  0  0  0  0  0  0
    5.8610   -5.6830    8.3710 H   0  0  0  0  0  0  0  0  0  0  0  0
    9.8430   -8.2060   15.8160 C   0  0  0  0  0  0  0  0  0  0  0  0
    8.9620   -7.2580   16.3640 C   0  0  0  0  0  3  0  0  0  0  0  0
    9.4480   -6.0920   16.9600 C   0  0  0  0  0  3  0  0  0  0  0  0
   10.8190   -5.8530   17.0120 C   0  0  0  0  0  3  0  0  0  0  0  0
   11.7070   -6.7770   16.4660 C   0  0  0  0  0  3  0  0  0  0  0  0
   11.2210   -7.9440   15.8710 C   0  0  0  0  0  3  0  0  0  0  0  0
   11.0980  -12.9420   17.5560 C   0  0  0  0  0  3  0  0  0  0  0  0
   12.0580  -12.2290   16.9060 F   0  0  0  0  0  0  0  0  0  0  0  0
   10.3690  -12.0420   18.2720 F   0  0  0  0  0  0  0  0  0  0  0  0
  1 13  1  0  0  0  0
  2  1  2  0  0  0  0
  2  3  1  0  0  0  0
  3 11  2  0  0  0  0
  4  5  2  0  0  0  0
  4  3  1  0  0  0  0
  5  6  1  0  0  0  0
  6  7  2  0  0  0  0
  6 10  1  0  0  0  0
  7  8  1  0  0  0  0
  8  9  2  0  0  0  0
  9 39  1  0  0  0  0
 10  9  1  0  0  0  0
 11 10  1  0  0  0  0
 11 12  1  0  0  0  0
 13 12  2  0  0  0  0
 13 33  1  0  0  0  0
 14 15  1  0  0  0  0
 15 16  2  0  0  0  0
 17 16  1  0  0  0  0
 17  1  1  0  0  0  0
 18 17  2  0  0  0  0
 19 14  2  0  0  0  0
 19 18  1  0  0  0  0
 20 14  1  0  0  0  0
 20 24  1  1  0  0  0
 21 20  1  0  0  0  0
 22 31  1  6  0  0  0
 22 21  1  0  0  0  0
 22 23  1  0  0  0  0
 23 20  1  0  0  0  0
 24 25  1  0  0  0  0
 24 26  1  0  0  0  0
 27 24  1  0  0  0  0
 28 29  1  0  0  0  0
 28 22  1  0  0  0  0
 30 28  1  0  0  0  0
 30 29  1  0  0  0  0
 31 32  1  0  0  0  0
 33 38  2  0  0  0  0
 33 34  1  0  0  0  0
 34 35  2  0  0  0  0
 35 36  1  0  0  0  0
 37 36  2  0  0  0  0
 38 37  1  0  0  0  0
 39 41  1  0  0  0  0
 40 39  1  0  0  0  0
M  END
>  <minimizedAffinity>
-10.6230249

$$$$
