
 OpenBabel11232418533D

 41 47  0  0  1  0  0  0  0  0999 V2000
    8.7700  -11.2560   14.4170 C   0  0  0  0  0  0  0  0  0  0  0  0
    8.2520  -12.3980   13.8940 N   0  0  0  0  0  0  0  0  0  0  0  0
    8.6340  -13.5690   14.4480 C   0  0  0  0  0  0  0  0  0  0  0  0
    8.0510  -14.7660   13.8420 C   0  0  0  0  0  3  0  0  0  0  0  0
    8.3670  -15.9820   14.3060 C   0  0  0  0  0  3  0  0  0  0  0  0
    9.2700  -16.1160   15.3850 C   0  0  0  0  0  0  0  0  0  0  0  0
    9.7150  -17.1950   15.9860 N   0  0  0  0  0  0  0  0  0  0  0  0
   10.5810  -16.8040   16.9640 N   0  0  0  0  0  0  0  0  0  0  0  0
   10.6610  -15.4840   16.9570 C   0  0  0  0  0  0  0  0  0  0  0  0
    9.8300  -14.9820   15.9700 N   0  0  0  0  0  0  0  0  0  0  0  0
    9.5210  -13.6700   15.5220 C   0  0  0  0  0  0  0  0  0  0  0  0
   10.0220  -12.4900   16.0630 C   0  0  0  0  0  3  0  0  0  0  0  0
    9.6480  -11.2470   15.5170 C   0  0  0  0  0  0  0  0  0  0  0  0
    7.5210   -7.6700   12.3110 C   0  0  0  0  0  0  0  0  0  0  0  0
    8.7940   -8.2490   12.1180 C   0  0  0  0  0  3  0  0  0  0  0  0
    9.2020   -9.4010   12.8030 C   0  0  0  0  0  3  0  0  0  0  0  0
    8.3470  -10.0400   13.7060 C   0  0  0  0  0  0  0  0  0  0  0  0
    7.0850   -9.4740   13.9240 C   0  0  0  0  0  3  0  0  0  0  0  0
    6.6860   -8.3180   13.2450 C   0  0  0  0  0  3  0  0  0  0  0  0
    7.0770   -6.3430   11.5570 C   0  0  1  0  0  0  0  0  0  0  0  0
    6.0050   -5.4460   12.2200 C   0  0  0  0  0  2  0  0  0  0  0  0
    6.8750   -4.1730   11.9600 C   0  0  1  0  0  0  0  0  0  0  0  0
    8.0400   -5.1320   11.5490 C   0  0  0  0  0  2  0  0  0  0  0  0
    6.6930   -6.7590   10.1870 N   0  0  0  0  0  4  0  0  0  0  0  0
    5.9300   -7.4490   10.2070 H   0  0  0  0  0  0  0  0  0  0  0  0
    7.4780   -7.2190    9.7060 H   0  0  0  0  0  0  0  0  0  0  0  0
    6.3840   -5.9800    9.5930 H   0  0  0  0  0  0  0  0  0  0  0  0
    6.3750   -3.1780   10.9040 C   0  0  0  0  0  3  0  0  0  0  0  0
    7.1340   -2.0070   10.3320 C   0  0  0  0  0  2  0  0  0  0  0  0
    6.7420   -3.1490    9.4430 C   0  0  0  0  0  2  0  0  0  0  0  0
    7.1690   -3.4580   13.1870 O   0  0  0  0  0  0  0  0  0  0  0  0
    7.4990   -4.0940   13.8450 H   0  0  0  0  0  0  0  0  0  0  0  0
   10.1640  -10.0080   16.1210 C   0  0  0  0  0  0  0  0  0  0  0  0
    9.3020   -8.9380   16.4160 C   0  0  0  0  0  3  0  0  0  0  0  0
    9.7930   -7.7610   16.9860 C   0  0  0  0  0  3  0  0  0  0  0  0
   11.1520   -7.6340   17.2650 C   0  0  0  0  0  3  0  0  0  0  0  0
   12.0230   -8.6800   16.9710 C   0  0  0  0  0  3  0  0  0  0  0  0
   11.5320   -9.8580   16.4010 C   0  0  0  0  0  3  0  0  0  0  0  0
   11.5260  -14.7120   17.8670 C   0  0  0  0  0  3  0  0  0  0  0  0
   12.4740  -14.0150   17.1820 F   0  0  0  0  0  0  0  0  0  0  0  0
   10.8130  -13.7960   18.5770 F   0  0  0  0  0  0  0  0  0  0  0  0
  1 13  1  0  0  0  0
  2  1  2  0  0  0  0
  2  3  1  0  0  0  0
  3 11  2  0  0  0  0
  4  5  2  0  0  0  0
  4  3  1  0  0  0  0
  5  6  1  0  0  0  0
  6 10  1  0  0  0  0
  6  7  2  0  0  0  0
  7  8  1  0  0  0  0
  9  8  2  0  0  0  0
  9 39  1  0  0  0  0
 10  9  1  0  0  0  0
 11 10  1  0  0  0  0
 11 12  1  0  0  0  0
 13 12  2  0  0  0  0
 13 33  1  0  0  0  0
 14 19  1  0  0  0  0
 15 14  2  0  0  0  0
 15 16  1  0  0  0  0
 16 17  2  0  0  0  0
 17 18  1  0  0  0  0
 17  1  1  0  0  0  0
 19 18  2  0  0  0  0
 20 24  1  6  0  0  0
 20 21  1  0  0  0  0
 20 14  1  0  0  0  0
 22 21  1  0  0  0  0
 22 31  1  1  0  0  0
 23 20  1  0  0  0  0
 23 22  1  0  0  0  0
 24 25  1  0  0  0  0
 26 24  1  0  0  0  0
 27 24  1  0  0  0  0
 28 22  1  0  0  0  0
 29 28  1  0  0  0  0
 30 29  1  0  0  0  0
 30 28  1  0  0  0  0
 31 32  1  0  0  0  0
 33 38  2  0  0  0  0
 33 34  1  0  0  0  0
 34 35  2  0  0  0  0
 35 36  1  0  0  0  0
 37 36  2  0  0  0  0
 38 37  1  0  0  0  0
 39 41  1  0  0  0  0
 40 39  1  0  0  0  0
M  END
>  <minimizedAffinity>
-10.6948605

$$$$
