
 OpenBabel11232418533D

 41 47  0  0  1  0  0  0  0  0999 V2000
    8.1550   -7.3130   12.9600 C   0  0  0  0  0  0  0  0  0  0  0  0
    7.4880   -7.0920   11.7970 N   0  0  0  0  0  0  0  0  0  0  0  0
    7.3530   -5.8120   11.3880 C   0  0  0  0  0  0  0  0  0  0  0  0
    6.6210   -5.6310   10.1350 C   0  0  0  0  0  3  0  0  0  0  0  0
    6.4210   -4.4030    9.6390 C   0  0  0  0  0  3  0  0  0  0  0  0
    6.9150   -3.2710   10.3280 C   0  0  0  0  0  0  0  0  0  0  0  0
    6.8310   -1.9960   10.0290 N   0  0  0  0  0  0  0  0  0  0  0  0
    7.4550   -1.2910   11.0150 N   0  0  0  0  0  0  0  0  0  0  0  0
    7.9200   -2.1410   11.9150 C   0  0  0  0  0  0  0  0  0  0  0  0
    7.6140   -3.4340   11.5220 N   0  0  0  0  0  0  0  0  0  0  0  0
    7.8620   -4.7140   12.0850 C   0  0  0  0  0  0  0  0  0  0  0  0
    8.5650   -4.9600   13.2600 C   0  0  0  0  0  3  0  0  0  0  0  0
    8.7300   -6.2800   13.7220 C   0  0  0  0  0  0  0  0  0  0  0  0
    8.2700  -11.4940   14.1310 C   0  0  0  0  0  0  0  0  0  0  0  0
    9.2500  -10.9220   13.2890 C   0  0  0  0  0  3  0  0  0  0  0  0
    9.2100   -9.5770   12.9040 C   0  0  0  0  0  3  0  0  0  0  0  0
    8.1910   -8.7300   13.3550 C   0  0  0  0  0  0  0  0  0  0  0  0
    7.2010   -9.2790   14.1780 C   0  0  0  0  0  3  0  0  0  0  0  0
    7.2410  -10.6270   14.5530 C   0  0  0  0  0  3  0  0  0  0  0  0
    8.3020  -13.0310   14.5370 C   0  0  1  0  0  0  0  0  0  0  0  0
    6.9680  -13.7180   14.9120 C   0  0  0  0  0  2  0  0  0  0  0  0
    7.3050  -14.9310   13.9850 C   0  0  1  0  0  0  0  0  0  0  0  0
    8.5000  -14.0910   13.4280 C   0  0  0  0  0  2  0  0  0  0  0  0
    9.3180  -13.1500   15.6100 N   0  0  0  0  0  4  0  0  0  0  0  0
    9.0800  -12.5560   16.4160 H   0  0  0  0  0  0  0  0  0  0  0  0
   10.2400  -12.8280   15.2840 H   0  0  0  0  0  0  0  0  0  0  0  0
    9.4340  -14.1080   15.9600 H   0  0  0  0  0  0  0  0  0  0  0  0
    7.6390  -16.2680   14.6620 C   0  0  0  0  0  3  0  0  0  0  0  0
    6.8230  -16.9790   15.7120 C   0  0  0  0  0  2  0  0  0  0  0  0
    7.0220  -17.6100   14.3660 C   0  0  0  0  0  2  0  0  0  0  0  0
    6.2800  -15.1480   12.9820 O   0  0  0  0  0  0  0  0  0  0  0  0
    6.0860  -14.2990   12.5490 H   0  0  0  0  0  0  0  0  0  0  0  0
    9.5040   -6.5240   14.9500 C   0  0  0  0  0  0  0  0  0  0  0  0
   10.3540   -7.6370   15.0560 C   0  0  0  0  0  3  0  0  0  0  0  0
   11.0840   -7.8700   16.2240 C   0  0  0  0  0  3  0  0  0  0  0  0
   10.9720   -6.9980   17.3040 C   0  0  0  0  0  3  0  0  0  0  0  0
   10.1270   -5.8930   17.2210 C   0  0  0  0  0  3  0  0  0  0  0  0
    9.3970   -5.6600   16.0530 C   0  0  0  0  0  3  0  0  0  0  0  0
    8.6320   -1.7290   13.1370 C   0  0  0  0  0  3  0  0  0  0  0  0
    9.0560   -0.4380   13.0570 F   0  0  0  0  0  0  0  0  0  0  0  0
    7.8270   -1.8030   14.2320 F   0  0  0  0  0  0  0  0  0  0  0  0
  1 17  1  0  0  0  0
  1 13  1  0  0  0  0
  2  1  2  0  0  0  0
  3  2  1  0  0  0  0
  3 11  2  0  0  0  0
  4  3  1  0  0  0  0
  5  4  2  0  0  0  0
  5  6  1  0  0  0  0
  6 10  1  0  0  0  0
  7  6  2  0  0  0  0
  7  8  1  0  0  0  0
  8  9  2  0  0  0  0
  9 39  1  0  0  0  0
 10  9  1  0  0  0  0
 10 11  1  0  0  0  0
 11 12  1  0  0  0  0
 12 13  2  0  0  0  0
 13 33  1  0  0  0  0
 14 20  1  0  0  0  0
 14 19  1  0  0  0  0
 15 14  2  0  0  0  0
 16 15  1  0  0  0  0
 16 17  2  0  0  0  0
 17 18  1  0  0  0  0
 18 19  2  0  0  0  0
 20 21  1  0  0  0  0
 20 24  1  1  0  0  0
 22 31  1  6  0  0  0
 22 28  1  0  0  0  0
 22 21  1  0  0  0  0
 23 22  1  0  0  0  0
 23 20  1  0  0  0  0
 24 27  1  0  0  0  0
 24 25  1  0  0  0  0
 26 24  1  0  0  0  0
 28 29  1  0  0  0  0
 30 28  1  0  0  0  0
 30 29  1  0  0  0  0
 32 31  1  0  0  0  0
 33 34  2  0  0  0  0
 33 38  1  0  0  0  0
 34 35  1  0  0  0  0
 35 36  2  0  0  0  0
 37 36  1  0  0  0  0
 38 37  2  0  0  0  0
 39 41  1  0  0  0  0
 40 39  1  0  0  0  0
M  END
>  <minimizedAffinity>
-10.8334064

$$$$
