
 OpenBabel11232418533D

 41 47  0  0  1  0  0  0  0  0999 V2000
    8.5450  -11.2420   14.0350 C   0  0  0  0  0  0  0  0  0  0  0  0
    7.7510  -12.0130   13.2480 N   0  0  0  0  0  0  0  0  0  0  0  0
    7.7090  -13.3380   13.5090 C   0  0  0  0  0  0  0  0  0  0  0  0
    6.8450  -14.1210   12.6280 C   0  0  0  0  0  3  0  0  0  0  0  0
    6.7340  -15.4460   12.7900 C   0  0  0  0  0  3  0  0  0  0  0  0
    7.4580  -16.0970   13.8160 C   0  0  0  0  0  0  0  0  0  0  0  0
    7.5000  -17.3670   14.1450 N   0  0  0  0  0  0  0  0  0  0  0  0
    8.3570  -17.4990   15.1980 N   0  0  0  0  0  0  0  0  0  0  0  0
    8.8350  -16.3060   15.5080 C   0  0  0  0  0  0  0  0  0  0  0  0
    8.2840  -15.3590   14.6610 N   0  0  0  0  0  0  0  0  0  0  0  0
    8.4280  -13.9520   14.5370 C   0  0  0  0  0  0  0  0  0  0  0  0
    9.2170  -13.1430   15.3510 C   0  0  0  0  0  3  0  0  0  0  0  0
    9.2870  -11.7570   15.1150 C   0  0  0  0  0  0  0  0  0  0  0  0
    8.6320   -7.0640   12.8540 C   0  0  0  0  0  0  0  0  0  0  0  0
    7.5550   -7.6160   13.5820 C   0  0  0  0  0  3  0  0  0  0  0  0
    7.5220   -8.9650   13.9560 C   0  0  0  0  0  3  0  0  0  0  0  0
    8.5740   -9.8270   13.6320 C   0  0  0  0  0  0  0  0  0  0  0  0
    9.6460   -9.3040   12.8980 C   0  0  0  0  0  3  0  0  0  0  0  0
    9.6700   -7.9580   12.5190 C   0  0  0  0  0  3  0  0  0  0  0  0
    8.6490   -5.5400   12.4020 C   0  0  1  0  0  0  0  0  0  0  0  0
    7.7460   -5.1150   11.2200 C   0  0  0  0  0  2  0  0  0  0  0  0
    7.2210   -3.8850   12.0320 C   0  0  1  0  0  0  0  0  0  0  0  0
    7.9310   -4.4920   13.2860 C   0  0  0  0  0  2  0  0  0  0  0  0
   10.0730   -5.1950   12.1740 N   0  0  0  0  0  4  0  0  0  0  0  0
   10.4920   -5.8010   11.4560 H   0  0  0  0  0  0  0  0  0  0  0  0
   10.6300   -5.3400   13.0270 H   0  0  0  0  0  0  0  0  0  0  0  0
   10.2160   -4.2240   11.8750 H   0  0  0  0  0  0  0  0  0  0  0  0
    7.6710   -2.4910   11.5730 C   0  0  0  0  0  3  0  0  0  0  0  0
    7.0460   -1.6510   10.4880 C   0  0  0  0  0  2  0  0  0  0  0  0
    7.0210   -1.1750   11.9110 C   0  0  0  0  0  2  0  0  0  0  0  0
    5.7770   -3.9010   12.1660 O   0  0  0  0  0  0  0  0  0  0  0  0
    5.5040   -4.7830   12.4710 H   0  0  0  0  0  0  0  0  0  0  0  0
   10.1010  -10.9130   16.0040 C   0  0  0  0  0  0  0  0  0  0  0  0
    9.5270   -9.8360   16.7000 C   0  0  0  0  0  3  0  0  0  0  0  0
   10.3010   -9.0340   17.5410 C   0  0  0  0  0  3  0  0  0  0  0  0
   11.6610   -9.2910   17.6940 C   0  0  0  0  0  3  0  0  0  0  0  0
   12.2510  -10.3490   17.0050 C   0  0  0  0  0  3  0  0  0  0  0  0
   11.4760  -11.1520   16.1650 C   0  0  0  0  0  3  0  0  0  0  0  0
    9.8130  -16.0720   16.5860 C   0  0  0  0  0  3  0  0  0  0  0  0
    9.4330  -16.6770   17.7440 F   0  0  0  0  0  0  0  0  0  0  0  0
   11.0350  -16.5800   16.2690 F   0  0  0  0  0  0  0  0  0  0  0  0
  1 13  1  0  0  0  0
  2  3  1  0  0  0  0
  2  1  2  0  0  0  0
  3 11  2  0  0  0  0
  4  5  2  0  0  0  0
  4  3  1  0  0  0  0
  5  6  1  0  0  0  0
  6  7  2  0  0  0  0
  6 10  1  0  0  0  0
  7  8  1  0  0  0  0
  8  9  2  0  0  0  0
  9 39  1  0  0  0  0
 10  9  1  0  0  0  0
 11 10  1  0  0  0  0
 11 12  1  0  0  0  0
 13 12  2  0  0  0  0
 13 33  1  0  0  0  0
 14 15  1  0  0  0  0
 15 16  2  0  0  0  0
 17 16  1  0  0  0  0
 17  1  1  0  0  0  0
 18 17  2  0  0  0  0
 19 14  2  0  0  0  0
 19 18  1  0  0  0  0
 20 24  1  6  0  0  0
 20 14  1  0  0  0  0
 20 23  1  0  0  0  0
 21 22  1  0  0  0  0
 21 20  1  0  0  0  0
 22 31  1  1  0  0  0
 22 23  1  0  0  0  0
 24 26  1  0  0  0  0
 25 24  1  0  0  0  0
 27 24  1  0  0  0  0
 28 30  1  0  0  0  0
 28 22  1  0  0  0  0
 29 28  1  0  0  0  0
 29 30  1  0  0  0  0
 31 32  1  0  0  0  0
 33 38  2  0  0  0  0
 33 34  1  0  0  0  0
 34 35  2  0  0  0  0
 35 36  1  0  0  0  0
 37 36  2  0  0  0  0
 38 37  1  0  0  0  0
 39 40  1  0  0  0  0
 41 39  1  0  0  0  0
M  END
>  <minimizedAffinity>
-11.9452667

$$$$
