
 OpenBabel11232420143D

 42 47  0  0  1  0  0  0  0  0999 V2000
  -11.0880  -16.1250    9.2010 C   0  0  0  0  0  0  0  0  0  0  0  0
  -12.1130  -16.4590    8.3080 C   0  0  0  0  0  3  0  0  0  0  0  0
  -12.7550  -15.4560    7.5780 C   0  0  0  0  0  3  0  0  0  0  0  0
  -12.3920  -14.1240    7.7680 C   0  0  0  0  0  0  0  0  0  0  0  0
  -11.3760  -13.7900    8.6720 C   0  0  0  0  0  0  0  0  0  0  0  0
  -10.7280  -14.7890    9.3990 C   0  0  0  0  0  3  0  0  0  0  0  0
  -11.0230  -12.3950    8.7880 C   0  0  0  0  0  0  0  0  0  0  0  0
  -10.0180  -11.8300    9.4130 N   0  0  0  0  0  0  0  0  0  0  0  0
  -10.1410  -10.4720    9.1770 C   0  0  0  0  0  0  0  0  0  0  0  0
  -11.2650  -10.2120    8.3970 C   0  0  0  0  0  0  0  0  0  0  0  0
  -11.7950  -11.4610    8.1650 N   0  0  0  0  0  0  0  0  0  0  0  0
  -13.0150  -11.8230    7.4660 C   0  0  0  0  0  2  0  0  0  0  0  0
  -13.0260  -13.1870    6.9910 O   0  0  0  0  0  0  0  0  0  0  0  0
  -11.8430   -8.9950    7.8460 C   0  0  0  0  0  0  0  0  0  0  0  0
  -11.2950   -8.4080    6.6980 C   0  0  0  0  0  3  0  0  0  0  0  0
  -11.8420   -7.2330    6.1800 C   0  0  0  0  0  3  0  0  0  0  0  0
  -12.9350   -6.6380    6.8070 C   0  0  0  0  0  3  0  0  0  0  0  0
  -13.4860   -7.2170    7.9500 C   0  0  0  0  0  3  0  0  0  0  0  0
  -12.9420   -8.3940    8.4690 C   0  0  0  0  0  3  0  0  0  0  0  0
   -9.1590   -9.5400    9.7220 C   0  0  0  0  0  0  0  0  0  0  0  0
   -9.1170   -9.1490   11.0610 C   0  0  0  0  0  3  0  0  0  0  0  0
   -8.1300   -8.2650   11.5230 C   0  0  0  0  0  3  0  0  0  0  0  0
   -7.1310   -7.7400   10.6760 C   0  0  0  0  0  0  0  0  0  0  0  0
   -7.1880   -8.1510    9.3320 C   0  0  0  0  0  3  0  0  0  0  0  0
   -8.1770   -9.0270    8.8660 C   0  0  0  0  0  3  0  0  0  0  0  0
   -5.9940   -6.7900   11.2100 C   0  0  1  0  0  0  0  0  0  0  0  0
   -6.3150   -5.2960   11.5280 C   0  0  0  0  0  2  0  0  0  0  0  0
   -5.2060   -5.3750   12.6200 C   0  0  1  0  0  0  0  0  0  0  0  0
   -5.4740   -4.5540   13.8670 C   0  0  0  0  0  1  0  0  0  0  0  0
   -5.5370   -6.8960   12.6990 C   0  0  0  0  0  2  0  0  0  0  0  0
   -4.8440   -6.8940   10.2750 N   0  0  0  0  0  4  0  0  0  0  0  0
   -4.4640   -7.8460   10.2310 H   0  0  0  0  0  0  0  0  0  0  0  0
   -5.1010   -6.6180    9.3200 H   0  0  0  0  0  0  0  0  0  0  0  0
   -4.0790   -6.2620   10.5850 H   0  0  0  0  0  0  0  0  0  0  0  0
   -3.8750   -5.1170   12.0950 O   0  0  0  0  0  0  0  0  0  0  0  0
   -3.3490   -4.7770   12.8480 H   0  0  0  0  0  0  0  0  0  0  0  0
   -9.2650  -17.7580    9.5210 N   0  0  0  0  0  0  0  0  0  0  0  0
  -10.4020  -17.1600   10.0020 C   0  0  0  0  0  0  0  0  0  0  0  0
  -10.8460  -17.4600   11.1060 O   0  0  0  0  0  0  0  0  0  0  0  0
   -8.9230  -18.4980   10.1240 H   0  0  0  0  0  0  0  0  0  0  0  0
   -7.3200  -16.5490    8.6490 C   0  0  0  0  0  1  0  0  0  0  0  0
   -8.5070  -17.4360    8.3260 C   0  0  0  0  0  2  0  0  0  0  0  0
  1  6  1  0  0  0  0
  1 38  1  0  0  0  0
  2  1  2  0  0  0  0
  3  4  2  0  0  0  0
  3  2  1  0  0  0  0
  4  5  1  0  0  0  0
  5  7  1  0  0  0  0
  5  6  2  0  0  0  0
  7  8  2  0  0  0  0
  9  8  1  0  0  0  0
  9 20  1  0  0  0  0
 10  9  2  0  0  0  0
 11 10  1  0  0  0  0
 11  7  1  0  0  0  0
 12 11  1  0  0  0  0
 13 12  1  0  0  0  0
 13  4  1  0  0  0  0
 14 10  1  0  0  0  0
 14 19  1  0  0  0  0
 15 14  2  0  0  0  0
 16 15  1  0  0  0  0
 16 17  2  0  0  0  0
 17 18  1  0  0  0  0
 18 19  2  0  0  0  0
 20 21  1  0  0  0  0
 21 22  2  0  0  0  0
 23 26  1  0  0  0  0
 23 22  1  0  0  0  0
 24 23  2  0  0  0  0
 25 24  1  0  0  0  0
 25 20  2  0  0  0  0
 26 31  1  6  0  0  0
 26 27  1  0  0  0  0
 26 30  1  0  0  0  0
 27 28  1  0  0  0  0
 28 30  1  0  0  0  0
 28 29  1  1  0  0  0
 31 34  1  0  0  0  0
 32 31  1  0  0  0  0
 33 31  1  0  0  0  0
 35 28  1  0  0  0  0
 35 36  1  0  0  0  0
 37 38  1  0  0  0  0
 37 40  1  0  0  0  0
 38 39  2  0  0  0  0
 42 41  1  0  0  0  0
 42 37  1  0  0  0  0
M  END
>  <minimizedAffinity>
-4.55431795

$$$$
