
 OpenBabel11232420143D

 42 47  0  0  1  0  0  0  0  0999 V2000
  -10.5380  -16.1130   13.7650 C   0  0  0  0  0  0  0  0  0  0  0  0
  -10.4320  -17.4670   13.4260 C   0  0  0  0  0  3  0  0  0  0  0  0
   -9.8010  -17.8400   12.2370 C   0  0  0  0  0  3  0  0  0  0  0  0
   -9.3070  -16.8590   11.3790 C   0  0  0  0  0  0  0  0  0  0  0  0
   -9.4260  -15.5040   11.7130 C   0  0  0  0  0  0  0  0  0  0  0  0
  -10.0500  -15.1270   12.9010 C   0  0  0  0  0  3  0  0  0  0  0  0
   -8.8560  -14.5440   10.7990 C   0  0  0  0  0  0  0  0  0  0  0  0
   -8.6740  -13.2520   10.9390 N   0  0  0  0  0  0  0  0  0  0  0  0
   -8.0630  -12.8270    9.7720 C   0  0  0  0  0  0  0  0  0  0  0  0
   -7.8860  -13.8950    8.8960 C   0  0  0  0  0  0  0  0  0  0  0  0
   -8.3970  -14.9700    9.5890 N   0  0  0  0  0  0  0  0  0  0  0  0
   -8.5510  -16.3480    9.1570 C   0  0  0  0  0  2  0  0  0  0  0  0
   -8.6570  -17.2870   10.2490 O   0  0  0  0  0  0  0  0  0  0  0  0
   -7.2910  -14.0190    7.5740 C   0  0  0  0  0  0  0  0  0  0  0  0
   -6.2050  -13.2130    7.2090 C   0  0  0  0  0  3  0  0  0  0  0  0
   -5.6460  -13.3230    5.9350 C   0  0  0  0  0  3  0  0  0  0  0  0
   -6.1700  -14.2350    5.0190 C   0  0  0  0  0  3  0  0  0  0  0  0
   -7.2510  -15.0410    5.3770 C   0  0  0  0  0  3  0  0  0  0  0  0
   -7.8110  -14.9340    6.6520 C   0  0  0  0  0  3  0  0  0  0  0  0
   -7.6980  -11.4240    9.6040 C   0  0  0  0  0  0  0  0  0  0  0  0
   -8.4620  -10.5030    8.8850 C   0  0  0  0  0  3  0  0  0  0  0  0
   -8.0630   -9.1610    8.7830 C   0  0  0  0  0  3  0  0  0  0  0  0
   -6.8930   -8.6720    9.4000 C   0  0  0  0  0  0  0  0  0  0  0  0
   -6.1410   -9.6160   10.1240 C   0  0  0  0  0  3  0  0  0  0  0  0
   -6.5330  -10.9570   10.2220 C   0  0  0  0  0  3  0  0  0  0  0  0
   -6.4770   -7.1560    9.3260 C   0  0  1  0  0  0  0  0  0  0  0  0
   -6.9010   -6.1750   10.4630 C   0  0  0  0  0  2  0  0  0  0  0  0
   -5.5930   -5.3840   10.1580 C   0  0  1  0  0  0  0  0  0  0  0  0
   -4.9260   -4.7540   11.3670 C   0  0  0  0  0  1  0  0  0  0  0  0
   -5.0090   -6.7420    9.6640 C   0  0  0  0  0  2  0  0  0  0  0  0
   -6.8990   -6.6370    7.9990 N   0  0  0  0  0  4  0  0  0  0  0  0
   -6.4400   -7.1280    7.2250 H   0  0  0  0  0  0  0  0  0  0  0  0
   -7.9130   -6.7210    7.8620 H   0  0  0  0  0  0  0  0  0  0  0  0
   -6.6580   -5.6290    7.9210 H   0  0  0  0  0  0  0  0  0  0  0  0
   -5.7550   -4.4180    9.0840 O   0  0  0  0  0  0  0  0  0  0  0  0
   -5.0840   -3.7220    9.2430 H   0  0  0  0  0  0  0  0  0  0  0  0
  -12.5670  -15.4480   15.0010 N   0  0  0  0  0  0  0  0  0  0  0  0
  -11.2170  -15.6830   15.0050 C   0  0  0  0  0  0  0  0  0  0  0  0
  -10.5650  -15.5630   16.0380 O   0  0  0  0  0  0  0  0  0  0  0  0
  -12.9090  -15.0930   15.8880 H   0  0  0  0  0  0  0  0  0  0  0  0
  -14.1590  -17.0520   14.0530 C   0  0  0  0  0  1  0  0  0  0  0  0
  -13.5250  -15.6800   13.9350 C   0  0  0  0  0  2  0  0  0  0  0  0
  1 38  1  0  0  0  0
  2  1  1  0  0  0  0
  3  2  2  0  0  0  0
  4  5  2  0  0  0  0
  4  3  1  0  0  0  0
  5  6  1  0  0  0  0
  6  1  2  0  0  0  0
  7  8  2  0  0  0  0
  7  5  1  0  0  0  0
  9  8  1  0  0  0  0
 10 11  1  0  0  0  0
 10  9  2  0  0  0  0
 11  7  1  0  0  0  0
 12 11  1  0  0  0  0
 12 13  1  0  0  0  0
 13  4  1  0  0  0  0
 14 10  1  0  0  0  0
 15 14  1  0  0  0  0
 16 15  2  0  0  0  0
 17 18  2  0  0  0  0
 17 16  1  0  0  0  0
 18 19  1  0  0  0  0
 19 14  2  0  0  0  0
 20  9  1  0  0  0  0
 20 25  1  0  0  0  0
 21 20  2  0  0  0  0
 22 21  1  0  0  0  0
 22 23  2  0  0  0  0
 23 24  1  0  0  0  0
 24 25  2  0  0  0  0
 26 31  1  6  0  0  0
 26 23  1  0  0  0  0
 26 30  1  0  0  0  0
 26 27  1  0  0  0  0
 28 27  1  0  0  0  0
 28 29  1  1  0  0  0
 30 28  1  0  0  0  0
 32 31  1  0  0  0  0
 33 31  1  0  0  0  0
 34 31  1  0  0  0  0
 35 36  1  0  0  0  0
 35 28  1  0  0  0  0
 37 38  1  0  0  0  0
 37 40  1  0  0  0  0
 38 39  2  0  0  0  0
 42 41  1  0  0  0  0
 42 37  1  0  0  0  0
M  END
>  <minimizedAffinity>
-4.92167044

$$$$
