
 OpenBabel11232420143D

 42 47  0  0  1  0  0  0  0  0999 V2000
   -9.6600  -14.2670   11.0450 C   0  0  0  0  0  0  0  0  0  0  0  0
  -10.2970  -14.2080    9.8000 C   0  0  0  0  0  3  0  0  0  0  0  0
  -10.0440  -13.1370    8.9390 C   0  0  0  0  0  3  0  0  0  0  0  0
   -9.1830  -12.1170    9.3400 C   0  0  0  0  0  0  0  0  0  0  0  0
   -8.5580  -12.1710   10.5920 C   0  0  0  0  0  0  0  0  0  0  0  0
   -8.8030  -13.2410   11.4520 C   0  0  0  0  0  3  0  0  0  0  0  0
   -7.6480  -11.1020   10.9250 C   0  0  0  0  0  0  0  0  0  0  0  0
   -6.8140  -10.9880   11.9310 N   0  0  0  0  0  0  0  0  0  0  0  0
   -6.1650   -9.7790   11.7500 C   0  0  0  0  0  0  0  0  0  0  0  0
   -6.6340   -9.1390   10.6060 C   0  0  0  0  0  0  0  0  0  0  0  0
   -7.5710  -10.0150   10.1060 N   0  0  0  0  0  0  0  0  0  0  0  0
   -8.4480   -9.8610    8.9590 C   0  0  0  0  0  2  0  0  0  0  0  0
   -8.9390  -11.1150    8.4340 O   0  0  0  0  0  0  0  0  0  0  0  0
   -6.2940   -7.8860    9.9480 C   0  0  0  0  0  0  0  0  0  0  0  0
   -5.4030   -7.8740    8.8670 C   0  0  0  0  0  3  0  0  0  0  0  0
   -5.0680   -6.6700    8.2470 C   0  0  0  0  0  3  0  0  0  0  0  0
   -5.6180   -5.4730    8.7040 C   0  0  0  0  0  3  0  0  0  0  0  0
   -6.5070   -5.4790    9.7790 C   0  0  0  0  0  3  0  0  0  0  0  0
   -6.8450   -6.6830   10.4000 C   0  0  0  0  0  3  0  0  0  0  0  0
   -5.1420   -9.3460   12.6970 C   0  0  0  0  0  0  0  0  0  0  0  0
   -4.7240  -10.1050   13.7910 C   0  0  0  0  0  3  0  0  0  0  0  0
   -3.7180   -9.6370   14.6500 C   0  0  0  0  0  3  0  0  0  0  0  0
   -3.0730   -8.3980   14.4530 C   0  0  0  0  0  0  0  0  0  0  0  0
   -3.5050   -7.6520   13.3420 C   0  0  0  0  0  3  0  0  0  0  0  0
   -4.5140   -8.1130   12.4870 C   0  0  0  0  0  3  0  0  0  0  0  0
   -1.9090   -7.9010   15.3900 C   0  0  1  0  0  0  0  0  0  0  0  0
   -0.9830   -6.7330   14.9270 C   0  0  0  0  0  2  0  0  0  0  0  0
   -0.8360   -6.3600   16.4330 C   0  0  1  0  0  0  0  0  0  0  0  0
   -0.7200   -4.8750   16.7190 C   0  0  0  0  0  1  0  0  0  0  0  0
   -2.2430   -7.0030   16.6230 C   0  0  0  0  0  2  0  0  0  0  0  0
   -1.1040   -9.0880   15.7790 N   0  0  0  0  0  4  0  0  0  0  0  0
   -1.6560   -9.7770   16.3010 H   0  0  0  0  0  0  0  0  0  0  0  0
   -0.7060   -9.5640   14.9610 H   0  0  0  0  0  0  0  0  0  0  0  0
   -0.3110   -8.7940   16.3830 H   0  0  0  0  0  0  0  0  0  0  0  0
    0.2170   -7.1080   17.1000 O   0  0  0  0  0  0  0  0  0  0  0  0
    0.5130   -6.5500   17.8490 H   0  0  0  0  0  0  0  0  0  0  0  0
   -9.0220  -16.4060   12.0990 N   0  0  0  0  0  0  0  0  0  0  0  0
   -9.9200  -15.3760   11.9870 C   0  0  0  0  0  0  0  0  0  0  0  0
  -10.9320  -15.3530   12.6810 O   0  0  0  0  0  0  0  0  0  0  0  0
   -9.3380  -17.1400   12.7230 H   0  0  0  0  0  0  0  0  0  0  0  0
   -6.6420  -16.8000   12.5310 C   0  0  0  0  0  1  0  0  0  0  0  0
   -7.7110  -16.5360   11.4880 C   0  0  0  0  0  2  0  0  0  0  0  0
  1  6  1  0  0  0  0
  1 38  1  0  0  0  0
  2  1  2  0  0  0  0
  3  4  2  0  0  0  0
  3  2  1  0  0  0  0
  4  5  1  0  0  0  0
  5  7  1  0  0  0  0
  5  6  2  0  0  0  0
  7  8  2  0  0  0  0
  9  8  1  0  0  0  0
  9 20  1  0  0  0  0
 10  9  2  0  0  0  0
 11 10  1  0  0  0  0
 11  7  1  0  0  0  0
 12 11  1  0  0  0  0
 13 12  1  0  0  0  0
 13  4  1  0  0  0  0
 14 19  1  0  0  0  0
 14 10  1  0  0  0  0
 15 14  2  0  0  0  0
 16 17  2  0  0  0  0
 16 15  1  0  0  0  0
 17 18  1  0  0  0  0
 18 19  2  0  0  0  0
 20 21  1  0  0  0  0
 21 22  2  0  0  0  0
 23 22  1  0  0  0  0
 23 26  1  0  0  0  0
 24 23  2  0  0  0  0
 25 20  2  0  0  0  0
 25 24  1  0  0  0  0
 26 31  1  1  0  0  0
 26 30  1  0  0  0  0
 27 26  1  0  0  0  0
 27 28  1  0  0  0  0
 28 30  1  0  0  0  0
 28 29  1  1  0  0  0
 28 35  1  0  0  0  0
 31 32  1  0  0  0  0
 31 34  1  0  0  0  0
 33 31  1  0  0  0  0
 35 36  1  0  0  0  0
 37 40  1  0  0  0  0
 38 37  1  0  0  0  0
 38 39  2  0  0  0  0
 42 37  1  0  0  0  0
 42 41  1  0  0  0  0
M  END
>  <minimizedAffinity>
-4.9431982

$$$$
