
 OpenBabel11232420143D

 42 47  0  0  1  0  0  0  0  0999 V2000
   -7.8040  -13.4250    8.4730 C   0  0  0  0  0  0  0  0  0  0  0  0
   -6.5390  -13.5320    7.8830 C   0  0  0  0  0  3  0  0  0  0  0  0
   -5.6160  -12.4920    8.0190 C   0  0  0  0  0  3  0  0  0  0  0  0
   -5.9730  -11.3400    8.7170 C   0  0  0  0  0  0  0  0  0  0  0  0
   -7.2440  -11.2280    9.2950 C   0  0  0  0  0  0  0  0  0  0  0  0
   -8.1660  -12.2660    9.1660 C   0  0  0  0  0  3  0  0  0  0  0  0
   -7.5310  -10.0250   10.0390 C   0  0  0  0  0  0  0  0  0  0  0  0
   -8.5520   -9.7340   10.8100 N   0  0  0  0  0  0  0  0  0  0  0  0
   -8.3090   -8.4610   11.2950 C   0  0  0  0  0  0  0  0  0  0  0  0
   -7.1110   -7.9650   10.7870 C   0  0  0  0  0  0  0  0  0  0  0  0
   -6.6440   -8.9910    9.9970 N   0  0  0  0  0  0  0  0  0  0  0  0
   -5.4640   -9.0320    9.1520 C   0  0  0  0  0  2  0  0  0  0  0  0
   -5.0100  -10.3720    8.8570 O   0  0  0  0  0  0  0  0  0  0  0  0
   -6.3810   -6.7200   10.9770 C   0  0  0  0  0  0  0  0  0  0  0  0
   -5.5580   -6.5480   12.0980 C   0  0  0  0  0  3  0  0  0  0  0  0
   -4.8700   -5.3480   12.2860 C   0  0  0  0  0  3  0  0  0  0  0  0
   -5.0040   -4.3150   11.3590 C   0  0  0  0  0  3  0  0  0  0  0  0
   -5.8210   -4.4810   10.2410 C   0  0  0  0  0  3  0  0  0  0  0  0
   -6.5090   -5.6810   10.0490 C   0  0  0  0  0  3  0  0  0  0  0  0
   -9.2550   -7.8330   12.2120 C   0  0  0  0  0  0  0  0  0  0  0  0
   -9.0470   -6.5910   12.8140 C   0  0  0  0  0  3  0  0  0  0  0  0
  -10.0100   -6.0360   13.6700 C   0  0  0  0  0  3  0  0  0  0  0  0
  -11.2300   -6.6840   13.9560 C   0  0  0  0  0  0  0  0  0  0  0  0
  -11.4220   -7.9310   13.3350 C   0  0  0  0  0  3  0  0  0  0  0  0
  -10.4590   -8.4920   12.4860 C   0  0  0  0  0  3  0  0  0  0  0  0
  -12.3300   -6.0330   14.8760 C   0  0  1  0  0  0  0  0  0  0  0  0
  -12.6880   -4.5230   14.7120 C   0  0  0  0  0  2  0  0  0  0  0  0
  -14.1270   -4.8970   15.1760 C   0  0  1  0  0  0  0  0  0  0  0  0
  -15.2400   -4.0990   14.5230 C   0  0  0  0  0  1  0  0  0  0  0  0
  -13.8390   -6.3110   14.5870 C   0  0  0  0  0  2  0  0  0  0  0  0
  -11.9780   -6.3410   16.2860 N   0  0  0  0  0  4  0  0  0  0  0  0
  -11.9670   -7.3490   16.4730 H   0  0  0  0  0  0  0  0  0  0  0  0
  -11.0550   -5.9680   16.5390 H   0  0  0  0  0  0  0  0  0  0  0  0
  -12.6730   -5.9080   16.9270 H   0  0  0  0  0  0  0  0  0  0  0  0
  -14.2690   -4.9110   16.6230 O   0  0  0  0  0  0  0  0  0  0  0  0
  -15.2150   -4.7320   16.8040 H   0  0  0  0  0  0  0  0  0  0  0  0
   -8.8770  -15.5020    9.2630 N   0  0  0  0  0  0  0  0  0  0  0  0
   -8.8100  -14.4990    8.3310 C   0  0  0  0  0  0  0  0  0  0  0  0
   -9.5940  -14.4680    7.3880 O   0  0  0  0  0  0  0  0  0  0  0  0
   -9.5570  -16.2160    9.0250 H   0  0  0  0  0  0  0  0  0  0  0  0
   -6.9010  -16.4690   10.3430 C   0  0  0  0  0  1  0  0  0  0  0  0
   -8.1530  -15.6290   10.5140 C   0  0  0  0  0  2  0  0  0  0  0  0
  1  6  1  0  0  0  0
  2  3  1  0  0  0  0
  2  1  2  0  0  0  0
  3  4  2  0  0  0  0
  4 13  1  0  0  0  0
  4  5  1  0  0  0  0
  5  7  1  0  0  0  0
  6  5  2  0  0  0  0
  7  8  2  0  0  0  0
  8  9  1  0  0  0  0
  9 20  1  0  0  0  0
 10 14  1  0  0  0  0
 10  9  2  0  0  0  0
 11  7  1  0  0  0  0
 11 10  1  0  0  0  0
 12 11  1  0  0  0  0
 13 12  1  0  0  0  0
 14 15  1  0  0  0  0
 15 16  2  0  0  0  0
 17 16  1  0  0  0  0
 18 17  2  0  0  0  0
 19 18  1  0  0  0  0
 19 14  2  0  0  0  0
 20 25  2  0  0  0  0
 20 21  1  0  0  0  0
 21 22  2  0  0  0  0
 22 23  1  0  0  0  0
 23 26  1  0  0  0  0
 24 23  2  0  0  0  0
 25 24  1  0  0  0  0
 26 31  1  1  0  0  0
 27 26  1  0  0  0  0
 27 28  1  0  0  0  0
 28 29  1  6  0  0  0
 28 35  1  0  0  0  0
 30 26  1  0  0  0  0
 30 28  1  0  0  0  0
 31 32  1  0  0  0  0
 31 33  1  0  0  0  0
 31 34  1  0  0  0  0
 35 36  1  0  0  0  0
 37 42  1  0  0  0  0
 38  1  1  0  0  0  0
 38 37  1  0  0  0  0
 39 38  2  0  0  0  0
 40 37  1  0  0  0  0
 41 42  1  0  0  0  0
M  END
>  <minimizedAffinity>
-5.34999228

$$$$

 OpenBabel11232420143D

 42 47  0  0  1  0  0  0  0  0999 V2000
   -2.4820  -11.5540   15.4550 C   0  0  0  0  0  0  0  0  0  0  0  0
   -1.5380  -10.6510   15.9570 C   0  0  0  0  0  3  0  0  0  0  0  0
   -1.5630   -9.3170   15.5440 C   0  0  0  0  0  3  0  0  0  0  0  0
   -2.5090   -8.9000   14.6090 C   0  0  0  0  0  0  0  0  0  0  0  0
   -3.4440   -9.8090   14.0970 C   0  0  0  0  0  0  0  0  0  0  0  0
   -3.4270  -11.1400   14.5110 C   0  0  0  0  0  3  0  0  0  0  0  0
   -4.4200   -9.3000   13.1640 C   0  0  0  0  0  0  0  0  0  0  0  0
   -5.4930   -9.8730   12.6710 N   0  0  0  0  0  0  0  0  0  0  0  0
   -6.0820   -8.9280   11.8480 C   0  0  0  0  0  0  0  0  0  0  0  0
   -5.3310   -7.7550   11.8360 C   0  0  0  0  0  0  0  0  0  0  0  0
   -4.2860   -8.0300   12.6890 N   0  0  0  0  0  0  0  0  0  0  0  0
   -3.1380   -7.2070   13.0240 C   0  0  0  0  0  2  0  0  0  0  0  0
   -2.5130   -7.5690   14.2760 O   0  0  0  0  0  0  0  0  0  0  0  0
   -5.4960   -6.4680   11.1770 C   0  0  0  0  0  0  0  0  0  0  0  0
   -5.4000   -6.3690    9.7830 C   0  0  0  0  0  3  0  0  0  0  0  0
   -5.5430   -5.1310    9.1560 C   0  0  0  0  0  3  0  0  0  0  0  0
   -5.7790   -3.9860    9.9160 C   0  0  0  0  0  3  0  0  0  0  0  0
   -5.8760   -4.0780   11.3050 C   0  0  0  0  0  3  0  0  0  0  0  0
   -5.7340   -5.3160   11.9350 C   0  0  0  0  0  3  0  0  0  0  0  0
   -7.3240   -9.2390   11.1470 C   0  0  0  0  0  0  0  0  0  0  0  0
   -8.5730   -9.2990   11.7670 C   0  0  0  0  0  3  0  0  0  0  0  0
   -9.7310   -9.5810   11.0260 C   0  0  0  0  0  3  0  0  0  0  0  0
   -9.7010   -9.8040    9.6340 C   0  0  0  0  0  0  0  0  0  0  0  0
   -8.4330   -9.7340    9.0290 C   0  0  0  0  0  3  0  0  0  0  0  0
   -7.2740   -9.4600    9.7660 C   0  0  0  0  0  3  0  0  0  0  0  0
  -11.0100  -10.0700    8.7990 C   0  0  1  0  0  0  0  0  0  0  0  0
  -12.3620   -9.4320    9.2470 C   0  0  0  0  0  2  0  0  0  0  0  0
  -12.7560   -9.4060    7.7400 C   0  0  1  0  0  0  0  0  0  0  0  0
  -13.6000   -8.2190    7.3170 C   0  0  0  0  0  1  0  0  0  0  0  0
  -11.2270   -9.3190    7.4480 C   0  0  0  0  0  2  0  0  0  0  0  0
  -11.1500  -11.5400    8.6360 N   0  0  0  0  0  4  0  0  0  0  0  0
  -10.3620  -11.9520    8.1260 H   0  0  0  0  0  0  0  0  0  0  0  0
  -11.2180  -12.0200    9.5420 H   0  0  0  0  0  0  0  0  0  0  0  0
  -12.0170  -11.7560    8.1060 H   0  0  0  0  0  0  0  0  0  0  0  0
  -13.3430  -10.6570    7.2880 O   0  0  0  0  0  0  0  0  0  0  0  0
  -13.9150  -10.4270    6.5260 H   0  0  0  0  0  0  0  0  0  0  0  0
   -1.7160  -13.8810   15.1550 N   0  0  0  0  0  0  0  0  0  0  0  0
   -2.4710  -12.9770   15.8560 C   0  0  0  0  0  0  0  0  0  0  0  0
   -3.1240  -13.3320   16.8330 O   0  0  0  0  0  0  0  0  0  0  0  0
   -1.8410  -14.8340   15.4790 H   0  0  0  0  0  0  0  0  0  0  0  0
   -1.2900  -14.1570   12.7580 C   0  0  0  0  0  1  0  0  0  0  0  0
   -0.7700  -13.6350   14.0840 C   0  0  0  0  0  2  0  0  0  0  0  0
  1 38  1  0  0  0  0
  1  2  1  0  0  0  0
  3  2  2  0  0  0  0
  4  3  1  0  0  0  0
  5  6  1  0  0  0  0
  5  4  2  0  0  0  0
  6  1  2  0  0  0  0
  7  5  1  0  0  0  0
  8  7  2  0  0  0  0
  9  8  1  0  0  0  0
 10  9  2  0  0  0  0
 10 11  1  0  0  0  0
 11 12  1  0  0  0  0
 11  7  1  0  0  0  0
 12 13  1  0  0  0  0
 13  4  1  0  0  0  0
 14 10  1  0  0  0  0
 14 19  1  0  0  0  0
 15 14  2  0  0  0  0
 16 15  1  0  0  0  0
 16 17  2  0  0  0  0
 17 18  1  0  0  0  0
 18 19  2  0  0  0  0
 20 21  1  0  0  0  0
 20  9  1  0  0  0  0
 22 21  2  0  0  0  0
 23 22  1  0  0  0  0
 24 23  2  0  0  0  0
 24 25  1  0  0  0  0
 25 20  2  0  0  0  0
 26 31  1  6  0  0  0
 26 27  1  0  0  0  0
 26 23  1  0  0  0  0
 28 29  1  6  0  0  0
 28 27  1  0  0  0  0
 30 28  1  0  0  0  0
 30 26  1  0  0  0  0
 31 33  1  0  0  0  0
 32 31  1  0  0  0  0
 34 31  1  0  0  0  0
 35 28  1  0  0  0  0
 36 35  1  0  0  0  0
 37 40  1  0  0  0  0
 37 38  1  0  0  0  0
 38 39  2  0  0  0  0
 41 42  1  0  0  0  0
 42 37  1  0  0  0  0
M  END
>  <minimizedAffinity>
-5.29903555

$$$$

 OpenBabel11232420143D

 42 47  0  0  1  0  0  0  0  0999 V2000
   -8.3980  -13.5600   10.8330 C   0  0  0  0  0  0  0  0  0  0  0  0
   -9.2250  -13.3200    9.7290 C   0  0  0  0  0  3  0  0  0  0  0  0
   -9.2350  -12.0590    9.1280 C   0  0  0  0  0  3  0  0  0  0  0  0
   -8.4450  -11.0370    9.6510 C   0  0  0  0  0  0  0  0  0  0  0  0
   -7.6300  -11.2750   10.7650 C   0  0  0  0  0  0  0  0  0  0  0  0
   -7.6110  -12.5330   11.3650 C   0  0  0  0  0  3  0  0  0  0  0  0
   -6.8070  -10.1830   11.2290 C   0  0  0  0  0  0  0  0  0  0  0  0
   -5.8440  -10.1740   12.1200 N   0  0  0  0  0  0  0  0  0  0  0  0
   -5.3750   -8.8720   12.1560 C   0  0  0  0  0  0  0  0  0  0  0  0
   -6.0880   -8.0710   11.2680 C   0  0  0  0  0  0  0  0  0  0  0  0
   -6.9860   -8.9430   10.6940 N   0  0  0  0  0  0  0  0  0  0  0  0
   -8.0430   -8.6700    9.7380 C   0  0  0  0  0  2  0  0  0  0  0  0
   -8.4630   -9.8340    8.9920 O   0  0  0  0  0  0  0  0  0  0  0  0
   -6.0030   -6.6670   10.8950 C   0  0  0  0  0  0  0  0  0  0  0  0
   -5.5580   -6.3010    9.6180 C   0  0  0  0  0  3  0  0  0  0  0  0
   -5.4630   -4.9530    9.2670 C   0  0  0  0  0  3  0  0  0  0  0  0
   -5.8080   -3.9660   10.1900 C   0  0  0  0  0  3  0  0  0  0  0  0
   -6.2520   -4.3240   11.4630 C   0  0  0  0  0  3  0  0  0  0  0  0
   -6.3500   -5.6720   11.8150 C   0  0  0  0  0  3  0  0  0  0  0  0
   -4.2720   -8.5140   13.0430 C   0  0  0  0  0  0  0  0  0  0  0  0
   -3.9480   -9.2180   14.2040 C   0  0  0  0  0  3  0  0  0  0  0  0
   -2.8590   -8.8310   15.0000 C   0  0  0  0  0  3  0  0  0  0  0  0
   -2.0350   -7.7340   14.6710 C   0  0  0  0  0  0  0  0  0  0  0  0
   -2.3770   -7.0420   13.4940 C   0  0  0  0  0  3  0  0  0  0  0  0
   -3.4670   -7.4210   12.7020 C   0  0  0  0  0  3  0  0  0  0  0  0
   -0.7840   -7.3350   15.5390 C   0  0  1  0  0  0  0  0  0  0  0  0
   -0.4320   -8.1550   16.8200 C   0  0  0  0  0  2  0  0  0  0  0  0
    1.0590   -7.7960   16.5420 C   0  0  1  0  0  0  0  0  0  0  0  0
    2.0590   -8.8750   16.9120 C   0  0  0  0  0  1  0  0  0  0  0  0
    0.6490   -7.7040   15.0410 C   0  0  0  0  0  2  0  0  0  0  0  0
   -0.8970   -5.8880   15.8550 N   0  0  0  0  0  4  0  0  0  0  0  0
   -0.8940   -5.3040   15.0120 H   0  0  0  0  0  0  0  0  0  0  0  0
   -1.7570   -5.6770   16.3760 H   0  0  0  0  0  0  0  0  0  0  0  0
   -0.0960   -5.5910   16.4470 H   0  0  0  0  0  0  0  0  0  0  0  0
    1.4430   -6.5090   17.0980 O   0  0  0  0  0  0  0  0  0  0  0  0
    2.4090   -6.5590   17.2530 H   0  0  0  0  0  0  0  0  0  0  0  0
   -9.2380  -15.1310   12.5400 N   0  0  0  0  0  0  0  0  0  0  0  0
   -8.3770  -14.8760   11.5040 C   0  0  0  0  0  0  0  0  0  0  0  0
   -7.6010  -15.7410   11.1100 O   0  0  0  0  0  0  0  0  0  0  0  0
   -9.0860  -16.0390   12.9660 H   0  0  0  0  0  0  0  0  0  0  0  0
   -9.8490  -13.4060   14.1710 C   0  0  0  0  0  1  0  0  0  0  0  0
  -10.3210  -14.3050   13.0440 C   0  0  0  0  0  2  0  0  0  0  0  0
  1  6  1  0  0  0  0
  1 38  1  0  0  0  0
  2  1  2  0  0  0  0
  3  4  2  0  0  0  0
  3  2  1  0  0  0  0
  4  5  1  0  0  0  0
  5  7  1  0  0  0  0
  5  6  2  0  0  0  0
  7  8  2  0  0  0  0
  8  9  1  0  0  0  0
  9 20  1  0  0  0  0
 10  9  2  0  0  0  0
 11  7  1  0  0  0  0
 11 10  1  0  0  0  0
 12 11  1  0  0  0  0
 13  4  1  0  0  0  0
 13 12  1  0  0  0  0
 14 10  1  0  0  0  0
 14 19  1  0  0  0  0
 15 14  2  0  0  0  0
 16 15  1  0  0  0  0
 16 17  2  0  0  0  0
 17 18  1  0  0  0  0
 18 19  2  0  0  0  0
 20 21  1  0  0  0  0
 21 22  2  0  0  0  0
 23 22  1  0  0  0  0
 23 26  1  0  0  0  0
 24 23  2  0  0  0  0
 25 20  2  0  0  0  0
 25 24  1  0  0  0  0
 26 31  1  1  0  0  0
 26 27  1  0  0  0  0
 28 27  1  0  0  0  0
 28 29  1  1  0  0  0
 28 35  1  0  0  0  0
 30 26  1  0  0  0  0
 30 28  1  0  0  0  0
 31 33  1  0  0  0  0
 31 34  1  0  0  0  0
 32 31  1  0  0  0  0
 35 36  1  0  0  0  0
 37 40  1  0  0  0  0
 37 42  1  0  0  0  0
 38 37  1  0  0  0  0
 39 38  2  0  0  0  0
 42 41  1  0  0  0  0
M  END
>  <minimizedAffinity>
-5.17870569

$$$$

 OpenBabel11232420143D

 42 47  0  0  1  0  0  0  0  0999 V2000
   -9.6600  -14.2670   11.0450 C   0  0  0  0  0  0  0  0  0  0  0  0
  -10.2970  -14.2080    9.8000 C   0  0  0  0  0  3  0  0  0  0  0  0
  -10.0440  -13.1370    8.9390 C   0  0  0  0  0  3  0  0  0  0  0  0
   -9.1830  -12.1170    9.3400 C   0  0  0  0  0  0  0  0  0  0  0  0
   -8.5580  -12.1710   10.5920 C   0  0  0  0  0  0  0  0  0  0  0  0
   -8.8030  -13.2410   11.4520 C   0  0  0  0  0  3  0  0  0  0  0  0
   -7.6480  -11.1020   10.9250 C   0  0  0  0  0  0  0  0  0  0  0  0
   -6.8140  -10.9880   11.9310 N   0  0  0  0  0  0  0  0  0  0  0  0
   -6.1650   -9.7790   11.7500 C   0  0  0  0  0  0  0  0  0  0  0  0
   -6.6340   -9.1390   10.6060 C   0  0  0  0  0  0  0  0  0  0  0  0
   -7.5710  -10.0150   10.1060 N   0  0  0  0  0  0  0  0  0  0  0  0
   -8.4480   -9.8610    8.9590 C   0  0  0  0  0  2  0  0  0  0  0  0
   -8.9390  -11.1150    8.4340 O   0  0  0  0  0  0  0  0  0  0  0  0
   -6.2940   -7.8860    9.9480 C   0  0  0  0  0  0  0  0  0  0  0  0
   -5.4030   -7.8740    8.8670 C   0  0  0  0  0  3  0  0  0  0  0  0
   -5.0680   -6.6700    8.2470 C   0  0  0  0  0  3  0  0  0  0  0  0
   -5.6180   -5.4730    8.7040 C   0  0  0  0  0  3  0  0  0  0  0  0
   -6.5070   -5.4790    9.7790 C   0  0  0  0  0  3  0  0  0  0  0  0
   -6.8450   -6.6830   10.4000 C   0  0  0  0  0  3  0  0  0  0  0  0
   -5.1420   -9.3460   12.6970 C   0  0  0  0  0  0  0  0  0  0  0  0
   -4.7240  -10.1050   13.7910 C   0  0  0  0  0  3  0  0  0  0  0  0
   -3.7180   -9.6370   14.6500 C   0  0  0  0  0  3  0  0  0  0  0  0
   -3.0730   -8.3980   14.4530 C   0  0  0  0  0  0  0  0  0  0  0  0
   -3.5050   -7.6520   13.3420 C   0  0  0  0  0  3  0  0  0  0  0  0
   -4.5140   -8.1130   12.4870 C   0  0  0  0  0  3  0  0  0  0  0  0
   -1.9090   -7.9010   15.3900 C   0  0  1  0  0  0  0  0  0  0  0  0
   -0.9830   -6.7330   14.9270 C   0  0  0  0  0  2  0  0  0  0  0  0
   -0.8360   -6.3600   16.4330 C   0  0  1  0  0  0  0  0  0  0  0  0
   -0.7200   -4.8750   16.7190 C   0  0  0  0  0  1  0  0  0  0  0  0
   -2.2430   -7.0030   16.6230 C   0  0  0  0  0  2  0  0  0  0  0  0
   -1.1040   -9.0880   15.7790 N   0  0  0  0  0  4  0  0  0  0  0  0
   -1.6560   -9.7770   16.3010 H   0  0  0  0  0  0  0  0  0  0  0  0
   -0.7060   -9.5640   14.9610 H   0  0  0  0  0  0  0  0  0  0  0  0
   -0.3110   -8.7940   16.3830 H   0  0  0  0  0  0  0  0  0  0  0  0
    0.2170   -7.1080   17.1000 O   0  0  0  0  0  0  0  0  0  0  0  0
    0.5130   -6.5500   17.8490 H   0  0  0  0  0  0  0  0  0  0  0  0
   -9.0220  -16.4060   12.0990 N   0  0  0  0  0  0  0  0  0  0  0  0
   -9.9200  -15.3760   11.9870 C   0  0  0  0  0  0  0  0  0  0  0  0
  -10.9320  -15.3530   12.6810 O   0  0  0  0  0  0  0  0  0  0  0  0
   -9.3380  -17.1400   12.7230 H   0  0  0  0  0  0  0  0  0  0  0  0
   -6.6420  -16.8000   12.5310 C   0  0  0  0  0  1  0  0  0  0  0  0
   -7.7110  -16.5360   11.4880 C   0  0  0  0  0  2  0  0  0  0  0  0
  1  6  1  0  0  0  0
  1 38  1  0  0  0  0
  2  1  2  0  0  0  0
  3  4  2  0  0  0  0
  3  2  1  0  0  0  0
  4  5  1  0  0  0  0
  5  7  1  0  0  0  0
  5  6  2  0  0  0  0
  7  8  2  0  0  0  0
  9  8  1  0  0  0  0
  9 20  1  0  0  0  0
 10  9  2  0  0  0  0
 11 10  1  0  0  0  0
 11  7  1  0  0  0  0
 12 11  1  0  0  0  0
 13 12  1  0  0  0  0
 13  4  1  0  0  0  0
 14 19  1  0  0  0  0
 14 10  1  0  0  0  0
 15 14  2  0  0  0  0
 16 17  2  0  0  0  0
 16 15  1  0  0  0  0
 17 18  1  0  0  0  0
 18 19  2  0  0  0  0
 20 21  1  0  0  0  0
 21 22  2  0  0  0  0
 23 22  1  0  0  0  0
 23 26  1  0  0  0  0
 24 23  2  0  0  0  0
 25 20  2  0  0  0  0
 25 24  1  0  0  0  0
 26 31  1  1  0  0  0
 26 30  1  0  0  0  0
 27 26  1  0  0  0  0
 27 28  1  0  0  0  0
 28 30  1  0  0  0  0
 28 29  1  1  0  0  0
 28 35  1  0  0  0  0
 31 32  1  0  0  0  0
 31 34  1  0  0  0  0
 33 31  1  0  0  0  0
 35 36  1  0  0  0  0
 37 40  1  0  0  0  0
 38 37  1  0  0  0  0
 38 39  2  0  0  0  0
 42 37  1  0  0  0  0
 42 41  1  0  0  0  0
M  END
>  <minimizedAffinity>
-4.9431982

$$$$

 OpenBabel11232420143D

 42 47  0  0  1  0  0  0  0  0999 V2000
  -10.5380  -16.1130   13.7650 C   0  0  0  0  0  0  0  0  0  0  0  0
  -10.4320  -17.4670   13.4260 C   0  0  0  0  0  3  0  0  0  0  0  0
   -9.8010  -17.8400   12.2370 C   0  0  0  0  0  3  0  0  0  0  0  0
   -9.3070  -16.8590   11.3790 C   0  0  0  0  0  0  0  0  0  0  0  0
   -9.4260  -15.5040   11.7130 C   0  0  0  0  0  0  0  0  0  0  0  0
  -10.0500  -15.1270   12.9010 C   0  0  0  0  0  3  0  0  0  0  0  0
   -8.8560  -14.5440   10.7990 C   0  0  0  0  0  0  0  0  0  0  0  0
   -8.6740  -13.2520   10.9390 N   0  0  0  0  0  0  0  0  0  0  0  0
   -8.0630  -12.8270    9.7720 C   0  0  0  0  0  0  0  0  0  0  0  0
   -7.8860  -13.8950    8.8960 C   0  0  0  0  0  0  0  0  0  0  0  0
   -8.3970  -14.9700    9.5890 N   0  0  0  0  0  0  0  0  0  0  0  0
   -8.5510  -16.3480    9.1570 C   0  0  0  0  0  2  0  0  0  0  0  0
   -8.6570  -17.2870   10.2490 O   0  0  0  0  0  0  0  0  0  0  0  0
   -7.2910  -14.0190    7.5740 C   0  0  0  0  0  0  0  0  0  0  0  0
   -6.2050  -13.2130    7.2090 C   0  0  0  0  0  3  0  0  0  0  0  0
   -5.6460  -13.3230    5.9350 C   0  0  0  0  0  3  0  0  0  0  0  0
   -6.1700  -14.2350    5.0190 C   0  0  0  0  0  3  0  0  0  0  0  0
   -7.2510  -15.0410    5.3770 C   0  0  0  0  0  3  0  0  0  0  0  0
   -7.8110  -14.9340    6.6520 C   0  0  0  0  0  3  0  0  0  0  0  0
   -7.6980  -11.4240    9.6040 C   0  0  0  0  0  0  0  0  0  0  0  0
   -8.4620  -10.5030    8.8850 C   0  0  0  0  0  3  0  0  0  0  0  0
   -8.0630   -9.1610    8.7830 C   0  0  0  0  0  3  0  0  0  0  0  0
   -6.8930   -8.6720    9.4000 C   0  0  0  0  0  0  0  0  0  0  0  0
   -6.1410   -9.6160   10.1240 C   0  0  0  0  0  3  0  0  0  0  0  0
   -6.5330  -10.9570   10.2220 C   0  0  0  0  0  3  0  0  0  0  0  0
   -6.4770   -7.1560    9.3260 C   0  0  1  0  0  0  0  0  0  0  0  0
   -6.9010   -6.1750   10.4630 C   0  0  0  0  0  2  0  0  0  0  0  0
   -5.5930   -5.3840   10.1580 C   0  0  1  0  0  0  0  0  0  0  0  0
   -4.9260   -4.7540   11.3670 C   0  0  0  0  0  1  0  0  0  0  0  0
   -5.0090   -6.7420    9.6640 C   0  0  0  0  0  2  0  0  0  0  0  0
   -6.8990   -6.6370    7.9990 N   0  0  0  0  0  4  0  0  0  0  0  0
   -6.4400   -7.1280    7.2250 H   0  0  0  0  0  0  0  0  0  0  0  0
   -7.9130   -6.7210    7.8620 H   0  0  0  0  0  0  0  0  0  0  0  0
   -6.6580   -5.6290    7.9210 H   0  0  0  0  0  0  0  0  0  0  0  0
   -5.7550   -4.4180    9.0840 O   0  0  0  0  0  0  0  0  0  0  0  0
   -5.0840   -3.7220    9.2430 H   0  0  0  0  0  0  0  0  0  0  0  0
  -12.5670  -15.4480   15.0010 N   0  0  0  0  0  0  0  0  0  0  0  0
  -11.2170  -15.6830   15.0050 C   0  0  0  0  0  0  0  0  0  0  0  0
  -10.5650  -15.5630   16.0380 O   0  0  0  0  0  0  0  0  0  0  0  0
  -12.9090  -15.0930   15.8880 H   0  0  0  0  0  0  0  0  0  0  0  0
  -14.1590  -17.0520   14.0530 C   0  0  0  0  0  1  0  0  0  0  0  0
  -13.5250  -15.6800   13.9350 C   0  0  0  0  0  2  0  0  0  0  0  0
  1 38  1  0  0  0  0
  2  1  1  0  0  0  0
  3  2  2  0  0  0  0
  4  5  2  0  0  0  0
  4  3  1  0  0  0  0
  5  6  1  0  0  0  0
  6  1  2  0  0  0  0
  7  8  2  0  0  0  0
  7  5  1  0  0  0  0
  9  8  1  0  0  0  0
 10 11  1  0  0  0  0
 10  9  2  0  0  0  0
 11  7  1  0  0  0  0
 12 11  1  0  0  0  0
 12 13  1  0  0  0  0
 13  4  1  0  0  0  0
 14 10  1  0  0  0  0
 15 14  1  0  0  0  0
 16 15  2  0  0  0  0
 17 18  2  0  0  0  0
 17 16  1  0  0  0  0
 18 19  1  0  0  0  0
 19 14  2  0  0  0  0
 20  9  1  0  0  0  0
 20 25  1  0  0  0  0
 21 20  2  0  0  0  0
 22 21  1  0  0  0  0
 22 23  2  0  0  0  0
 23 24  1  0  0  0  0
 24 25  2  0  0  0  0
 26 31  1  6  0  0  0
 26 23  1  0  0  0  0
 26 30  1  0  0  0  0
 26 27  1  0  0  0  0
 28 27  1  0  0  0  0
 28 29  1  1  0  0  0
 30 28  1  0  0  0  0
 32 31  1  0  0  0  0
 33 31  1  0  0  0  0
 34 31  1  0  0  0  0
 35 36  1  0  0  0  0
 35 28  1  0  0  0  0
 37 38  1  0  0  0  0
 37 40  1  0  0  0  0
 38 39  2  0  0  0  0
 42 41  1  0  0  0  0
 42 37  1  0  0  0  0
M  END
>  <minimizedAffinity>
-4.92167044

$$$$

 OpenBabel11232420143D

 42 47  0  0  1  0  0  0  0  0999 V2000
   -5.3160   -5.0210   12.5510 C   0  0  0  0  0  0  0  0  0  0  0  0
   -5.4470   -4.3400   11.3350 C   0  0  0  0  0  3  0  0  0  0  0  0
   -5.7520   -5.0480   10.1700 C   0  0  0  0  0  3  0  0  0  0  0  0
   -5.8930   -6.4340   10.2200 C   0  0  0  0  0  0  0  0  0  0  0  0
   -5.7470   -7.1150   11.4350 C   0  0  0  0  0  0  0  0  0  0  0  0
   -5.4490   -6.4120   12.6020 C   0  0  0  0  0  3  0  0  0  0  0  0
   -5.9480   -8.5450   11.4220 C   0  0  0  0  0  0  0  0  0  0  0  0
   -6.0420   -9.3920   12.4190 N   0  0  0  0  0  0  0  0  0  0  0  0
   -6.2590  -10.6310   11.8440 C   0  0  0  0  0  0  0  0  0  0  0  0
   -6.2820  -10.5280   10.4550 C   0  0  0  0  0  0  0  0  0  0  0  0
   -6.0870   -9.1840   10.2270 N   0  0  0  0  0  0  0  0  0  0  0  0
   -5.9460   -8.4820    8.9640 C   0  0  0  0  0  2  0  0  0  0  0  0
   -6.2370   -7.0690    9.0540 O   0  0  0  0  0  0  0  0  0  0  0  0
   -6.4910  -11.4890    9.3820 C   0  0  0  0  0  0  0  0  0  0  0  0
   -7.7160  -12.1580    9.2610 C   0  0  0  0  0  3  0  0  0  0  0  0
   -7.9090  -13.0900    8.2400 C   0  0  0  0  0  3  0  0  0  0  0  0
   -6.8800  -13.3590    7.3380 C   0  0  0  0  0  3  0  0  0  0  0  0
   -5.6590  -12.6960    7.4530 C   0  0  0  0  0  3  0  0  0  0  0  0
   -5.4640  -11.7620    8.4730 C   0  0  0  0  0  3  0  0  0  0  0  0
   -6.4310  -11.8110   12.6860 C   0  0  0  0  0  0  0  0  0  0  0  0
   -5.3830  -12.4570   13.3430 C   0  0  0  0  0  3  0  0  0  0  0  0
   -5.6230  -13.5750   14.1570 C   0  0  0  0  0  3  0  0  0  0  0  0
   -6.9180  -14.0940   14.3640 C   0  0  0  0  0  0  0  0  0  0  0  0
   -7.9600  -13.4250   13.6960 C   0  0  0  0  0  3  0  0  0  0  0  0
   -7.7230  -12.3140   12.8770 C   0  0  0  0  0  3  0  0  0  0  0  0
   -7.1890  -15.3170   15.3180 C   0  0  1  0  0  0  0  0  0  0  0  0
   -8.1910  -15.1700   16.5050 C   0  0  0  0  0  2  0  0  0  0  0  0
   -8.5000  -16.6870   16.3260 C   0  0  1  0  0  0  0  0  0  0  0  0
   -9.9370  -17.0870   16.6020 C   0  0  0  0  0  1  0  0  0  0  0  0
   -8.1030  -16.4850   14.8320 C   0  0  0  0  0  2  0  0  0  0  0  0
   -5.8730  -15.8140   15.7970 N   0  0  0  0  0  4  0  0  0  0  0  0
   -5.2780  -16.1400   15.0290 H   0  0  0  0  0  0  0  0  0  0  0  0
   -5.3540  -15.0900   16.3070 H   0  0  0  0  0  0  0  0  0  0  0  0
   -6.0130  -16.6120   16.4490 H   0  0  0  0  0  0  0  0  0  0  0  0
   -7.5680  -17.5420   17.0430 O   0  0  0  0  0  0  0  0  0  0  0  0
   -8.0510  -18.3750   17.2260 H   0  0  0  0  0  0  0  0  0  0  0  0
   -5.9330   -4.1070   14.7590 N   0  0  0  0  0  0  0  0  0  0  0  0
   -4.9750   -4.3050   13.7980 C   0  0  0  0  0  0  0  0  0  0  0  0
   -3.8250   -3.9140   13.9730 O   0  0  0  0  0  0  0  0  0  0  0  0
   -5.6020   -3.5460   15.5360 H   0  0  0  0  0  0  0  0  0  0  0  0
   -8.2690   -3.6520   14.1750 C   0  0  0  0  0  1  0  0  0  0  0  0
   -7.2890   -4.6210   14.8070 C   0  0  0  0  0  2  0  0  0  0  0  0
  1  6  1  0  0  0  0
  1 38  1  0  0  0  0
  2  1  2  0  0  0  0
  3  4  2  0  0  0  0
  3  2  1  0  0  0  0
  4  5  1  0  0  0  0
  5  6  2  0  0  0  0
  7  5  1  0  0  0  0
  7  8  2  0  0  0  0
  9  8  1  0  0  0  0
  9 20  1  0  0  0  0
 10  9  2  0  0  0  0
 11 10  1  0  0  0  0
 11  7  1  0  0  0  0
 12 13  1  0  0  0  0
 12 11  1  0  0  0  0
 13  4  1  0  0  0  0
 14 10  1  0  0  0  0
 15 14  1  0  0  0  0
 16 15  2  0  0  0  0
 17 18  2  0  0  0  0
 17 16  1  0  0  0  0
 18 19  1  0  0  0  0
 19 14  2  0  0  0  0
 20 25  2  0  0  0  0
 20 21  1  0  0  0  0
 21 22  2  0  0  0  0
 22 23  1  0  0  0  0
 23 26  1  0  0  0  0
 24 23  2  0  0  0  0
 25 24  1  0  0  0  0
 26 31  1  1  0  0  0
 26 27  1  0  0  0  0
 28 27  1  0  0  0  0
 28 29  1  1  0  0  0
 28 35  1  0  0  0  0
 30 26  1  0  0  0  0
 30 28  1  0  0  0  0
 31 33  1  0  0  0  0
 31 34  1  0  0  0  0
 32 31  1  0  0  0  0
 35 36  1  0  0  0  0
 37 42  1  0  0  0  0
 37 40  1  0  0  0  0
 38 39  2  0  0  0  0
 38 37  1  0  0  0  0
 41 42  1  0  0  0  0
M  END
>  <minimizedAffinity>
-4.88633347

$$$$

 OpenBabel11232420143D

 42 47  0  0  1  0  0  0  0  0999 V2000
   -5.8210  -11.6820   15.3190 C   0  0  0  0  0  0  0  0  0  0  0  0
   -4.7450  -12.5730   15.4160 C   0  0  0  0  0  3  0  0  0  0  0  0
   -4.3260  -13.2840   14.2890 C   0  0  0  0  0  3  0  0  0  0  0  0
   -5.0010  -13.1250   13.0810 C   0  0  0  0  0  0  0  0  0  0  0  0
   -6.0860  -12.2440   12.9880 C   0  0  0  0  0  0  0  0  0  0  0  0
   -6.5050  -11.5280   14.1090 C   0  0  0  0  0  3  0  0  0  0  0  0
   -6.7130  -12.0970   11.6960 C   0  0  0  0  0  0  0  0  0  0  0  0
   -7.6140  -11.2350   11.2900 N   0  0  0  0  0  0  0  0  0  0  0  0
   -7.8400  -11.5240    9.9560 C   0  0  0  0  0  0  0  0  0  0  0  0
   -7.0590  -12.6030    9.5510 C   0  0  0  0  0  0  0  0  0  0  0  0
   -6.3520  -12.9350   10.6840 N   0  0  0  0  0  0  0  0  0  0  0  0
   -5.4240  -14.0310   10.8960 C   0  0  0  0  0  2  0  0  0  0  0  0
   -4.5150  -13.8140   11.9980 O   0  0  0  0  0  0  0  0  0  0  0  0
   -6.8870  -13.2950    8.2820 C   0  0  0  0  0  0  0  0  0  0  0  0
   -7.5580  -14.4990    8.0360 C   0  0  0  0  0  3  0  0  0  0  0  0
   -7.3800  -15.1680    6.8250 C   0  0  0  0  0  3  0  0  0  0  0  0
   -6.5280  -14.6400    5.8550 C   0  0  0  0  0  3  0  0  0  0  0  0
   -5.8570  -13.4400    6.0930 C   0  0  0  0  0  3  0  0  0  0  0  0
   -6.0360  -12.7680    7.3040 C   0  0  0  0  0  3  0  0  0  0  0  0
   -8.7890  -10.7280    9.1830 C   0  0  0  0  0  0  0  0  0  0  0  0
   -8.4860   -9.4890    8.6170 C   0  0  0  0  0  3  0  0  0  0  0  0
   -9.4420   -8.7870    7.8670 C   0  0  0  0  0  3  0  0  0  0  0  0
  -10.7380   -9.2910    7.6340 C   0  0  0  0  0  0  0  0  0  0  0  0
  -11.0210  -10.5440    8.2100 C   0  0  0  0  0  3  0  0  0  0  0  0
  -10.0720  -11.2430    8.9660 C   0  0  0  0  0  3  0  0  0  0  0  0
  -11.7900   -8.5240    6.7490 C   0  0  1  0  0  0  0  0  0  0  0  0
  -12.9070   -9.3190    6.0030 C   0  0  0  0  0  2  0  0  0  0  0  0
  -13.8040   -8.0560    6.1670 C   0  0  1  0  0  0  0  0  0  0  0  0
  -15.2780   -8.3380    6.3840 C   0  0  0  0  0  1  0  0  0  0  0  0
  -12.9550   -7.7460    7.4370 C   0  0  0  0  0  2  0  0  0  0  0  0
  -11.0380   -7.6600    5.8030 N   0  0  0  0  0  4  0  0  0  0  0  0
  -10.4650   -6.9610    6.2870 H   0  0  0  0  0  0  0  0  0  0  0  0
  -10.4150   -8.2080    5.1980 H   0  0  0  0  0  0  0  0  0  0  0  0
  -11.7020   -7.1510    5.1850 H   0  0  0  0  0  0  0  0  0  0  0  0
  -13.6050   -7.0800    5.1080 O   0  0  0  0  0  0  0  0  0  0  0  0
  -14.4420   -6.5740    5.0460 H   0  0  0  0  0  0  0  0  0  0  0  0
   -5.6560   -9.7870   16.8900 N   0  0  0  0  0  0  0  0  0  0  0  0
   -6.3030  -10.9300   16.4960 C   0  0  0  0  0  0  0  0  0  0  0  0
   -7.2960  -11.3250   17.0980 O   0  0  0  0  0  0  0  0  0  0  0  0
   -6.0330   -9.3960   17.7470 H   0  0  0  0  0  0  0  0  0  0  0  0
   -5.0740   -7.8210   15.5480 C   0  0  0  0  0  1  0  0  0  0  0  0
   -4.5750   -9.0820   16.2280 C   0  0  0  0  0  2  0  0  0  0  0  0
  1  2  1  0  0  0  0
  1 38  1  0  0  0  0
  3  2  2  0  0  0  0
  4  3  1  0  0  0  0
  5  4  2  0  0  0  0
  5  6  1  0  0  0  0
  6  1  2  0  0  0  0
  7  5  1  0  0  0  0
  8  7  2  0  0  0  0
  9  8  1  0  0  0  0
 10  9  2  0  0  0  0
 10 11  1  0  0  0  0
 11 12  1  0  0  0  0
 11  7  1  0  0  0  0
 12 13  1  0  0  0  0
 13  4  1  0  0  0  0
 14 10  1  0  0  0  0
 15 14  1  0  0  0  0
 16 15  2  0  0  0  0
 17 18  2  0  0  0  0
 17 16  1  0  0  0  0
 18 19  1  0  0  0  0
 19 14  2  0  0  0  0
 20  9  1  0  0  0  0
 21 20  2  0  0  0  0
 22 21  1  0  0  0  0
 23 22  2  0  0  0  0
 23 24  1  0  0  0  0
 24 25  2  0  0  0  0
 25 20  1  0  0  0  0
 26 31  1  6  0  0  0
 26 30  1  0  0  0  0
 26 23  1  0  0  0  0
 27 28  1  0  0  0  0
 27 26  1  0  0  0  0
 28 29  1  1  0  0  0
 28 30  1  0  0  0  0
 31 32  1  0  0  0  0
 33 31  1  0  0  0  0
 34 31  1  0  0  0  0
 35 28  1  0  0  0  0
 36 35  1  0  0  0  0
 37 40  1  0  0  0  0
 38 37  1  0  0  0  0
 38 39  2  0  0  0  0
 41 42  1  0  0  0  0
 42 37  1  0  0  0  0
M  END
>  <minimizedAffinity>
-4.74282503

$$$$

 OpenBabel11232420143D

 42 47  0  0  1  0  0  0  0  0999 V2000
  -14.4210   -9.1430    7.7720 C   0  0  0  0  0  0  0  0  0  0  0  0
  -14.9990  -10.3930    7.5200 C   0  0  0  0  0  3  0  0  0  0  0  0
  -14.2660  -11.5590    7.7550 C   0  0  0  0  0  3  0  0  0  0  0  0
  -12.9520  -11.4690    8.2090 C   0  0  0  0  0  0  0  0  0  0  0  0
  -12.3700  -10.2170    8.4460 C   0  0  0  0  0  0  0  0  0  0  0  0
  -13.1000   -9.0500    8.2190 C   0  0  0  0  0  3  0  0  0  0  0  0
  -11.0190  -10.1990    8.9550 C   0  0  0  0  0  0  0  0  0  0  0  0
  -10.3070   -9.2000    9.4190 N   0  0  0  0  0  0  0  0  0  0  0  0
   -9.0920   -9.7460    9.7980 C   0  0  0  0  0  0  0  0  0  0  0  0
   -9.0690  -11.1140    9.5400 C   0  0  0  0  0  0  0  0  0  0  0  0
  -10.3150  -11.3650    9.0100 N   0  0  0  0  0  0  0  0  0  0  0  0
  -10.8530  -12.6070    8.4850 C   0  0  0  0  0  2  0  0  0  0  0  0
  -12.2980  -12.6480    8.4650 O   0  0  0  0  0  0  0  0  0  0  0  0
   -8.0790  -12.1580    9.7560 C   0  0  0  0  0  0  0  0  0  0  0  0
   -7.0950  -12.4090    8.7920 C   0  0  0  0  0  3  0  0  0  0  0  0
   -6.1550  -13.4210    8.9950 C   0  0  0  0  0  3  0  0  0  0  0  0
   -6.1950  -14.1870   10.1590 C   0  0  0  0  0  3  0  0  0  0  0  0
   -7.1720  -13.9400   11.1240 C   0  0  0  0  0  3  0  0  0  0  0  0
   -8.1130  -12.9280   10.9240 C   0  0  0  0  0  3  0  0  0  0  0  0
   -8.0570   -8.8970   10.3810 C   0  0  0  0  0  0  0  0  0  0  0  0
   -7.0560   -8.2700    9.6390 C   0  0  0  0  0  3  0  0  0  0  0  0
   -6.1050   -7.4480   10.2630 C   0  0  0  0  0  3  0  0  0  0  0  0
   -6.1140   -7.2030   11.6520 C   0  0  0  0  0  0  0  0  0  0  0  0
   -7.1350   -7.8410   12.3810 C   0  0  0  0  0  3  0  0  0  0  0  0
   -8.0810   -8.6680   11.7620 C   0  0  0  0  0  3  0  0  0  0  0  0
   -5.0760   -6.2400   12.3410 C   0  0  1  0  0  0  0  0  0  0  0  0
   -5.3790   -4.7120   12.4400 C   0  0  0  0  0  2  0  0  0  0  0  0
   -4.5480   -4.7160   13.7590 C   0  0  1  0  0  0  0  0  0  0  0  0
   -5.0420   -3.7650   14.8320 C   0  0  0  0  0  1  0  0  0  0  0  0
   -4.9680   -6.2100   13.8980 C   0  0  0  0  0  2  0  0  0  0  0  0
   -3.7530   -6.4740   11.7050 N   0  0  0  0  0  4  0  0  0  0  0  0
   -3.4250   -7.4360   11.8350 H   0  0  0  0  0  0  0  0  0  0  0  0
   -3.7770   -6.2870   10.6960 H   0  0  0  0  0  0  0  0  0  0  0  0
   -3.0440   -5.8380   12.1210 H   0  0  0  0  0  0  0  0  0  0  0  0
   -3.1220   -4.5530   13.5270 O   0  0  0  0  0  0  0  0  0  0  0  0
   -2.7590   -4.1560   14.3460 H   0  0  0  0  0  0  0  0  0  0  0  0
  -15.1660   -7.3400    6.2600 N   0  0  0  0  0  0  0  0  0  0  0  0
  -15.1620   -7.8900    7.5160 C   0  0  0  0  0  0  0  0  0  0  0  0
  -15.7890   -7.3630    8.4300 O   0  0  0  0  0  0  0  0  0  0  0  0
  -15.6480   -6.4490    6.2210 H   0  0  0  0  0  0  0  0  0  0  0  0
  -13.2540   -7.3040    4.7260 C   0  0  0  0  0  1  0  0  0  0  0  0
  -14.6220   -7.8850    5.0300 C   0  0  0  0  0  2  0  0  0  0  0  0
  1  6  1  0  0  0  0
  2  3  1  0  0  0  0
  2  1  2  0  0  0  0
  3  4  2  0  0  0  0
  4  5  1  0  0  0  0
  4 13  1  0  0  0  0
  5  7  1  0  0  0  0
  6  5  2  0  0  0  0
  7 11  1  0  0  0  0
  7  8  2  0  0  0  0
  8  9  1  0  0  0  0
  9 20  1  0  0  0  0
 10 14  1  0  0  0  0
 10  9  2  0  0  0  0
 11 10  1  0  0  0  0
 12 11  1  0  0  0  0
 13 12  1  0  0  0  0
 14 19  1  0  0  0  0
 15 16  1  0  0  0  0
 15 14  2  0  0  0  0
 16 17  2  0  0  0  0
 17 18  1  0  0  0  0
 19 18  2  0  0  0  0
 20 25  1  0  0  0  0
 21 22  1  0  0  0  0
 21 20  2  0  0  0  0
 22 23  2  0  0  0  0
 23 26  1  0  0  0  0
 23 24  1  0  0  0  0
 25 24  2  0  0  0  0
 26 31  1  6  0  0  0
 26 27  1  0  0  0  0
 26 30  1  0  0  0  0
 27 28  1  0  0  0  0
 28 30  1  0  0  0  0
 28 29  1  1  0  0  0
 31 32  1  0  0  0  0
 31 34  1  0  0  0  0
 33 31  1  0  0  0  0
 35 28  1  0  0  0  0
 35 36  1  0  0  0  0
 37 38  1  0  0  0  0
 38  1  1  0  0  0  0
 38 39  2  0  0  0  0
 40 37  1  0  0  0  0
 41 42  1  0  0  0  0
 42 37  1  0  0  0  0
M  END
>  <minimizedAffinity>
-4.66967154

$$$$

 OpenBabel11232420143D

 42 47  0  0  1  0  0  0  0  0999 V2000
  -11.0880  -16.1250    9.2010 C   0  0  0  0  0  0  0  0  0  0  0  0
  -12.1130  -16.4590    8.3080 C   0  0  0  0  0  3  0  0  0  0  0  0
  -12.7550  -15.4560    7.5780 C   0  0  0  0  0  3  0  0  0  0  0  0
  -12.3920  -14.1240    7.7680 C   0  0  0  0  0  0  0  0  0  0  0  0
  -11.3760  -13.7900    8.6720 C   0  0  0  0  0  0  0  0  0  0  0  0
  -10.7280  -14.7890    9.3990 C   0  0  0  0  0  3  0  0  0  0  0  0
  -11.0230  -12.3950    8.7880 C   0  0  0  0  0  0  0  0  0  0  0  0
  -10.0180  -11.8300    9.4130 N   0  0  0  0  0  0  0  0  0  0  0  0
  -10.1410  -10.4720    9.1770 C   0  0  0  0  0  0  0  0  0  0  0  0
  -11.2650  -10.2120    8.3970 C   0  0  0  0  0  0  0  0  0  0  0  0
  -11.7950  -11.4610    8.1650 N   0  0  0  0  0  0  0  0  0  0  0  0
  -13.0150  -11.8230    7.4660 C   0  0  0  0  0  2  0  0  0  0  0  0
  -13.0260  -13.1870    6.9910 O   0  0  0  0  0  0  0  0  0  0  0  0
  -11.8430   -8.9950    7.8460 C   0  0  0  0  0  0  0  0  0  0  0  0
  -11.2950   -8.4080    6.6980 C   0  0  0  0  0  3  0  0  0  0  0  0
  -11.8420   -7.2330    6.1800 C   0  0  0  0  0  3  0  0  0  0  0  0
  -12.9350   -6.6380    6.8070 C   0  0  0  0  0  3  0  0  0  0  0  0
  -13.4860   -7.2170    7.9500 C   0  0  0  0  0  3  0  0  0  0  0  0
  -12.9420   -8.3940    8.4690 C   0  0  0  0  0  3  0  0  0  0  0  0
   -9.1590   -9.5400    9.7220 C   0  0  0  0  0  0  0  0  0  0  0  0
   -9.1170   -9.1490   11.0610 C   0  0  0  0  0  3  0  0  0  0  0  0
   -8.1300   -8.2650   11.5230 C   0  0  0  0  0  3  0  0  0  0  0  0
   -7.1310   -7.7400   10.6760 C   0  0  0  0  0  0  0  0  0  0  0  0
   -7.1880   -8.1510    9.3320 C   0  0  0  0  0  3  0  0  0  0  0  0
   -8.1770   -9.0270    8.8660 C   0  0  0  0  0  3  0  0  0  0  0  0
   -5.9940   -6.7900   11.2100 C   0  0  1  0  0  0  0  0  0  0  0  0
   -6.3150   -5.2960   11.5280 C   0  0  0  0  0  2  0  0  0  0  0  0
   -5.2060   -5.3750   12.6200 C   0  0  1  0  0  0  0  0  0  0  0  0
   -5.4740   -4.5540   13.8670 C   0  0  0  0  0  1  0  0  0  0  0  0
   -5.5370   -6.8960   12.6990 C   0  0  0  0  0  2  0  0  0  0  0  0
   -4.8440   -6.8940   10.2750 N   0  0  0  0  0  4  0  0  0  0  0  0
   -4.4640   -7.8460   10.2310 H   0  0  0  0  0  0  0  0  0  0  0  0
   -5.1010   -6.6180    9.3200 H   0  0  0  0  0  0  0  0  0  0  0  0
   -4.0790   -6.2620   10.5850 H   0  0  0  0  0  0  0  0  0  0  0  0
   -3.8750   -5.1170   12.0950 O   0  0  0  0  0  0  0  0  0  0  0  0
   -3.3490   -4.7770   12.8480 H   0  0  0  0  0  0  0  0  0  0  0  0
   -9.2650  -17.7580    9.5210 N   0  0  0  0  0  0  0  0  0  0  0  0
  -10.4020  -17.1600   10.0020 C   0  0  0  0  0  0  0  0  0  0  0  0
  -10.8460  -17.4600   11.1060 O   0  0  0  0  0  0  0  0  0  0  0  0
   -8.9230  -18.4980   10.1240 H   0  0  0  0  0  0  0  0  0  0  0  0
   -7.3200  -16.5490    8.6490 C   0  0  0  0  0  1  0  0  0  0  0  0
   -8.5070  -17.4360    8.3260 C   0  0  0  0  0  2  0  0  0  0  0  0
  1  6  1  0  0  0  0
  1 38  1  0  0  0  0
  2  1  2  0  0  0  0
  3  4  2  0  0  0  0
  3  2  1  0  0  0  0
  4  5  1  0  0  0  0
  5  7  1  0  0  0  0
  5  6  2  0  0  0  0
  7  8  2  0  0  0  0
  9  8  1  0  0  0  0
  9 20  1  0  0  0  0
 10  9  2  0  0  0  0
 11 10  1  0  0  0  0
 11  7  1  0  0  0  0
 12 11  1  0  0  0  0
 13 12  1  0  0  0  0
 13  4  1  0  0  0  0
 14 10  1  0  0  0  0
 14 19  1  0  0  0  0
 15 14  2  0  0  0  0
 16 15  1  0  0  0  0
 16 17  2  0  0  0  0
 17 18  1  0  0  0  0
 18 19  2  0  0  0  0
 20 21  1  0  0  0  0
 21 22  2  0  0  0  0
 23 26  1  0  0  0  0
 23 22  1  0  0  0  0
 24 23  2  0  0  0  0
 25 24  1  0  0  0  0
 25 20  2  0  0  0  0
 26 31  1  6  0  0  0
 26 27  1  0  0  0  0
 26 30  1  0  0  0  0
 27 28  1  0  0  0  0
 28 30  1  0  0  0  0
 28 29  1  1  0  0  0
 31 34  1  0  0  0  0
 32 31  1  0  0  0  0
 33 31  1  0  0  0  0
 35 28  1  0  0  0  0
 35 36  1  0  0  0  0
 37 38  1  0  0  0  0
 37 40  1  0  0  0  0
 38 39  2  0  0  0  0
 42 41  1  0  0  0  0
 42 37  1  0  0  0  0
M  END
>  <minimizedAffinity>
-4.55431795

$$$$
