
 OpenBabel11232420143D

 42 47  0  0  1  0  0  0  0  0999 V2000
   -2.4820  -11.5540   15.4550 C   0  0  0  0  0  0  0  0  0  0  0  0
   -1.5380  -10.6510   15.9570 C   0  0  0  0  0  3  0  0  0  0  0  0
   -1.5630   -9.3170   15.5440 C   0  0  0  0  0  3  0  0  0  0  0  0
   -2.5090   -8.9000   14.6090 C   0  0  0  0  0  0  0  0  0  0  0  0
   -3.4440   -9.8090   14.0970 C   0  0  0  0  0  0  0  0  0  0  0  0
   -3.4270  -11.1400   14.5110 C   0  0  0  0  0  3  0  0  0  0  0  0
   -4.4200   -9.3000   13.1640 C   0  0  0  0  0  0  0  0  0  0  0  0
   -5.4930   -9.8730   12.6710 N   0  0  0  0  0  0  0  0  0  0  0  0
   -6.0820   -8.9280   11.8480 C   0  0  0  0  0  0  0  0  0  0  0  0
   -5.3310   -7.7550   11.8360 C   0  0  0  0  0  0  0  0  0  0  0  0
   -4.2860   -8.0300   12.6890 N   0  0  0  0  0  0  0  0  0  0  0  0
   -3.1380   -7.2070   13.0240 C   0  0  0  0  0  2  0  0  0  0  0  0
   -2.5130   -7.5690   14.2760 O   0  0  0  0  0  0  0  0  0  0  0  0
   -5.4960   -6.4680   11.1770 C   0  0  0  0  0  0  0  0  0  0  0  0
   -5.4000   -6.3690    9.7830 C   0  0  0  0  0  3  0  0  0  0  0  0
   -5.5430   -5.1310    9.1560 C   0  0  0  0  0  3  0  0  0  0  0  0
   -5.7790   -3.9860    9.9160 C   0  0  0  0  0  3  0  0  0  0  0  0
   -5.8760   -4.0780   11.3050 C   0  0  0  0  0  3  0  0  0  0  0  0
   -5.7340   -5.3160   11.9350 C   0  0  0  0  0  3  0  0  0  0  0  0
   -7.3240   -9.2390   11.1470 C   0  0  0  0  0  0  0  0  0  0  0  0
   -8.5730   -9.2990   11.7670 C   0  0  0  0  0  3  0  0  0  0  0  0
   -9.7310   -9.5810   11.0260 C   0  0  0  0  0  3  0  0  0  0  0  0
   -9.7010   -9.8040    9.6340 C   0  0  0  0  0  0  0  0  0  0  0  0
   -8.4330   -9.7340    9.0290 C   0  0  0  0  0  3  0  0  0  0  0  0
   -7.2740   -9.4600    9.7660 C   0  0  0  0  0  3  0  0  0  0  0  0
  -11.0100  -10.0700    8.7990 C   0  0  1  0  0  0  0  0  0  0  0  0
  -12.3620   -9.4320    9.2470 C   0  0  0  0  0  2  0  0  0  0  0  0
  -12.7560   -9.4060    7.7400 C   0  0  1  0  0  0  0  0  0  0  0  0
  -13.6000   -8.2190    7.3170 C   0  0  0  0  0  1  0  0  0  0  0  0
  -11.2270   -9.3190    7.4480 C   0  0  0  0  0  2  0  0  0  0  0  0
  -11.1500  -11.5400    8.6360 N   0  0  0  0  0  4  0  0  0  0  0  0
  -10.3620  -11.9520    8.1260 H   0  0  0  0  0  0  0  0  0  0  0  0
  -11.2180  -12.0200    9.5420 H   0  0  0  0  0  0  0  0  0  0  0  0
  -12.0170  -11.7560    8.1060 H   0  0  0  0  0  0  0  0  0  0  0  0
  -13.3430  -10.6570    7.2880 O   0  0  0  0  0  0  0  0  0  0  0  0
  -13.9150  -10.4270    6.5260 H   0  0  0  0  0  0  0  0  0  0  0  0
   -1.7160  -13.8810   15.1550 N   0  0  0  0  0  0  0  0  0  0  0  0
   -2.4710  -12.9770   15.8560 C   0  0  0  0  0  0  0  0  0  0  0  0
   -3.1240  -13.3320   16.8330 O   0  0  0  0  0  0  0  0  0  0  0  0
   -1.8410  -14.8340   15.4790 H   0  0  0  0  0  0  0  0  0  0  0  0
   -1.2900  -14.1570   12.7580 C   0  0  0  0  0  1  0  0  0  0  0  0
   -0.7700  -13.6350   14.0840 C   0  0  0  0  0  2  0  0  0  0  0  0
  1 38  1  0  0  0  0
  1  2  1  0  0  0  0
  3  2  2  0  0  0  0
  4  3  1  0  0  0  0
  5  6  1  0  0  0  0
  5  4  2  0  0  0  0
  6  1  2  0  0  0  0
  7  5  1  0  0  0  0
  8  7  2  0  0  0  0
  9  8  1  0  0  0  0
 10  9  2  0  0  0  0
 10 11  1  0  0  0  0
 11 12  1  0  0  0  0
 11  7  1  0  0  0  0
 12 13  1  0  0  0  0
 13  4  1  0  0  0  0
 14 10  1  0  0  0  0
 14 19  1  0  0  0  0
 15 14  2  0  0  0  0
 16 15  1  0  0  0  0
 16 17  2  0  0  0  0
 17 18  1  0  0  0  0
 18 19  2  0  0  0  0
 20 21  1  0  0  0  0
 20  9  1  0  0  0  0
 22 21  2  0  0  0  0
 23 22  1  0  0  0  0
 24 23  2  0  0  0  0
 24 25  1  0  0  0  0
 25 20  2  0  0  0  0
 26 31  1  6  0  0  0
 26 27  1  0  0  0  0
 26 23  1  0  0  0  0
 28 29  1  6  0  0  0
 28 27  1  0  0  0  0
 30 28  1  0  0  0  0
 30 26  1  0  0  0  0
 31 33  1  0  0  0  0
 32 31  1  0  0  0  0
 34 31  1  0  0  0  0
 35 28  1  0  0  0  0
 36 35  1  0  0  0  0
 37 40  1  0  0  0  0
 37 38  1  0  0  0  0
 38 39  2  0  0  0  0
 41 42  1  0  0  0  0
 42 37  1  0  0  0  0
M  END
>  <minimizedAffinity>
-5.29903555

$$$$
