
 OpenBabel10152419313D

 39 42  0  0  1  0  0  0  0  0999 V2000
   -0.1220  -11.5550  -22.3440 C   0  0  0  0  0  0  0  0  0  0  0  0
   -0.6370  -12.8250  -22.0390 C   0  0  0  0  0  3  0  0  0  0  0  0
   -1.7930  -12.9590  -21.2750 C   0  0  0  0  0  3  0  0  0  0  0  0
   -2.4330  -11.8260  -20.7720 C   0  0  0  0  0  3  0  0  0  0  0  0
   -1.9240  -10.5540  -21.0340 C   0  0  0  0  0  0  0  0  0  0  0  0
   -0.8200  -10.4250  -21.8820 C   0  0  0  0  0  3  0  0  0  0  0  0
   -2.4820   -9.3710  -20.5170 N   0  0  0  0  0  0  0  0  0  0  0  0
   -2.4430   -8.0720  -20.9720 C   0  0  0  0  0  0  0  0  0  0  0  0
   -2.6610   -7.1700  -20.1620 O   0  0  0  0  0  0  0  0  0  0  0  0
   -2.9850   -9.4490  -19.6410 H   0  0  0  0  0  0  0  0  0  0  0  0
   -2.2280   -7.7810  -22.3650 C   0  0  0  0  0  0  0  0  0  0  0  0
   -1.1010   -7.4950  -23.1120 C   0  0  0  0  0  3  0  0  0  0  0  0
   -1.5580   -7.2570  -24.4330 C   0  0  0  0  0  0  0  0  0  0  0  0
   -2.8830   -7.4490  -24.5160 N   0  0  0  0  0  0  0  0  0  0  0  0
   -3.2400   -7.8370  -23.2810 N   0  0  0  0  0  0  0  0  0  0  0  0
   -4.2070   -8.0940  -23.1080 H   0  0  0  0  0  0  0  0  0  0  0  0
   -0.7690   -6.7820  -25.6430 C   0  0  0  0  0  0  0  0  0  0  0  0
   -1.4530   -5.5710  -26.3120 C   0  0  0  0  0  1  0  0  0  0  0  0
    0.6480   -6.3680  -25.1970 C   0  0  0  0  0  1  0  0  0  0  0  0
   -0.6350   -7.8910  -26.7080 C   0  0  0  0  0  1  0  0  0  0  0  0
    1.8530  -12.8290  -23.1770 C   0  0  0  0  0  1  0  0  0  0  0  0
    1.1670  -11.4580  -23.1480 C   0  0  1  0  0  3  0  0  0  0  0  0
    1.0040  -10.9870  -24.5200 N   0  0  0  0  0  0  0  0  0  0  0  0
    0.5160  -10.1030  -24.6200 H   0  0  0  0  0  0  0  0  0  0  0  0
    1.8060  -11.1690  -25.6160 C   0  0  0  0  0  0  0  0  0  0  0  0
    1.6820  -12.4250  -26.0790 N   0  0  0  0  0  0  0  0  0  0  0  0
    2.2760  -12.7050  -27.2330 C   0  0  0  0  0  3  0  0  0  0  0  0
    2.9680  -11.8460  -27.9830 N   0  0  0  0  0  0  0  0  0  0  0  0
    3.1490  -10.5930  -27.5090 C   0  0  0  0  0  0  0  0  0  0  0  0
    3.8830   -9.6330  -28.2360 C   0  0  0  0  0  0  0  0  0  0  0  0
    4.1190   -8.3450  -27.7190 C   0  0  0  0  0  3  0  0  0  0  0  0
    3.6420   -7.9940  -26.4690 C   0  0  0  0  0  3  0  0  0  0  0  0
    2.8990   -8.9200  -25.7490 C   0  0  0  0  0  3  0  0  0  0  0  0
    2.6070  -10.2090  -26.2640 C   0  0  0  0  0  0  0  0  0  0  0  0
    4.4560   -9.8890  -29.5970 C   0  0  0  0  0  0  0  0  0  0  0  0
    4.7210  -11.1750  -29.9620 N   0  0  0  0  0  0  0  0  0  0  0  0
    4.6790   -8.9720  -30.3810 O   0  0  0  0  0  0  0  0  0  0  0  0
    5.0980  -11.3580  -30.8800 H   0  0  0  0  0  0  0  0  0  0  0  0
    4.5510  -11.9440  -29.3210 H   0  0  0  0  0  0  0  0  0  0  0  0
  1  2  2  0  0  0  0
  1  6  1  0  0  0  0
  2  3  1  0  0  0  0
  3  4  2  0  0  0  0
  5  4  1  0  0  0  0
  5  7  1  0  0  0  0
  6  5  2  0  0  0  0
  7 10  1  0  0  0  0
  8  7  1  0  0  0  0
  8  9  2  0  0  0  0
 11  8  1  0  0  0  0
 12 11  2  0  0  0  0
 13 12  1  0  0  0  0
 14 13  2  0  0  0  0
 14 15  1  0  0  0  0
 15 16  1  0  0  0  0
 15 11  1  0  0  0  0
 17 19  1  0  0  0  0
 17 13  1  0  0  0  0
 18 17  1  0  0  0  0
 20 17  1  0  0  0  0
 22 21  1  6  0  0  0
 22  1  1  0  0  0  0
 23 22  1  0  0  0  0
 24 23  1  0  0  0  0
 25 23  1  0  0  0  0
 26 25  1  0  0  0  0
 27 26  2  0  0  0  0
 28 29  2  0  0  0  0
 28 27  1  0  0  0  0
 29 34  1  0  0  0  0
 30 31  2  0  0  0  0
 30 29  1  0  0  0  0
 31 32  1  0  0  0  0
 32 33  2  0  0  0  0
 34 33  1  0  0  0  0
 34 25  2  0  0  0  0
 35 30  1  0  0  0  0
 36 35  1  0  0  0  0
 36 39  1  0  0  0  0
 37 35  2  0  0  0  0
 38 36  1  0  0  0  0
M  END
>  <minimizedAffinity>
-7.48735046

$$$$
