
 OpenBabel10152419313D

 39 42  0  0  1  0  0  0  0  0999 V2000
    3.8220   -9.5430  -28.0850 C   0  0  0  0  0  0  0  0  0  0  0  0
    4.2130  -10.0880  -29.3180 C   0  0  0  0  0  3  0  0  0  0  0  0
    4.4200  -11.4580  -29.4560 C   0  0  0  0  0  3  0  0  0  0  0  0
    4.2740  -12.3010  -28.3540 C   0  0  0  0  0  3  0  0  0  0  0  0
    3.9160  -11.7810  -27.1110 C   0  0  0  0  0  0  0  0  0  0  0  0
    3.6160  -10.4190  -27.0040 C   0  0  0  0  0  3  0  0  0  0  0  0
    3.8040  -12.5590  -25.9450 N   0  0  0  0  0  0  0  0  0  0  0  0
    3.1380  -12.3340  -24.7610 C   0  0  0  0  0  0  0  0  0  0  0  0
    3.5030  -12.9590  -23.7650 O   0  0  0  0  0  0  0  0  0  0  0  0
    4.3140  -13.4340  -25.9300 H   0  0  0  0  0  0  0  0  0  0  0  0
    2.0020  -11.4510  -24.7070 C   0  0  0  0  0  0  0  0  0  0  0  0
    0.7870  -11.4240  -25.3650 C   0  0  0  0  0  3  0  0  0  0  0  0
    0.1160  -10.2640  -24.9000 C   0  0  0  0  0  0  0  0  0  0  0  0
    0.8440   -9.6440  -23.9590 N   0  0  0  0  0  0  0  0  0  0  0  0
    1.9290  -10.4200  -23.8130 N   0  0  0  0  0  0  0  0  0  0  0  0
    2.6140  -10.1760  -23.1050 H   0  0  0  0  0  0  0  0  0  0  0  0
   -1.2030   -9.6740  -25.3720 C   0  0  0  0  0  0  0  0  0  0  0  0
   -0.9800   -8.6520  -26.5060 C   0  0  0  0  0  1  0  0  0  0  0  0
   -2.1100  -10.8080  -25.8950 C   0  0  0  0  0  1  0  0  0  0  0  0
   -1.9460   -8.9520  -24.2290 C   0  0  0  0  0  1  0  0  0  0  0  0
    4.3560   -7.3500  -29.1440 C   0  0  0  0  0  1  0  0  0  0  0  0
    3.6470   -8.0350  -27.9700 C   0  0  1  0  0  3  0  0  0  0  0  0
    2.2620   -7.5760  -27.9270 N   0  0  0  0  0  0  0  0  0  0  0  0
    1.5960   -8.2420  -27.5470 H   0  0  0  0  0  0  0  0  0  0  0  0
    1.7560   -6.3120  -27.7680 C   0  0  0  0  0  0  0  0  0  0  0  0
    1.9820   -5.5800  -28.8720 N   0  0  0  0  0  0  0  0  0  0  0  0
    1.4090   -4.3830  -28.9290 C   0  0  0  0  0  3  0  0  0  0  0  0
    0.6140   -3.8530  -27.9990 N   0  0  0  0  0  0  0  0  0  0  0  0
    0.4170   -4.5520  -26.8590 C   0  0  0  0  0  0  0  0  0  0  0  0
   -0.3970   -4.0500  -25.8220 C   0  0  0  0  0  0  0  0  0  0  0  0
   -0.5570   -4.7520  -24.6120 C   0  0  0  0  0  3  0  0  0  0  0  0
    0.0950   -5.9540  -24.4080 C   0  0  0  0  0  3  0  0  0  0  0  0
    0.8830   -6.4730  -25.4260 C   0  0  0  0  0  3  0  0  0  0  0  0
    1.0280   -5.8110  -26.6720 C   0  0  0  0  0  0  0  0  0  0  0  0
   -1.1530   -2.7600  -25.9170 C   0  0  0  0  0  0  0  0  0  0  0  0
   -0.8590   -1.9050  -26.9360 N   0  0  0  0  0  0  0  0  0  0  0  0
   -2.0280   -2.4690  -25.1080 O   0  0  0  0  0  0  0  0  0  0  0  0
   -1.3690   -1.0370  -27.0140 H   0  0  0  0  0  0  0  0  0  0  0  0
   -0.1300   -2.1270  -27.6090 H   0  0  0  0  0  0  0  0  0  0  0  0
  1 22  1  0  0  0  0
  1  6  1  0  0  0  0
  2  1  2  0  0  0  0
  3  2  1  0  0  0  0
  3  4  2  0  0  0  0
  4  5  1  0  0  0  0
  5  6  2  0  0  0  0
  5  7  1  0  0  0  0
  7 10  1  0  0  0  0
  7  8  1  0  0  0  0
  8 11  1  0  0  0  0
  8  9  2  0  0  0  0
 11 15  1  0  0  0  0
 12 13  1  0  0  0  0
 12 11  2  0  0  0  0
 13 14  2  0  0  0  0
 14 15  1  0  0  0  0
 15 16  1  0  0  0  0
 17 13  1  0  0  0  0
 17 20  1  0  0  0  0
 18 17  1  0  0  0  0
 19 17  1  0  0  0  0
 22 21  1  6  0  0  0
 22 23  1  0  0  0  0
 23 25  1  0  0  0  0
 23 24  1  0  0  0  0
 25 34  1  0  0  0  0
 26 25  2  0  0  0  0
 27 26  1  0  0  0  0
 27 28  2  0  0  0  0
 28 29  1  0  0  0  0
 29 34  2  0  0  0  0
 29 30  1  0  0  0  0
 30 31  2  0  0  0  0
 31 32  1  0  0  0  0
 33 32  2  0  0  0  0
 34 33  1  0  0  0  0
 35 30  1  0  0  0  0
 35 37  2  0  0  0  0
 36 35  1  0  0  0  0
 38 36  1  0  0  0  0
 39 36  1  0  0  0  0
M  END
>  <minimizedAffinity>
-7.21642447

$$$$
