
 OpenBabel10152419313D

 39 42  0  0  1  0  0  0  0  0999 V2000
    3.0430  -10.7140  -26.7900 C   0  0  0  0  0  0  0  0  0  0  0  0
    3.1190  -12.0940  -27.0370 C   0  0  0  0  0  3  0  0  0  0  0  0
    3.7690  -12.5800  -28.1680 C   0  0  0  0  0  3  0  0  0  0  0  0
    4.3230  -11.6920  -29.0900 C   0  0  0  0  0  3  0  0  0  0  0  0
    4.2350  -10.3150  -28.8850 C   0  0  0  0  0  0  0  0  0  0  0  0
    3.6660   -9.8400  -27.6980 C   0  0  0  0  0  3  0  0  0  0  0  0
    4.7210   -9.3600  -29.7950 N   0  0  0  0  0  0  0  0  0  0  0  0
    4.2640   -8.1050  -30.1270 C   0  0  0  0  0  0  0  0  0  0  0  0
    4.6120   -7.6310  -31.2100 O   0  0  0  0  0  0  0  0  0  0  0  0
    5.5330   -9.6220  -30.3400 H   0  0  0  0  0  0  0  0  0  0  0  0
    3.4650   -7.3400  -29.2050 C   0  0  0  0  0  0  0  0  0  0  0  0
    2.1180   -7.0400  -29.1380 C   0  0  0  0  0  3  0  0  0  0  0  0
    1.9600   -6.2000  -28.0060 C   0  0  0  0  0  0  0  0  0  0  0  0
    3.1310   -6.0410  -27.3700 N   0  0  0  0  0  0  0  0  0  0  0  0
    3.9930   -6.7970  -28.0680 N   0  0  0  0  0  0  0  0  0  0  0  0
    4.9500   -6.8780  -27.7400 H   0  0  0  0  0  0  0  0  0  0  0  0
    0.7140   -5.4730  -27.5260 C   0  0  0  0  0  0  0  0  0  0  0  0
   -0.5580   -6.0720  -28.1610 C   0  0  0  0  0  1  0  0  0  0  0  0
    0.6110   -5.5990  -25.9920 C   0  0  0  0  0  1  0  0  0  0  0  0
    0.7550   -3.9730  -27.8840 C   0  0  0  0  0  1  0  0  0  0  0  0
    2.0390   -8.7190  -25.6840 C   0  0  0  0  0  1  0  0  0  0  0  0
    2.2870  -10.2270  -25.5620 C   0  0  1  0  0  3  0  0  0  0  0  0
    1.0120  -10.8920  -25.3180 N   0  0  0  0  0  0  0  0  0  0  0  0
    0.9530  -11.8520  -25.6460 H   0  0  0  0  0  0  0  0  0  0  0  0
    0.1090  -10.7240  -24.3000 C   0  0  0  0  0  0  0  0  0  0  0  0
    0.2830  -11.6720  -23.3640 N   0  0  0  0  0  0  0  0  0  0  0  0
   -0.4130  -11.5450  -22.2400 C   0  0  0  0  0  3  0  0  0  0  0  0
   -1.2520  -10.5500  -21.9500 N   0  0  0  0  0  0  0  0  0  0  0  0
   -1.4800   -9.6150  -22.8990 C   0  0  0  0  0  0  0  0  0  0  0  0
   -2.3670   -8.5410  -22.6730 C   0  0  0  0  0  0  0  0  0  0  0  0
   -2.6470   -7.5990  -23.6800 C   0  0  0  0  0  3  0  0  0  0  0  0
   -2.0630   -7.7120  -24.9280 C   0  0  0  0  0  3  0  0  0  0  0  0
   -1.1710   -8.7500  -25.1610 C   0  0  0  0  0  3  0  0  0  0  0  0
   -0.8350   -9.6890  -24.1520 C   0  0  0  0  0  0  0  0  0  0  0  0
   -3.0660   -8.3080  -21.3690 C   0  0  0  0  0  0  0  0  0  0  0  0
   -2.3350   -8.3530  -20.2190 N   0  0  0  0  0  0  0  0  0  0  0  0
   -4.2690   -8.0720  -21.3190 O   0  0  0  0  0  0  0  0  0  0  0  0
   -2.7950   -8.1880  -19.3360 H   0  0  0  0  0  0  0  0  0  0  0  0
   -1.3400   -8.5570  -20.2420 H   0  0  0  0  0  0  0  0  0  0  0  0
  1 22  1  0  0  0  0
  2  1  1  0  0  0  0
  3  2  2  0  0  0  0
  4  5  2  0  0  0  0
  4  3  1  0  0  0  0
  5  6  1  0  0  0  0
  6  1  2  0  0  0  0
  7  5  1  0  0  0  0
  8  7  1  0  0  0  0
  8 11  1  0  0  0  0
  9  8  2  0  0  0  0
 10  7  1  0  0  0  0
 11 12  2  0  0  0  0
 11 15  1  0  0  0  0
 12 13  1  0  0  0  0
 13 17  1  0  0  0  0
 13 14  2  0  0  0  0
 15 16  1  0  0  0  0
 15 14  1  0  0  0  0
 17 19  1  0  0  0  0
 18 17  1  0  0  0  0
 20 17  1  0  0  0  0
 22 21  1  6  0  0  0
 22 23  1  0  0  0  0
 23 25  1  0  0  0  0
 24 23  1  0  0  0  0
 25 34  2  0  0  0  0
 25 26  1  0  0  0  0
 26 27  2  0  0  0  0
 27 28  1  0  0  0  0
 29 30  1  0  0  0  0
 29 28  2  0  0  0  0
 30 35  1  0  0  0  0
 31 30  2  0  0  0  0
 32 31  1  0  0  0  0
 33 32  2  0  0  0  0
 33 34  1  0  0  0  0
 34 29  1  0  0  0  0
 35 37  2  0  0  0  0
 35 36  1  0  0  0  0
 36 38  1  0  0  0  0
 39 36  1  0  0  0  0
M  END
>  <minimizedAffinity>
-7.47830677

$$$$
