
 OpenBabel11232419203D

 35 39  0  0  1  0  0  0  0  0999 V2000
   41.4490   45.2540   20.8150 O   0  0  0  0  0  0  0  0  0  0  0  0
   39.6710   46.3860   17.7590 C   0  0  0  0  0  0  0  0  0  0  0  0
   40.6280   47.3220   17.3810 C   0  0  0  0  0  3  0  0  0  0  0  0
   41.7960   47.5220   18.0360 N   0  0  0  0  0  0  0  0  0  0  0  0
   42.0290   46.7600   19.1260 C   0  0  0  0  0  3  0  0  0  0  0  0
   41.1330   45.8210   19.6190 C   0  0  0  0  0  0  0  0  0  0  0  0
   39.9680   45.6060   18.8890 C   0  0  0  0  0  3  0  0  0  0  0  0
   34.7660   43.2540   17.5190 C   0  0  0  0  0  1  0  0  0  0  0  0
   35.0950   44.4170   16.6580 C   0  0  0  0  0  0  0  0  0  0  0  0
   34.2250   44.8390   15.7320 N   0  0  0  0  0  0  0  0  0  0  0  0
   34.8340   45.8900   15.1640 N   0  0  0  0  0  0  0  0  0  0  0  0
   36.0660   46.1700   15.6900 C   0  0  0  0  0  0  0  0  0  0  0  0
   36.9960   47.1520   15.4000 C   0  0  0  0  0  3  0  0  0  0  0  0
   38.1550   47.1840   16.1080 N   0  0  0  0  0  0  0  0  0  0  0  0
   38.3760   46.2480   17.0790 C   0  0  0  0  0  0  0  0  0  0  0  0
   37.4670   45.2420   17.4040 C   0  0  0  0  0  3  0  0  0  0  0  0
   36.2710   45.2150   16.6760 C   0  0  0  0  0  0  0  0  0  0  0  0
   34.3450   46.3750   14.4190 H   0  0  0  0  0  0  0  0  0  0  0  0
   41.9580   46.0710   21.8780 C   0  0  0  0  0  2  0  0  0  0  0  0
   41.0710   45.9660   23.1410 C   0  0  1  0  0  3  0  0  0  0  0  0
   41.3590   47.1000   24.0930 N   0  0  0  0  0  4  0  0  0  0  0  0
   41.2280   48.0320   23.6720 H   0  0  0  0  0  0  0  0  0  0  0  0
   40.7760   47.0530   24.9380 H   0  0  0  0  0  0  0  0  0  0  0  0
   42.3380   47.0590   24.4130 H   0  0  0  0  0  0  0  0  0  0  0  0
   39.5690   45.9780   22.8180 C   0  0  0  0  0  2  0  0  0  0  0  0
   38.8820   44.7070   23.1910 C   0  0  0  0  0  0  0  0  0  0  0  0
   38.9430   44.0750   24.4190 C   0  0  0  0  0  3  0  0  0  0  0  0
   38.1780   42.9400   24.3590 N   0  0  0  0  0  0  0  0  0  0  0  0
   37.6080   42.8190   23.1140 C   0  0  0  0  0  0  0  0  0  0  0  0
   36.7540   41.8300   22.6130 C   0  0  0  0  0  3  0  0  0  0  0  0
   36.3060   41.9680   21.2970 C   0  0  0  0  0  3  0  0  0  0  0  0
   36.6970   43.0510   20.5170 C   0  0  0  0  0  3  0  0  0  0  0  0
   37.5550   44.0310   21.0330 C   0  0  0  0  0  3  0  0  0  0  0  0
   38.0240   43.9160   22.3590 C   0  0  0  0  0  0  0  0  0  0  0  0
   38.0330   42.2850   25.1180 H   0  0  0  0  0  0  0  0  0  0  0  0
  1 19  1  0  0  0  0
  2  7  1  0  0  0  0
  3  2  2  0  0  0  0
  3  4  1  0  0  0  0
  4  5  2  0  0  0  0
  5  6  1  0  0  0  0
  6  1  1  0  0  0  0
  7  6  2  0  0  0  0
  9 17  1  0  0  0  0
  9  8  1  0  0  0  0
 10  9  2  0  0  0  0
 11 12  1  0  0  0  0
 11 10  1  0  0  0  0
 12 17  1  0  0  0  0
 13 12  2  0  0  0  0
 13 14  1  0  0  0  0
 14 15  2  0  0  0  0
 15 16  1  0  0  0  0
 15  2  1  0  0  0  0
 17 16  2  0  0  0  0
 18 11  1  0  0  0  0
 20 19  1  6  0  0  0
 20 21  1  0  0  0  0
 21 24  1  0  0  0  0
 21 23  1  0  0  0  0
 22 21  1  0  0  0  0
 25 20  1  0  0  0  0
 25 26  1  0  0  0  0
 26 27  2  0  0  0  0
 28 27  1  0  0  0  0
 28 35  1  0  0  0  0
 29 28  1  0  0  0  0
 30 29  1  0  0  0  0
 31 30  2  0  0  0  0
 32 33  2  0  0  0  0
 32 31  1  0  0  0  0
 33 34  1  0  0  0  0
 34 29  2  0  0  0  0
 34 26  1  0  0  0  0
M  END
>  <minimizedAffinity>
-10.5101929

$$$$
