
 OpenBabel11232419203D

 35 39  0  0  1  0  0  0  0  0999 V2000
   36.1710   44.3900   17.3070 O   0  0  0  0  0  0  0  0  0  0  0  0
   32.6370   43.3790   17.8310 C   0  0  0  0  0  0  0  0  0  0  0  0
   32.9010   42.4860   18.8650 C   0  0  0  0  0  3  0  0  0  0  0  0
   34.1290   42.2800   19.3960 N   0  0  0  0  0  0  0  0  0  0  0  0
   35.1530   42.9890   18.8730 C   0  0  0  0  0  3  0  0  0  0  0  0
   35.0170   43.8790   17.8170 C   0  0  0  0  0  0  0  0  0  0  0  0
   33.7330   44.1060   17.3340 C   0  0  0  0  0  3  0  0  0  0  0  0
   27.5750   40.6800   16.8220 C   0  0  0  0  0  1  0  0  0  0  0  0
   27.9260   42.0550   16.3880 C   0  0  0  0  0  0  0  0  0  0  0  0
   27.0420   42.7950   15.7090 N   0  0  0  0  0  0  0  0  0  0  0  0
   27.6780   43.9560   15.4950 N   0  0  0  0  0  0  0  0  0  0  0  0
   28.9430   43.9990   16.0150 C   0  0  0  0  0  0  0  0  0  0  0  0
   29.9100   44.9890   16.0230 C   0  0  0  0  0  3  0  0  0  0  0  0
   31.0970   44.7400   16.6330 N   0  0  0  0  0  0  0  0  0  0  0  0
   31.3100   43.5230   17.2180 C   0  0  0  0  0  0  0  0  0  0  0  0
   30.3650   42.4970   17.2350 C   0  0  0  0  0  3  0  0  0  0  0  0
   29.1410   42.7590   16.6080 C   0  0  0  0  0  0  0  0  0  0  0  0
   27.1840   44.6810   14.9870 H   0  0  0  0  0  0  0  0  0  0  0  0
   36.5420   44.0940   15.9540 C   0  0  0  0  0  2  0  0  0  0  0  0
   37.3440   45.2580   15.3230 C   0  0  1  0  0  3  0  0  0  0  0  0
   36.7580   45.6520   13.9900 N   0  0  0  0  0  4  0  0  0  0  0  0
   35.7650   45.9240   14.0430 H   0  0  0  0  0  0  0  0  0  0  0  0
   37.2730   46.4280   13.5560 H   0  0  0  0  0  0  0  0  0  0  0  0
   36.8100   44.8630   13.3300 H   0  0  0  0  0  0  0  0  0  0  0  0
   37.3870   46.5060   16.2180 C   0  0  0  0  0  2  0  0  0  0  0  0
   38.7590   46.8210   16.7140 C   0  0  0  0  0  0  0  0  0  0  0  0
   39.6210   47.7650   16.1890 C   0  0  0  0  0  3  0  0  0  0  0  0
   40.7780   47.7500   16.9220 N   0  0  0  0  0  0  0  0  0  0  0  0
   40.6880   46.8150   17.9260 C   0  0  0  0  0  0  0  0  0  0  0  0
   41.6210   46.4670   18.9100 C   0  0  0  0  0  3  0  0  0  0  0  0
   41.2540   45.4810   19.8290 C   0  0  0  0  0  3  0  0  0  0  0  0
   40.0070   44.8680   19.7630 C   0  0  0  0  0  3  0  0  0  0  0  0
   39.0870   45.2260   18.7700 C   0  0  0  0  0  3  0  0  0  0  0  0
   39.4300   46.2190   17.8280 C   0  0  0  0  0  0  0  0  0  0  0  0
   41.5830   48.3440   16.7670 H   0  0  0  0  0  0  0  0  0  0  0  0
  1  6  1  0  0  0  0
  2  3  1  0  0  0  0
  3  4  2  0  0  0  0
  5  4  1  0  0  0  0
  6  5  2  0  0  0  0
  7  6  1  0  0  0  0
  7  2  2  0  0  0  0
  9 17  1  0  0  0  0
  9  8  1  0  0  0  0
 10  9  2  0  0  0  0
 11 10  1  0  0  0  0
 11 12  1  0  0  0  0
 12 13  2  0  0  0  0
 12 17  1  0  0  0  0
 13 14  1  0  0  0  0
 14 15  2  0  0  0  0
 15 16  1  0  0  0  0
 15  2  1  0  0  0  0
 17 16  2  0  0  0  0
 18 11  1  0  0  0  0
 19  1  1  0  0  0  0
 20 19  1  1  0  0  0
 20 25  1  0  0  0  0
 21 22  1  0  0  0  0
 21 20  1  0  0  0  0
 23 21  1  0  0  0  0
 24 21  1  0  0  0  0
 25 26  1  0  0  0  0
 26 34  1  0  0  0  0
 27 26  2  0  0  0  0
 27 28  1  0  0  0  0
 28 29  1  0  0  0  0
 29 30  1  0  0  0  0
 30 31  2  0  0  0  0
 32 31  1  0  0  0  0
 33 32  2  0  0  0  0
 34 29  2  0  0  0  0
 34 33  1  0  0  0  0
 35 28  1  0  0  0  0
M  END
>  <minimizedAffinity>
-10.7539501

$$$$
