
 OpenBabel11232419203D

 35 39  0  0  1  0  0  0  0  0999 V2000
   38.5280   45.0560   22.3100 O   0  0  0  0  0  0  0  0  0  0  0  0
   35.9910   42.9130   20.6500 C   0  0  0  0  0  0  0  0  0  0  0  0
   36.3340   41.7450   21.3240 C   0  0  0  0  0  3  0  0  0  0  0  0
   37.2760   41.6760   22.2930 N   0  0  0  0  0  0  0  0  0  0  0  0
   37.9180   42.8210   22.6110 C   0  0  0  0  0  3  0  0  0  0  0  0
   37.6870   44.0370   21.9830 C   0  0  0  0  0  0  0  0  0  0  0  0
   36.6740   44.0810   21.0300 C   0  0  0  0  0  3  0  0  0  0  0  0
   34.7270   45.4050   15.5390 C   0  0  0  0  0  1  0  0  0  0  0  0
   33.9120   44.3720   16.2250 C   0  0  0  0  0  0  0  0  0  0  0  0
   32.7800   43.9250   15.6680 N   0  0  0  0  0  0  0  0  0  0  0  0
   32.3220   43.0130   16.5380 N   0  0  0  0  0  0  0  0  0  0  0  0
   33.1180   42.8480   17.6390 C   0  0  0  0  0  0  0  0  0  0  0  0
   33.0130   42.0210   18.7430 C   0  0  0  0  0  3  0  0  0  0  0  0
   33.9790   42.0760   19.6960 N   0  0  0  0  0  0  0  0  0  0  0  0
   35.0240   42.9440   19.5450 C   0  0  0  0  0  0  0  0  0  0  0  0
   35.1700   43.7940   18.4490 C   0  0  0  0  0  3  0  0  0  0  0  0
   34.1740   43.7320   17.4670 C   0  0  0  0  0  0  0  0  0  0  0  0
   31.4560   42.5360   16.3130 H   0  0  0  0  0  0  0  0  0  0  0  0
   39.8380   44.7620   22.8140 C   0  0  0  0  0  2  0  0  0  0  0  0
   40.9300   45.5050   22.0070 C   0  0  1  0  0  3  0  0  0  0  0  0
   42.2200   45.5710   22.7870 N   0  0  0  0  0  4  0  0  0  0  0  0
   42.5810   44.6450   23.0610 H   0  0  0  0  0  0  0  0  0  0  0  0
   42.9620   46.0570   22.2670 H   0  0  0  0  0  0  0  0  0  0  0  0
   42.0830   46.1010   23.6600 H   0  0  0  0  0  0  0  0  0  0  0  0
   41.2210   44.8460   20.6510 C   0  0  0  0  0  2  0  0  0  0  0  0
   41.1400   45.8030   19.5080 C   0  0  0  0  0  0  0  0  0  0  0  0
   42.0960   46.7380   19.1570 C   0  0  0  0  0  3  0  0  0  0  0  0
   41.6490   47.4200   18.0550 N   0  0  0  0  0  0  0  0  0  0  0  0
   40.4180   46.9420   17.6720 C   0  0  0  0  0  0  0  0  0  0  0  0
   39.6000   47.3330   16.6060 C   0  0  0  0  0  3  0  0  0  0  0  0
   38.3900   46.6550   16.4360 C   0  0  0  0  0  3  0  0  0  0  0  0
   38.0160   45.6300   17.3000 C   0  0  0  0  0  3  0  0  0  0  0  0
   38.8460   45.2540   18.3640 C   0  0  0  0  0  3  0  0  0  0  0  0
   40.0740   45.9210   18.5580 C   0  0  0  0  0  0  0  0  0  0  0  0
   42.1480   48.1590   17.5750 H   0  0  0  0  0  0  0  0  0  0  0  0
  1 19  1  0  0  0  0
  2  7  2  0  0  0  0
  2  3  1  0  0  0  0
  3  4  2  0  0  0  0
  4  5  1  0  0  0  0
  6  1  1  0  0  0  0
  6  5  2  0  0  0  0
  7  6  1  0  0  0  0
  8  9  1  0  0  0  0
  9 17  1  0  0  0  0
 10  9  2  0  0  0  0
 10 11  1  0  0  0  0
 11 12  1  0  0  0  0
 12 13  1  0  0  0  0
 13 14  2  0  0  0  0
 15 14  1  0  0  0  0
 15  2  1  0  0  0  0
 16 15  2  0  0  0  0
 17 12  2  0  0  0  0
 17 16  1  0  0  0  0
 18 11  1  0  0  0  0
 20 25  1  6  0  0  0
 20 21  1  0  0  0  0
 20 19  1  0  0  0  0
 21 22  1  0  0  0  0
 21 24  1  0  0  0  0
 23 21  1  0  0  0  0
 26 25  1  0  0  0  0
 27 26  2  0  0  0  0
 28 27  1  0  0  0  0
 29 28  1  0  0  0  0
 29 34  1  0  0  0  0
 30 29  2  0  0  0  0
 31 30  1  0  0  0  0
 31 32  2  0  0  0  0
 32 33  1  0  0  0  0
 33 34  2  0  0  0  0
 34 26  1  0  0  0  0
 35 28  1  0  0  0  0
M  END
>  <minimizedAffinity>
-10.774539

$$$$
