
 OpenBabel11232419203D

 35 39  0  0  1  0  0  0  0  0999 V2000
   33.4250   44.6120   16.1290 O   0  0  0  0  0  0  0  0  0  0  0  0
   30.2050   42.8360   16.6410 C   0  0  0  0  0  0  0  0  0  0  0  0
   29.4050   43.8470   16.1180 C   0  0  0  0  0  3  0  0  0  0  0  0
   29.8840   44.9930   15.5780 N   0  0  0  0  0  0  0  0  0  0  0  0
   31.2250   45.1510   15.5590 C   0  0  0  0  0  3  0  0  0  0  0  0
   32.1200   44.2290   16.0840 C   0  0  0  0  0  0  0  0  0  0  0  0
   31.5950   43.0400   16.5800 C   0  0  0  0  0  3  0  0  0  0  0  0
   31.5780   37.7150   19.0510 C   0  0  0  0  0  1  0  0  0  0  0  0
   30.2070   38.2640   18.9040 C   0  0  0  0  0  0  0  0  0  0  0  0
   29.1520   37.5730   19.3520 N   0  0  0  0  0  0  0  0  0  0  0  0
   28.1020   38.3570   19.0670 N   0  0  0  0  0  0  0  0  0  0  0  0
   28.4370   39.5330   18.4540 C   0  0  0  0  0  0  0  0  0  0  0  0
   27.6730   40.5990   18.0120 C   0  0  0  0  0  3  0  0  0  0  0  0
   28.2980   41.6560   17.4320 N   0  0  0  0  0  0  0  0  0  0  0  0
   29.6580   41.6410   17.2940 C   0  0  0  0  0  0  0  0  0  0  0  0
   30.4660   40.5890   17.7260 C   0  0  0  0  0  3  0  0  0  0  0  0
   29.8180   39.5030   18.3270 C   0  0  0  0  0  0  0  0  0  0  0  0
   27.1790   38.0240   19.3250 H   0  0  0  0  0  0  0  0  0  0  0  0
   33.9430   45.2360   17.3120 C   0  0  0  0  0  2  0  0  0  0  0  0
   35.3020   44.6200   17.7230 C   0  0  1  0  0  3  0  0  0  0  0  0
   35.1120   43.2340   18.2880 N   0  0  0  0  0  4  0  0  0  0  0  0
   34.6370   42.5880   17.6390 H   0  0  0  0  0  0  0  0  0  0  0  0
   36.0030   42.8030   18.5630 H   0  0  0  0  0  0  0  0  0  0  0  0
   34.5320   43.2710   19.1390 H   0  0  0  0  0  0  0  0  0  0  0  0
   36.2950   44.5320   16.5550 C   0  0  0  0  0  2  0  0  0  0  0  0
   37.3710   45.5640   16.6250 C   0  0  0  0  0  0  0  0  0  0  0  0
   37.4250   46.7380   15.8980 C   0  0  0  0  0  3  0  0  0  0  0  0
   38.5670   47.4110   16.2470 N   0  0  0  0  0  0  0  0  0  0  0  0
   39.2610   46.7010   17.1970 C   0  0  0  0  0  0  0  0  0  0  0  0
   40.4650   47.0070   17.8420 C   0  0  0  0  0  3  0  0  0  0  0  0
   40.9400   46.1010   18.7930 C   0  0  0  0  0  3  0  0  0  0  0  0
   40.2380   44.9360   19.0840 C   0  0  0  0  0  3  0  0  0  0  0  0
   39.0360   44.6420   18.4280 C   0  0  0  0  0  3  0  0  0  0  0  0
   38.5330   45.5400   17.4630 C   0  0  0  0  0  0  0  0  0  0  0  0
   38.8610   48.3070   15.8770 H   0  0  0  0  0  0  0  0  0  0  0  0
  1 19  1  0  0  0  0
  2 15  1  0  0  0  0
  3  2  2  0  0  0  0
  4  3  1  0  0  0  0
  5  4  2  0  0  0  0
  5  6  1  0  0  0  0
  6  1  1  0  0  0  0
  6  7  2  0  0  0  0
  7  2  1  0  0  0  0
  9  8  1  0  0  0  0
  9 10  2  0  0  0  0
 11 18  1  0  0  0  0
 11 10  1  0  0  0  0
 12 11  1  0  0  0  0
 13 12  2  0  0  0  0
 14 13  1  0  0  0  0
 15 14  2  0  0  0  0
 15 16  1  0  0  0  0
 16 17  2  0  0  0  0
 17 12  1  0  0  0  0
 17  9  1  0  0  0  0
 20 19  1  6  0  0  0
 20 25  1  0  0  0  0
 20 21  1  0  0  0  0
 21 23  1  0  0  0  0
 21 24  1  0  0  0  0
 22 21  1  0  0  0  0
 25 26  1  0  0  0  0
 26 34  1  0  0  0  0
 27 28  1  0  0  0  0
 27 26  2  0  0  0  0
 28 29  1  0  0  0  0
 29 34  2  0  0  0  0
 29 30  1  0  0  0  0
 30 31  2  0  0  0  0
 31 32  1  0  0  0  0
 33 32  2  0  0  0  0
 34 33  1  0  0  0  0
 35 28  1  0  0  0  0
M  END
>  <minimizedAffinity>
-10.0156727

$$$$
