
 OpenBabel11232419203D

 35 39  0  0  1  0  0  0  0  0999 V2000
   35.3050   45.3970   16.4860 O   0  0  0  0  0  0  0  0  0  0  0  0
   33.4030   42.9160   18.4890 C   0  0  0  0  0  0  0  0  0  0  0  0
   34.2250   42.9830   19.6100 C   0  0  0  0  0  3  0  0  0  0  0  0
   35.2810   43.8230   19.7280 N   0  0  0  0  0  0  0  0  0  0  0  0
   35.5410   44.6360   18.6820 C   0  0  0  0  0  3  0  0  0  0  0  0
   34.8150   44.6320   17.4990 C   0  0  0  0  0  0  0  0  0  0  0  0
   33.7060   43.7950   17.4350 C   0  0  0  0  0  3  0  0  0  0  0  0
   28.3280   41.8230   15.8490 C   0  0  0  0  0  1  0  0  0  0  0  0
   29.0080   40.9330   16.8220 C   0  0  0  0  0  0  0  0  0  0  0  0
   28.4630   39.7580   17.1580 N   0  0  0  0  0  0  0  0  0  0  0  0
   29.3330   39.2280   18.0300 N   0  0  0  0  0  0  0  0  0  0  0  0
   30.4270   40.0140   18.2690 C   0  0  0  0  0  0  0  0  0  0  0  0
   31.5370   39.8380   19.0760 C   0  0  0  0  0  3  0  0  0  0  0  0
   32.4830   40.8110   19.1090 N   0  0  0  0  0  0  0  0  0  0  0  0
   32.3160   41.9380   18.3530 C   0  0  0  0  0  0  0  0  0  0  0  0
   31.2140   42.1570   17.5260 C   0  0  0  0  0  3  0  0  0  0  0  0
   30.2430   41.1490   17.4920 C   0  0  0  0  0  0  0  0  0  0  0  0
   29.1170   38.3180   18.4220 H   0  0  0  0  0  0  0  0  0  0  0  0
   36.0280   44.7780   15.4130 C   0  0  0  0  0  2  0  0  0  0  0  0
   37.3150   45.5670   15.0740 C   0  0  1  0  0  3  0  0  0  0  0  0
   37.3730   45.8900   13.6020 N   0  0  0  0  0  4  0  0  0  0  0  0
   36.5570   46.4250   13.2670 H   0  0  0  0  0  0  0  0  0  0  0  0
   38.2180   46.4200   13.3550 H   0  0  0  0  0  0  0  0  0  0  0  0
   37.4010   45.0230   13.0460 H   0  0  0  0  0  0  0  0  0  0  0  0
   37.4330   46.8820   15.8600 C   0  0  0  0  0  2  0  0  0  0  0  0
   38.7850   47.0840   16.4600 C   0  0  0  0  0  0  0  0  0  0  0  0
   39.7370   47.9930   16.0400 C   0  0  0  0  0  3  0  0  0  0  0  0
   40.8390   47.8680   16.8460 N   0  0  0  0  0  0  0  0  0  0  0  0
   40.6220   46.8960   17.7940 C   0  0  0  0  0  0  0  0  0  0  0  0
   41.4620   46.4430   18.8180 C   0  0  0  0  0  3  0  0  0  0  0  0
   40.9730   45.4410   19.6600 C   0  0  0  0  0  3  0  0  0  0  0  0
   39.6970   44.9150   19.4810 C   0  0  0  0  0  3  0  0  0  0  0  0
   38.8710   45.3770   18.4490 C   0  0  0  0  0  3  0  0  0  0  0  0
   39.3400   46.3890   17.5840 C   0  0  0  0  0  0  0  0  0  0  0  0
   41.6880   48.4150   16.7740 H   0  0  0  0  0  0  0  0  0  0  0  0
  1  6  1  0  0  0  0
  2  3  1  0  0  0  0
  3  4  2  0  0  0  0
  5  4  1  0  0  0  0
  6  5  2  0  0  0  0
  7  6  1  0  0  0  0
  7  2  2  0  0  0  0
  8  9  1  0  0  0  0
  9 10  2  0  0  0  0
  9 17  1  0  0  0  0
 10 11  1  0  0  0  0
 11 12  1  0  0  0  0
 11 18  1  0  0  0  0
 12 13  1  0  0  0  0
 13 14  2  0  0  0  0
 15  2  1  0  0  0  0
 15 14  1  0  0  0  0
 16 15  2  0  0  0  0
 17 16  1  0  0  0  0
 17 12  2  0  0  0  0
 19  1  1  0  0  0  0
 20 19  1  6  0  0  0
 20 25  1  0  0  0  0
 21 20  1  0  0  0  0
 22 21  1  0  0  0  0
 23 21  1  0  0  0  0
 24 21  1  0  0  0  0
 25 26  1  0  0  0  0
 26 34  1  0  0  0  0
 27 26  2  0  0  0  0
 27 28  1  0  0  0  0
 28 29  1  0  0  0  0
 29 30  1  0  0  0  0
 30 31  2  0  0  0  0
 32 31  1  0  0  0  0
 33 32  2  0  0  0  0
 34 29  2  0  0  0  0
 34 33  1  0  0  0  0
 35 28  1  0  0  0  0
M  END
>  <minimizedAffinity>
-10.2298765

$$$$
