
 OpenBabel11232419203D

 35 39  0  0  1  0  0  0  0  0999 V2000
   35.6350   45.0920   15.9630 O   0  0  0  0  0  0  0  0  0  0  0  0
   35.4220   43.1660   19.1300 C   0  0  0  0  0  0  0  0  0  0  0  0
   34.1830   42.5930   18.8600 C   0  0  0  0  0  3  0  0  0  0  0  0
   33.4990   42.7690   17.7050 N   0  0  0  0  0  0  0  0  0  0  0  0
   34.0680   43.5580   16.7670 C   0  0  0  0  0  3  0  0  0  0  0  0
   35.2810   44.2100   16.9380 C   0  0  0  0  0  0  0  0  0  0  0  0
   35.9790   43.9630   18.1150 C   0  0  0  0  0  3  0  0  0  0  0  0
   38.8780   45.8540   22.9710 C   0  0  0  0  0  1  0  0  0  0  0  0
   38.3390   44.4780   23.1040 C   0  0  0  0  0  0  0  0  0  0  0  0
   38.6300   43.7410   24.1830 N   0  0  0  0  0  0  0  0  0  0  0  0
   37.9820   42.5850   23.9760 N   0  0  0  0  0  0  0  0  0  0  0  0
   37.2780   42.5460   22.8040 C   0  0  0  0  0  0  0  0  0  0  0  0
   36.4850   41.5670   22.2300 C   0  0  0  0  0  3  0  0  0  0  0  0
   35.8970   41.8200   21.0320 N   0  0  0  0  0  0  0  0  0  0  0  0
   36.1040   43.0260   20.4230 C   0  0  0  0  0  0  0  0  0  0  0  0
   36.8930   44.0400   20.9650 C   0  0  0  0  0  3  0  0  0  0  0  0
   37.4950   43.7770   22.2020 C   0  0  0  0  0  0  0  0  0  0  0  0
   38.0630   41.8630   24.6840 H   0  0  0  0  0  0  0  0  0  0  0  0
   36.6440   44.7310   15.0100 C   0  0  0  0  0  2  0  0  0  0  0  0
   37.6810   45.8660   14.8340 C   0  0  1  0  0  3  0  0  0  0  0  0
   37.4450   46.6110   13.5440 N   0  0  0  0  0  4  0  0  0  0  0  0
   36.4980   47.0130   13.4690 H   0  0  0  0  0  0  0  0  0  0  0  0
   38.1210   47.3740   13.4090 H   0  0  0  0  0  0  0  0  0  0  0  0
   37.5590   45.9780   12.7390 H   0  0  0  0  0  0  0  0  0  0  0  0
   37.6560   46.8800   15.9870 C   0  0  0  0  0  2  0  0  0  0  0  0
   39.0050   47.1260   16.5780 C   0  0  0  0  0  0  0  0  0  0  0  0
   39.9250   48.0650   16.1510 C   0  0  0  0  0  3  0  0  0  0  0  0
   41.0360   47.9760   16.9490 N   0  0  0  0  0  0  0  0  0  0  0  0
   40.8580   46.9980   17.8980 C   0  0  0  0  0  0  0  0  0  0  0  0
   41.7180   46.5720   18.9160 C   0  0  0  0  0  3  0  0  0  0  0  0
   41.2680   45.5550   19.7620 C   0  0  0  0  0  3  0  0  0  0  0  0
   40.0080   44.9880   19.5930 C   0  0  0  0  0  3  0  0  0  0  0  0
   39.1610   45.4240   18.5660 C   0  0  0  0  0  3  0  0  0  0  0  0
   39.5900   46.4490   17.6970 C   0  0  0  0  0  0  0  0  0  0  0  0
   41.8660   48.5500   16.8710 H   0  0  0  0  0  0  0  0  0  0  0  0
  1  6  1  0  0  0  0
  2 15  1  0  0  0  0
  3  2  1  0  0  0  0
  4  3  2  0  0  0  0
  5  6  2  0  0  0  0
  5  4  1  0  0  0  0
  6  7  1  0  0  0  0
  7  2  2  0  0  0  0
  8  9  1  0  0  0  0
  9 10  2  0  0  0  0
 11 10  1  0  0  0  0
 11 18  1  0  0  0  0
 12 11  1  0  0  0  0
 13 12  1  0  0  0  0
 14 13  2  0  0  0  0
 15 16  2  0  0  0  0
 15 14  1  0  0  0  0
 16 17  1  0  0  0  0
 17 12  2  0  0  0  0
 17  9  1  0  0  0  0
 19  1  1  0  0  0  0
 20 19  1  1  0  0  0
 20 25  1  0  0  0  0
 21 20  1  0  0  0  0
 22 21  1  0  0  0  0
 23 21  1  0  0  0  0
 24 21  1  0  0  0  0
 25 26  1  0  0  0  0
 26 34  1  0  0  0  0
 27 26  2  0  0  0  0
 27 28  1  0  0  0  0
 28 29  1  0  0  0  0
 29 30  1  0  0  0  0
 30 31  2  0  0  0  0
 32 31  1  0  0  0  0
 33 32  2  0  0  0  0
 34 29  2  0  0  0  0
 34 33  1  0  0  0  0
 35 28  1  0  0  0  0
M  END
>  <minimizedAffinity>
-11.2341385

$$$$
