
 OpenBabel11232419203D

 35 39  0  0  1  0  0  0  0  0999 V2000
   33.0370   43.5450   17.1710 O   0  0  0  0  0  0  0  0  0  0  0  0
   36.3990   43.9880   18.6820 C   0  0  0  0  0  0  0  0  0  0  0  0
   36.1520   43.2010   19.8030 C   0  0  0  0  0  3  0  0  0  0  0  0
   35.0000   42.5230   20.0160 N   0  0  0  0  0  0  0  0  0  0  0  0
   34.0370   42.6330   19.0750 C   0  0  0  0  0  3  0  0  0  0  0  0
   34.1560   43.4170   17.9360 C   0  0  0  0  0  0  0  0  0  0  0  0
   35.3740   44.0550   17.7240 C   0  0  0  0  0  3  0  0  0  0  0  0
   39.0550   47.9490   15.3380 C   0  0  0  0  0  1  0  0  0  0  0  0
   39.6250   47.3190   16.5550 C   0  0  0  0  0  0  0  0  0  0  0  0
   40.8490   47.6550   16.9790 N   0  0  0  0  0  0  0  0  0  0  0  0
   41.0300   46.9150   18.0830 N   0  0  0  0  0  0  0  0  0  0  0  0
   39.9660   46.1140   18.3940 C   0  0  0  0  0  0  0  0  0  0  0  0
   39.7470   45.2250   19.4310 C   0  0  0  0  0  3  0  0  0  0  0  0
   38.5640   44.5590   19.4840 N   0  0  0  0  0  0  0  0  0  0  0  0
   37.6250   44.7780   18.5160 C   0  0  0  0  0  0  0  0  0  0  0  0
   37.8030   45.6650   17.4540 C   0  0  0  0  0  3  0  0  0  0  0  0
   39.0220   46.3530   17.4050 C   0  0  0  0  0  0  0  0  0  0  0  0
   41.9090   47.0120   18.5790 H   0  0  0  0  0  0  0  0  0  0  0  0
   32.8140   44.7530   16.4330 C   0  0  0  0  0  2  0  0  0  0  0  0
   31.3030   45.0280   16.2470 C   0  0  1  0  0  3  0  0  0  0  0  0
   31.0810   46.3410   15.5380 N   0  0  0  0  0  4  0  0  0  0  0  0
   31.5430   46.3940   14.6180 H   0  0  0  0  0  0  0  0  0  0  0  0
   30.0820   46.5410   15.3990 H   0  0  0  0  0  0  0  0  0  0  0  0
   31.4570   47.1190   16.1000 H   0  0  0  0  0  0  0  0  0  0  0  0
   30.5900   43.9250   15.4500 C   0  0  0  0  0  2  0  0  0  0  0  0
   29.3670   43.4100   16.1340 C   0  0  0  0  0  0  0  0  0  0  0  0
   28.1670   44.0810   16.2760 C   0  0  0  0  0  3  0  0  0  0  0  0
   27.2980   43.2720   16.9610 N   0  0  0  0  0  0  0  0  0  0  0  0
   27.9050   42.0770   17.2640 C   0  0  0  0  0  0  0  0  0  0  0  0
   27.3970   40.9610   17.9400 C   0  0  0  0  0  3  0  0  0  0  0  0
   28.2400   39.8590   18.0950 C   0  0  0  0  0  3  0  0  0  0  0  0
   29.5380   39.8740   17.5940 C   0  0  0  0  0  3  0  0  0  0  0  0
   30.0320   40.9990   16.9230 C   0  0  0  0  0  3  0  0  0  0  0  0
   29.2020   42.1280   16.7520 C   0  0  0  0  0  0  0  0  0  0  0  0
   26.3420   43.5030   17.2020 H   0  0  0  0  0  0  0  0  0  0  0  0
  1  6  1  0  0  0  0
  2  3  1  0  0  0  0
  3  4  2  0  0  0  0
  5  4  1  0  0  0  0
  6  5  2  0  0  0  0
  7  6  1  0  0  0  0
  7  2  2  0  0  0  0
  8  9  1  0  0  0  0
  9 10  2  0  0  0  0
  9 17  1  0  0  0  0
 10 11  1  0  0  0  0
 11 12  1  0  0  0  0
 11 18  1  0  0  0  0
 12 13  1  0  0  0  0
 13 14  2  0  0  0  0
 15  2  1  0  0  0  0
 15 14  1  0  0  0  0
 16 15  2  0  0  0  0
 17 16  1  0  0  0  0
 17 12  2  0  0  0  0
 19  1  1  0  0  0  0
 20 25  1  6  0  0  0
 20 19  1  0  0  0  0
 21 24  1  0  0  0  0
 21 20  1  0  0  0  0
 22 21  1  0  0  0  0
 23 21  1  0  0  0  0
 25 26  1  0  0  0  0
 26 27  2  0  0  0  0
 26 34  1  0  0  0  0
 27 28  1  0  0  0  0
 28 35  1  0  0  0  0
 28 29  1  0  0  0  0
 29 30  1  0  0  0  0
 30 31  2  0  0  0  0
 32 31  1  0  0  0  0
 33 32  2  0  0  0  0
 34 33  1  0  0  0  0
 34 29  2  0  0  0  0
M  END
>  <minimizedAffinity>
-10.1764555

$$$$
