
 OpenBabel11232419203D

 35 39  0  0  1  0  0  0  0  0999 V2000
   40.9560   45.1450   21.1320 O   0  0  0  0  0  0  0  0  0  0  0  0
   39.5050   46.1720   17.8720 C   0  0  0  0  0  0  0  0  0  0  0  0
   40.5630   46.9970   17.5030 C   0  0  0  0  0  3  0  0  0  0  0  0
   41.6930   47.1550   18.2320 N   0  0  0  0  0  0  0  0  0  0  0  0
   41.7810   46.4640   19.3890 C   0  0  0  0  0  3  0  0  0  0  0  0
   40.7760   45.6410   19.8770 C   0  0  0  0  0  0  0  0  0  0  0  0
   39.6530   45.4610   19.0750 C   0  0  0  0  0  3  0  0  0  0  0  0
   37.0170   47.3310   12.7350 C   0  0  0  0  0  1  0  0  0  0  0  0
   36.3440   46.7150   13.9050 C   0  0  0  0  0  0  0  0  0  0  0  0
   35.0540   46.3640   13.8340 N   0  0  0  0  0  0  0  0  0  0  0  0
   34.7880   45.8420   15.0400 N   0  0  0  0  0  0  0  0  0  0  0  0
   35.8590   45.8380   15.8910 C   0  0  0  0  0  0  0  0  0  0  0  0
   36.0080   45.3920   17.1930 C   0  0  0  0  0  3  0  0  0  0  0  0
   37.2190   45.5180   17.7930 N   0  0  0  0  0  0  0  0  0  0  0  0
   38.2560   46.0840   17.1050 C   0  0  0  0  0  0  0  0  0  0  0  0
   38.1510   46.5460   15.7930 C   0  0  0  0  0  3  0  0  0  0  0  0
   36.9020   46.4100   15.1760 C   0  0  0  0  0  0  0  0  0  0  0  0
   33.8480   45.5030   15.2130 H   0  0  0  0  0  0  0  0  0  0  0  0
   41.5620   45.9650   22.1400 C   0  0  0  0  0  2  0  0  0  0  0  0
   40.6430   46.1070   23.3770 C   0  0  1  0  0  3  0  0  0  0  0  0
   40.8850   47.4220   24.0750 N   0  0  0  0  0  4  0  0  0  0  0  0
   40.7500   48.2420   23.4650 H   0  0  0  0  0  0  0  0  0  0  0  0
   40.2810   47.5400   24.8980 H   0  0  0  0  0  0  0  0  0  0  0  0
   41.8550   47.4710   24.4190 H   0  0  0  0  0  0  0  0  0  0  0  0
   39.1510   46.0170   23.0240 C   0  0  0  0  0  2  0  0  0  0  0  0
   38.5610   44.6780   23.3180 C   0  0  0  0  0  0  0  0  0  0  0  0
   38.6680   43.9820   24.5080 C   0  0  0  0  0  3  0  0  0  0  0  0
   37.9920   42.7970   24.3770 N   0  0  0  0  0  0  0  0  0  0  0  0
   37.4360   42.7060   23.1230 C   0  0  0  0  0  0  0  0  0  0  0  0
   36.6620   41.6860   22.5600 C   0  0  0  0  0  3  0  0  0  0  0  0
   36.2070   41.8650   21.2520 C   0  0  0  0  0  3  0  0  0  0  0  0
   36.5160   43.0180   20.5380 C   0  0  0  0  0  3  0  0  0  0  0  0
   37.2960   44.0290   21.1150 C   0  0  0  0  0  3  0  0  0  0  0  0
   37.7690   43.8740   22.4350 C   0  0  0  0  0  0  0  0  0  0  0  0
   37.8950   42.0900   25.0960 H   0  0  0  0  0  0  0  0  0  0  0  0
  1 19  1  0  0  0  0
  2  7  1  0  0  0  0
  3  2  2  0  0  0  0
  3  4  1  0  0  0  0
  4  5  2  0  0  0  0
  5  6  1  0  0  0  0
  6  1  1  0  0  0  0
  7  6  2  0  0  0  0
  8  9  1  0  0  0  0
  9 17  1  0  0  0  0
 10  9  2  0  0  0  0
 10 11  1  0  0  0  0
 11 18  1  0  0  0  0
 11 12  1  0  0  0  0
 12 13  1  0  0  0  0
 13 14  2  0  0  0  0
 15 14  1  0  0  0  0
 15  2  1  0  0  0  0
 16 15  2  0  0  0  0
 17 16  1  0  0  0  0
 17 12  2  0  0  0  0
 20 19  1  6  0  0  0
 20 21  1  0  0  0  0
 21 24  1  0  0  0  0
 21 23  1  0  0  0  0
 22 21  1  0  0  0  0
 25 26  1  0  0  0  0
 25 20  1  0  0  0  0
 26 27  2  0  0  0  0
 28 27  1  0  0  0  0
 28 35  1  0  0  0  0
 29 28  1  0  0  0  0
 30 29  1  0  0  0  0
 31 30  2  0  0  0  0
 32 33  2  0  0  0  0
 32 31  1  0  0  0  0
 33 34  1  0  0  0  0
 34 29  2  0  0  0  0
 34 26  1  0  0  0  0
M  END
>  <minimizedAffinity>
-10.1790152

$$$$
