
 OpenBabel11232420013D

 40 45  0  0  1  0  0  0  0  0999 V2000
   -6.0810   -4.9580   11.4480 C   0  0  0  0  0  0  0  0  0  0  0  0
   -5.7100   -4.1760   10.3650 C   0  0  0  0  0  3  0  0  0  0  0  0
   -5.6890   -4.6330    9.0950 N   0  0  0  0  0  0  0  0  0  0  0  0
   -6.0580   -5.9240    8.8980 C   0  0  0  0  0  3  0  0  0  0  0  0
   -6.4730   -6.7810    9.9130 C   0  0  0  0  0  0  0  0  0  0  0  0
   -6.5120   -6.2570   11.2110 C   0  0  0  0  0  3  0  0  0  0  0  0
   -6.7400   -8.2020    9.6930 C   0  0  0  0  0  0  0  0  0  0  0  0
   -5.7110   -9.0880    9.2960 C   0  0  0  0  0  3  0  0  0  0  0  0
   -5.9880  -10.4140    8.9420 C   0  0  0  0  0  3  0  0  0  0  0  0
   -7.3050  -10.8190    8.9790 C   0  0  0  0  0  0  0  0  0  0  0  0
   -8.3350   -9.9730    9.3790 C   0  0  0  0  0  0  0  0  0  0  0  0
   -8.0640   -8.6710    9.7630 C   0  0  0  0  0  3  0  0  0  0  0  0
   -9.6560  -10.7010    9.2980 C   0  0  2  0  0  3  0  0  0  0  0  0
   -9.2050  -12.0850    8.7670 C   0  0  0  0  0  0  0  0  0  0  0  0
   -9.9080  -13.0540    8.5200 O   0  0  0  0  0  0  0  0  0  0  0  0
   -7.8190  -12.0540    8.6280 N   0  0  0  0  0  0  0  0  0  0  0  0
   -7.2900  -12.8470    8.2960 H   0  0  0  0  0  0  0  0  0  0  0  0
  -10.6780  -10.1040    8.3870 C   0  0  0  0  0  0  0  0  0  0  0  0
  -12.0560  -10.2050    8.3260 C   0  0  0  0  0  3  0  0  0  0  0  0
  -12.4840   -9.3490    7.2840 C   0  0  0  0  0  3  0  0  0  0  0  0
  -11.3480   -8.7690    6.7740 C   0  0  0  0  0  3  0  0  0  0  0  0
  -10.2510   -9.2190    7.4310 O   0  0  0  0  0  0  0  0  0  0  0  0
   -6.0550   -4.5380   12.7450 O   0  0  0  0  0  0  0  0  0  0  0  0
   -4.7200   -4.4930   13.2910 C   0  0  0  0  0  2  0  0  0  0  0  0
   -4.7660   -5.1540   14.6840 C   0  0  1  0  0  3  0  0  0  0  0  0
   -5.0150   -4.0620   15.6980 N   0  0  0  0  0  4  0  0  0  0  0  0
   -4.2260   -3.4030   15.7430 H   0  0  0  0  0  0  0  0  0  0  0  0
   -5.1830   -4.4250   16.6450 H   0  0  0  0  0  0  0  0  0  0  0  0
   -5.8380   -3.5120   15.4070 H   0  0  0  0  0  0  0  0  0  0  0  0
   -5.8830   -6.2080   14.8180 C   0  0  0  0  0  2  0  0  0  0  0  0
   -5.4770   -7.5350   14.2600 C   0  0  0  0  0  0  0  0  0  0  0  0
   -4.1770   -7.9830   14.1100 C   0  0  0  0  0  3  0  0  0  0  0  0
   -4.2130   -9.2400   13.5670 N   0  0  0  0  0  0  0  0  0  0  0  0
   -5.5150   -9.6240   13.3520 C   0  0  0  0  0  0  0  0  0  0  0  0
   -6.0200  -10.8140   12.8130 C   0  0  0  0  0  3  0  0  0  0  0  0
   -7.4060  -10.9480   12.7230 C   0  0  0  0  0  3  0  0  0  0  0  0
   -8.2520   -9.9350   13.1630 C   0  0  0  0  0  3  0  0  0  0  0  0
   -7.7290   -8.7550   13.7020 C   0  0  0  0  0  3  0  0  0  0  0  0
   -6.3330   -8.5850   13.7930 C   0  0  0  0  0  0  0  0  0  0  0  0
   -3.4070   -9.8160   13.3580 H   0  0  0  0  0  0  0  0  0  0  0  0
  1 23  1  0  0  0  0
  2  1  2  0  0  0  0
  3  2  1  0  0  0  0
  4  3  2  0  0  0  0
  4  5  1  0  0  0  0
  5  6  2  0  0  0  0
  6  1  1  0  0  0  0
  7 12  1  0  0  0  0
  7  5  1  0  0  0  0
  8  7  2  0  0  0  0
  9 10  2  0  0  0  0
  9  8  1  0  0  0  0
 10 11  1  0  0  0  0
 11 12  2  0  0  0  0
 13 18  1  6  0  0  0
 13 11  1  0  0  0  0
 14 13  1  0  0  0  0
 15 14  2  0  0  0  0
 16 14  1  0  0  0  0
 16 10  1  0  0  0  0
 17 16  1  0  0  0  0
 19 18  2  0  0  0  0
 20 19  1  0  0  0  0
 21 20  2  0  0  0  0
 21 22  1  0  0  0  0
 22 18  1  0  0  0  0
 23 24  1  0  0  0  0
 25 24  1  6  0  0  0
 25 30  1  0  0  0  0
 25 26  1  0  0  0  0
 26 27  1  0  0  0  0
 26 28  1  0  0  0  0
 29 26  1  0  0  0  0
 31 30  1  0  0  0  0
 32 31  2  0  0  0  0
 33 32  1  0  0  0  0
 34 33  1  0  0  0  0
 34 39  1  0  0  0  0
 35 34  2  0  0  0  0
 36 35  1  0  0  0  0
 36 37  2  0  0  0  0
 37 38  1  0  0  0  0
 38 39  2  0  0  0  0
 39 31  1  0  0  0  0
 40 33  1  0  0  0  0
M  END
>  <minimizedAffinity>
-5.41888046

$$$$
