
 OpenBabel11232420013D

 40 45  0  0  1  0  0  0  0  0999 V2000
   -3.0190  -10.3260   16.1850 C   0  0  0  0  0  0  0  0  0  0  0  0
   -3.8830  -11.0840   16.9610 C   0  0  0  0  0  3  0  0  0  0  0  0
   -5.2160  -11.1320   16.7540 N   0  0  0  0  0  0  0  0  0  0  0  0
   -5.7070  -10.3950   15.7260 C   0  0  0  0  0  3  0  0  0  0  0  0
   -4.9210   -9.6250   14.8720 C   0  0  0  0  0  0  0  0  0  0  0  0
   -3.5400   -9.6300   15.1020 C   0  0  0  0  0  3  0  0  0  0  0  0
   -5.4870   -8.7400   13.8550 C   0  0  0  0  0  0  0  0  0  0  0  0
   -6.4440   -7.7540   14.1920 C   0  0  0  0  0  3  0  0  0  0  0  0
   -7.0960   -7.0050   13.2050 C   0  0  0  0  0  3  0  0  0  0  0  0
   -6.7820   -7.2770   11.8910 C   0  0  0  0  0  0  0  0  0  0  0  0
   -5.8350   -8.2310   11.5320 C   0  0  0  0  0  0  0  0  0  0  0  0
   -5.1620   -8.9510   12.5030 C   0  0  0  0  0  3  0  0  0  0  0  0
   -5.7280   -8.3050   10.0260 C   0  0  2  0  0  3  0  0  0  0  0  0
   -6.7840   -7.2550    9.5980 C   0  0  0  0  0  0  0  0  0  0  0  0
   -7.0950   -6.9310    8.4610 O   0  0  0  0  0  0  0  0  0  0  0  0
   -7.3300   -6.7060   10.7560 N   0  0  0  0  0  0  0  0  0  0  0  0
   -8.0440   -5.9920   10.7330 H   0  0  0  0  0  0  0  0  0  0  0  0
   -6.0370   -9.6310    9.4120 C   0  0  0  0  0  0  0  0  0  0  0  0
   -7.2180  -10.3240    9.2200 C   0  0  0  0  0  3  0  0  0  0  0  0
   -6.8890  -11.5070    8.5150 C   0  0  0  0  0  3  0  0  0  0  0  0
   -5.5310  -11.4650    8.3100 C   0  0  0  0  0  3  0  0  0  0  0  0
   -5.0060  -10.3370    8.8500 O   0  0  0  0  0  0  0  0  0  0  0  0
   -1.6790  -10.2160   16.4110 O   0  0  0  0  0  0  0  0  0  0  0  0
   -0.8970  -10.3450   15.2050 C   0  0  0  0  0  2  0  0  0  0  0  0
    0.1200   -9.1850   15.1860 C   0  0  1  0  0  3  0  0  0  0  0  0
    1.4680   -9.7670   14.8310 N   0  0  0  0  0  4  0  0  0  0  0  0
    1.8070  -10.4050   15.5640 H   0  0  0  0  0  0  0  0  0  0  0  0
    2.1870   -9.0480   14.6770 H   0  0  0  0  0  0  0  0  0  0  0  0
    1.3770  -10.3320   13.9720 H   0  0  0  0  0  0  0  0  0  0  0  0
   -0.2260   -8.0920   14.1550 C   0  0  0  0  0  2  0  0  0  0  0  0
   -1.2060   -7.0990   14.6940 C   0  0  0  0  0  0  0  0  0  0  0  0
   -1.3080   -6.7000   16.0140 C   0  0  0  0  0  3  0  0  0  0  0  0
   -2.3200   -5.7810   16.1110 N   0  0  0  0  0  0  0  0  0  0  0  0
   -2.8890   -5.5740   14.8780 C   0  0  0  0  0  0  0  0  0  0  0  0
   -3.9470   -4.7330   14.5110 C   0  0  0  0  0  3  0  0  0  0  0  0
   -4.3150   -4.7040   13.1650 C   0  0  0  0  0  3  0  0  0  0  0  0
   -3.6440   -5.4790   12.2240 C   0  0  0  0  0  3  0  0  0  0  0  0
   -2.5860   -6.3100   12.6090 C   0  0  0  0  0  3  0  0  0  0  0  0
   -2.2010   -6.3700   13.9640 C   0  0  0  0  0  0  0  0  0  0  0  0
   -2.6100   -5.3110   16.9600 H   0  0  0  0  0  0  0  0  0  0  0  0
  1 23  1  0  0  0  0
  1  2  1  0  0  0  0
  3  2  2  0  0  0  0
  4  3  1  0  0  0  0
  5  6  1  0  0  0  0
  5  4  2  0  0  0  0
  6  1  2  0  0  0  0
  7  8  1  0  0  0  0
  7  5  1  0  0  0  0
  9  8  2  0  0  0  0
 10  9  1  0  0  0  0
 11 10  2  0  0  0  0
 11 12  1  0  0  0  0
 12  7  2  0  0  0  0
 13 18  1  6  0  0  0
 13 11  1  0  0  0  0
 14 13  1  0  0  0  0
 14 16  1  0  0  0  0
 15 14  2  0  0  0  0
 16 10  1  0  0  0  0
 17 16  1  0  0  0  0
 19 18  2  0  0  0  0
 20 19  1  0  0  0  0
 21 20  2  0  0  0  0
 21 22  1  0  0  0  0
 22 18  1  0  0  0  0
 24 23  1  0  0  0  0
 25 30  1  6  0  0  0
 25 24  1  0  0  0  0
 26 25  1  0  0  0  0
 26 27  1  0  0  0  0
 28 26  1  0  0  0  0
 29 26  1  0  0  0  0
 30 31  1  0  0  0  0
 31 32  2  0  0  0  0
 32 33  1  0  0  0  0
 33 40  1  0  0  0  0
 34 33  1  0  0  0  0
 35 34  1  0  0  0  0
 36 35  2  0  0  0  0
 37 38  2  0  0  0  0
 37 36  1  0  0  0  0
 38 39  1  0  0  0  0
 39 31  1  0  0  0  0
 39 34  2  0  0  0  0
M  END
>  <minimizedAffinity>
-5.57288837

$$$$
