
 OpenBabel11232420013D

 40 45  0  0  1  0  0  0  0  0999 V2000
   -2.1770   -7.8710   14.8400 C   0  0  0  0  0  0  0  0  0  0  0  0
   -1.7820   -8.7940   15.7950 C   0  0  0  0  0  3  0  0  0  0  0  0
   -2.3810   -9.9920   15.9590 N   0  0  0  0  0  0  0  0  0  0  0  0
   -3.4160  -10.2830   15.1320 C   0  0  0  0  0  3  0  0  0  0  0  0
   -3.8710   -9.4370   14.1230 C   0  0  0  0  0  0  0  0  0  0  0  0
   -3.2000   -8.2180   13.9660 C   0  0  0  0  0  3  0  0  0  0  0  0
   -5.0680   -9.7160   13.3320 C   0  0  0  0  0  0  0  0  0  0  0  0
   -5.6100  -11.0210   13.2590 C   0  0  0  0  0  3  0  0  0  0  0  0
   -6.6660  -11.3240   12.3900 C   0  0  0  0  0  3  0  0  0  0  0  0
   -7.1440  -10.3060   11.5950 C   0  0  0  0  0  0  0  0  0  0  0  0
   -6.6390   -9.0100   11.6550 C   0  0  0  0  0  0  0  0  0  0  0  0
   -5.6190   -8.6960   12.5360 C   0  0  0  0  0  3  0  0  0  0  0  0
   -7.3570   -8.1340   10.6560 C   0  0  2  0  0  3  0  0  0  0  0  0
   -8.3310   -9.1500   10.0090 C   0  0  0  0  0  0  0  0  0  0  0  0
   -9.1440   -8.9420    9.1210 O   0  0  0  0  0  0  0  0  0  0  0  0
   -8.1370  -10.3800   10.6340 N   0  0  0  0  0  0  0  0  0  0  0  0
   -8.6630  -11.2050   10.3830 H   0  0  0  0  0  0  0  0  0  0  0  0
   -6.5010   -7.4970    9.6090 C   0  0  0  0  0  0  0  0  0  0  0  0
   -6.6900   -6.4110    8.7750 C   0  0  0  0  0  3  0  0  0  0  0  0
   -5.4900   -6.2440    8.0430 C   0  0  0  0  0  3  0  0  0  0  0  0
   -4.6350   -7.2280    8.4770 C   0  0  0  0  0  3  0  0  0  0  0  0
   -5.2370   -7.9930    9.4230 O   0  0  0  0  0  0  0  0  0  0  0  0
   -1.6270   -6.6310   14.6930 O   0  0  0  0  0  0  0  0  0  0  0  0
   -1.0440   -6.1310   15.9140 C   0  0  0  0  0  2  0  0  0  0  0  0
   -1.9010   -4.9360   16.3810 C   0  0  1  0  0  3  0  0  0  0  0  0
   -0.9820   -3.9660   17.0860 N   0  0  0  0  0  4  0  0  0  0  0  0
   -0.5990   -4.3710   17.9510 H   0  0  0  0  0  0  0  0  0  0  0  0
   -1.4450   -3.0790   17.3270 H   0  0  0  0  0  0  0  0  0  0  0  0
   -0.1750   -3.7610   16.4770 H   0  0  0  0  0  0  0  0  0  0  0  0
   -2.5930   -4.1960   15.2190 C   0  0  0  0  0  2  0  0  0  0  0  0
   -4.0630   -4.4650   15.1750 C   0  0  0  0  0  0  0  0  0  0  0  0
   -4.8810   -4.6560   16.2730 C   0  0  0  0  0  3  0  0  0  0  0  0
   -6.1590   -4.8740   15.8280 N   0  0  0  0  0  0  0  0  0  0  0  0
   -6.1930   -4.8350   14.4550 C   0  0  0  0  0  0  0  0  0  0  0  0
   -7.2740   -5.0100   13.5820 C   0  0  0  0  0  3  0  0  0  0  0  0
   -7.0250   -4.9010   12.2130 C   0  0  0  0  0  3  0  0  0  0  0  0
   -5.7470   -4.6190   11.7390 C   0  0  0  0  0  3  0  0  0  0  0  0
   -4.6810   -4.4440   12.6270 C   0  0  0  0  0  3  0  0  0  0  0  0
   -4.8980   -4.5620   14.0150 C   0  0  0  0  0  0  0  0  0  0  0  0
   -6.9690   -5.0320   16.4150 H   0  0  0  0  0  0  0  0  0  0  0  0
  1  2  1  0  0  0  0
  2  3  2  0  0  0  0
  4  3  1  0  0  0  0
  5  4  2  0  0  0  0
  6  5  1  0  0  0  0
  6  1  2  0  0  0  0
  7  5  1  0  0  0  0
  8  7  1  0  0  0  0
  9  8  2  0  0  0  0
 10 11  2  0  0  0  0
 10  9  1  0  0  0  0
 11 12  1  0  0  0  0
 12  7  2  0  0  0  0
 13 18  1  6  0  0  0
 13 11  1  0  0  0  0
 14 16  1  0  0  0  0
 14 13  1  0  0  0  0
 15 14  2  0  0  0  0
 16 10  1  0  0  0  0
 17 16  1  0  0  0  0
 19 18  2  0  0  0  0
 20 21  2  0  0  0  0
 20 19  1  0  0  0  0
 21 22  1  0  0  0  0
 22 18  1  0  0  0  0
 23  1  1  0  0  0  0
 23 24  1  0  0  0  0
 25 24  1  6  0  0  0
 25 30  1  0  0  0  0
 25 26  1  0  0  0  0
 26 28  1  0  0  0  0
 26 27  1  0  0  0  0
 29 26  1  0  0  0  0
 31 30  1  0  0  0  0
 31 32  2  0  0  0  0
 33 32  1  0  0  0  0
 33 40  1  0  0  0  0
 34 33  1  0  0  0  0
 35 34  2  0  0  0  0
 36 35  1  0  0  0  0
 37 36  2  0  0  0  0
 37 38  1  0  0  0  0
 38 39  2  0  0  0  0
 39 34  1  0  0  0  0
 39 31  1  0  0  0  0
M  END
>  <minimizedAffinity>
-5.22831202

$$$$
