
 OpenBabel11232420013D

 40 45  0  0  1  0  0  0  0  0999 V2000
   -3.9240   -8.1620   15.7640 C   0  0  0  0  0  0  0  0  0  0  0  0
   -4.4270   -7.2600   16.6890 C   0  0  0  0  0  3  0  0  0  0  0  0
   -5.6230   -6.6500   16.5530 N   0  0  0  0  0  0  0  0  0  0  0  0
   -6.3500   -6.9560   15.4490 C   0  0  0  0  0  3  0  0  0  0  0  0
   -5.9460   -7.8690   14.4770 C   0  0  0  0  0  0  0  0  0  0  0  0
   -4.7140   -8.5030   14.6750 C   0  0  0  0  0  3  0  0  0  0  0  0
   -6.6860   -8.0840   13.2340 C   0  0  0  0  0  0  0  0  0  0  0  0
   -7.9330   -7.4570   13.0060 C   0  0  0  0  0  3  0  0  0  0  0  0
   -8.7120   -7.7720   11.8860 C   0  0  0  0  0  3  0  0  0  0  0  0
   -8.2260   -8.7310   11.0240 C   0  0  0  0  0  0  0  0  0  0  0  0
   -6.9960   -9.3540   11.2170 C   0  0  0  0  0  0  0  0  0  0  0  0
   -6.2050   -9.0220   12.3030 C   0  0  0  0  0  3  0  0  0  0  0  0
   -6.7540  -10.3600   10.1170 C   0  0  2  0  0  3  0  0  0  0  0  0
   -8.0550  -10.2190    9.2870 C   0  0  0  0  0  0  0  0  0  0  0  0
   -8.3630  -10.8290    8.2740 O   0  0  0  0  0  0  0  0  0  0  0  0
   -8.8370   -9.2370    9.8910 N   0  0  0  0  0  0  0  0  0  0  0  0
   -9.7390   -8.9630    9.5280 H   0  0  0  0  0  0  0  0  0  0  0  0
   -6.5700  -11.7770   10.5540 C   0  0  0  0  0  0  0  0  0  0  0  0
   -7.1520  -12.5340   11.5540 C   0  0  0  0  0  3  0  0  0  0  0  0
   -6.6230  -13.8420   11.4390 C   0  0  0  0  0  3  0  0  0  0  0  0
   -5.7560  -13.8120   10.3730 C   0  0  0  0  0  3  0  0  0  0  0  0
   -5.7150  -12.5680    9.8320 O   0  0  0  0  0  0  0  0  0  0  0  0
   -2.6940   -8.7460   15.8500 O   0  0  0  0  0  0  0  0  0  0  0  0
   -2.0430   -8.8670   14.5680 C   0  0  0  0  0  2  0  0  0  0  0  0
   -1.3740   -7.5120   14.2580 C   0  0  1  0  0  3  0  0  0  0  0  0
    0.1220   -7.7170   14.3260 N   0  0  0  0  0  4  0  0  0  0  0  0
    0.4260   -7.9510   15.2810 H   0  0  0  0  0  0  0  0  0  0  0  0
    0.6530   -6.8940   14.0150 H   0  0  0  0  0  0  0  0  0  0  0  0
    0.3800   -8.5200   13.7320 H   0  0  0  0  0  0  0  0  0  0  0  0
   -1.7280   -6.9660   12.8610 C   0  0  0  0  0  2  0  0  0  0  0  0
   -2.9030   -6.0420   12.8980 C   0  0  0  0  0  0  0  0  0  0  0  0
   -3.1650   -5.1080   13.8840 C   0  0  0  0  0  3  0  0  0  0  0  0
   -4.3270   -4.4570   13.5660 N   0  0  0  0  0  0  0  0  0  0  0  0
   -4.8380   -4.9510   12.3900 C   0  0  0  0  0  0  0  0  0  0  0  0
   -6.0010   -4.5910   11.6980 C   0  0  0  0  0  3  0  0  0  0  0  0
   -6.2750   -5.2550   10.5010 C   0  0  0  0  0  3  0  0  0  0  0  0
   -5.4150   -6.2330   10.0130 C   0  0  0  0  0  3  0  0  0  0  0  0
   -4.2550   -6.5770   10.7160 C   0  0  0  0  0  3  0  0  0  0  0  0
   -3.9590   -5.9330   11.9350 C   0  0  0  0  0  0  0  0  0  0  0  0
   -4.7530   -3.7130   14.1040 H   0  0  0  0  0  0  0  0  0  0  0  0
  1 23  1  0  0  0  0
  1  2  1  0  0  0  0
  3  2  2  0  0  0  0
  4  3  1  0  0  0  0
  5  6  1  0  0  0  0
  5  4  2  0  0  0  0
  6  1  2  0  0  0  0
  7  5  1  0  0  0  0
  8  7  1  0  0  0  0
  9  8  2  0  0  0  0
 10 11  2  0  0  0  0
 10  9  1  0  0  0  0
 11 12  1  0  0  0  0
 12  7  2  0  0  0  0
 13 18  1  1  0  0  0
 13 11  1  0  0  0  0
 14 16  1  0  0  0  0
 14 13  1  0  0  0  0
 15 14  2  0  0  0  0
 16 10  1  0  0  0  0
 17 16  1  0  0  0  0
 18 19  2  0  0  0  0
 20 19  1  0  0  0  0
 21 20  2  0  0  0  0
 22 21  1  0  0  0  0
 22 18  1  0  0  0  0
 24 23  1  0  0  0  0
 25 30  1  6  0  0  0
 25 26  1  0  0  0  0
 25 24  1  0  0  0  0
 26 27  1  0  0  0  0
 28 26  1  0  0  0  0
 29 26  1  0  0  0  0
 30 31  1  0  0  0  0
 31 32  2  0  0  0  0
 33 32  1  0  0  0  0
 33 40  1  0  0  0  0
 34 33  1  0  0  0  0
 35 34  2  0  0  0  0
 36 35  1  0  0  0  0
 37 36  2  0  0  0  0
 37 38  1  0  0  0  0
 38 39  2  0  0  0  0
 39 34  1  0  0  0  0
 39 31  1  0  0  0  0
M  END
>  <minimizedAffinity>
-5.73735189

$$$$
