
 OpenBabel11232420013D

 40 45  0  0  1  0  0  0  0  0999 V2000
   -5.7710  -10.0700    8.9560 C   0  0  0  0  0  0  0  0  0  0  0  0
   -5.1690  -11.2260    8.4830 C   0  0  0  0  0  3  0  0  0  0  0  0
   -5.8590  -12.3400    8.1570 N   0  0  0  0  0  0  0  0  0  0  0  0
   -7.2070  -12.2960    8.3060 C   0  0  0  0  0  3  0  0  0  0  0  0
   -7.9080  -11.1760    8.7460 C   0  0  0  0  0  0  0  0  0  0  0  0
   -7.1570  -10.0320    9.0420 C   0  0  0  0  0  3  0  0  0  0  0  0
   -9.3440  -11.1960    9.0220 C   0  0  0  0  0  0  0  0  0  0  0  0
  -10.0170  -12.4050    9.3150 C   0  0  0  0  0  3  0  0  0  0  0  0
  -11.4110  -12.4510    9.4340 C   0  0  0  0  0  3  0  0  0  0  0  0
  -12.1050  -11.2760    9.2380 C   0  0  0  0  0  0  0  0  0  0  0  0
  -11.4670  -10.0710    8.9620 C   0  0  0  0  0  0  0  0  0  0  0  0
  -10.0870  -10.0110    8.8770 C   0  0  0  0  0  3  0  0  0  0  0  0
  -12.4950   -8.9770    8.7860 C   0  0  2  0  0  3  0  0  0  0  0  0
  -13.8130   -9.7670    8.9850 C   0  0  0  0  0  0  0  0  0  0  0  0
  -14.9550   -9.3360    8.9360 O   0  0  0  0  0  0  0  0  0  0  0  0
  -13.4760  -11.0920    9.2550 N   0  0  0  0  0  0  0  0  0  0  0  0
  -14.1710  -11.8050    9.4240 H   0  0  0  0  0  0  0  0  0  0  0  0
  -12.4970   -8.2890    7.4590 C   0  0  0  0  0  0  0  0  0  0  0  0
  -12.5070   -8.7580    6.1590 C   0  0  0  0  0  3  0  0  0  0  0  0
  -12.5770   -7.6240    5.3150 C   0  0  0  0  0  3  0  0  0  0  0  0
  -12.6160   -6.5310    6.1460 C   0  0  0  0  0  3  0  0  0  0  0  0
  -12.5660   -6.9210    7.4440 O   0  0  0  0  0  0  0  0  0  0  0  0
   -5.0910   -8.9540    9.3470 O   0  0  0  0  0  0  0  0  0  0  0  0
   -5.9620   -7.8340    9.6110 C   0  0  0  0  0  2  0  0  0  0  0  0
   -5.1420   -6.5470    9.3850 C   0  0  1  0  0  3  0  0  0  0  0  0
   -4.8320   -6.4570    7.9100 N   0  0  0  0  0  4  0  0  0  0  0  0
   -4.2130   -7.2220    7.6080 H   0  0  0  0  0  0  0  0  0  0  0  0
   -4.3900   -5.5670    7.6460 H   0  0  0  0  0  0  0  0  0  0  0  0
   -5.7070   -6.5620    7.3730 H   0  0  0  0  0  0  0  0  0  0  0  0
   -5.8940   -5.2680    9.8040 C   0  0  0  0  0  2  0  0  0  0  0  0
   -5.9520   -5.1090   11.2900 C   0  0  0  0  0  0  0  0  0  0  0  0
   -7.0730   -4.7620   12.0220 C   0  0  0  0  0  3  0  0  0  0  0  0
   -6.7280   -4.7180   13.3470 N   0  0  0  0  0  0  0  0  0  0  0  0
   -5.3970   -5.0250   13.4990 C   0  0  0  0  0  0  0  0  0  0  0  0
   -4.6220   -5.0940   14.6630 C   0  0  0  0  0  3  0  0  0  0  0  0
   -3.2790   -5.4510   14.5270 C   0  0  0  0  0  3  0  0  0  0  0  0
   -2.7380   -5.7350   13.2770 C   0  0  0  0  0  3  0  0  0  0  0  0
   -3.5300   -5.6650   12.1260 C   0  0  0  0  0  3  0  0  0  0  0  0
   -4.8860   -5.2940   12.2300 C   0  0  0  0  0  0  0  0  0  0  0  0
   -7.3540   -4.5020   14.1130 H   0  0  0  0  0  0  0  0  0  0  0  0
  1  6  1  0  0  0  0
  1 23  1  0  0  0  0
  2  1  2  0  0  0  0
  3  4  2  0  0  0  0
  3  2  1  0  0  0  0
  4  5  1  0  0  0  0
  5  7  1  0  0  0  0
  5  6  2  0  0  0  0
  7  8  1  0  0  0  0
  8  9  2  0  0  0  0
 10 16  1  0  0  0  0
 10  9  1  0  0  0  0
 11 10  2  0  0  0  0
 12 11  1  0  0  0  0
 12  7  2  0  0  0  0
 13 18  1  6  0  0  0
 13 11  1  0  0  0  0
 13 14  1  0  0  0  0
 14 16  1  0  0  0  0
 15 14  2  0  0  0  0
 16 17  1  0  0  0  0
 19 18  2  0  0  0  0
 20 21  2  0  0  0  0
 20 19  1  0  0  0  0
 21 22  1  0  0  0  0
 22 18  1  0  0  0  0
 23 24  1  0  0  0  0
 25 24  1  6  0  0  0
 25 30  1  0  0  0  0
 26 25  1  0  0  0  0
 27 26  1  0  0  0  0
 28 26  1  0  0  0  0
 29 26  1  0  0  0  0
 30 31  1  0  0  0  0
 31 32  2  0  0  0  0
 31 39  1  0  0  0  0
 32 33  1  0  0  0  0
 33 34  1  0  0  0  0
 33 40  1  0  0  0  0
 34 35  1  0  0  0  0
 36 35  2  0  0  0  0
 37 36  1  0  0  0  0
 38 39  1  0  0  0  0
 38 37  2  0  0  0  0
 39 34  2  0  0  0  0
M  END
>  <minimizedAffinity>
-5.19527864

$$$$
