
 OpenBabel10152418153D

 38 41  0  0  1  0  0  0  0  0999 V2000
    3.3090   -9.7190  -26.7800 C   0  0  0  0  0  0  0  0  0  0  0  0
    3.6070  -10.9140  -27.4420 C   0  0  0  0  0  3  0  0  0  0  0  0
    2.7980  -12.0360  -27.2800 C   0  0  0  0  0  3  0  0  0  0  0  0
    1.6340  -11.9530  -26.5180 C   0  0  0  0  0  3  0  0  0  0  0  0
    1.2690  -10.7470  -25.8910 C   0  0  0  0  0  0  0  0  0  0  0  0
    2.1580   -9.6440  -25.9810 C   0  0  0  0  0  3  0  0  0  0  0  0
    3.8860   -7.5420  -27.9620 C   0  0  0  0  0  0  0  0  0  0  0  0
    4.8520   -7.1060  -28.5920 O   0  0  0  0  0  0  0  0  0  0  0  0
    4.0980   -8.6090  -27.1290 N   0  0  0  0  0  0  0  0  0  0  0  0
    5.0650   -8.6520  -26.8320 H   0  0  0  0  0  0  0  0  0  0  0  0
    0.6990   -5.7860  -27.5390 C   0  0  0  0  0  0  0  0  0  0  0  0
    1.4410   -6.9720  -27.2720 C   0  0  0  0  0  3  0  0  0  0  0  0
    2.6430   -6.8180  -27.9310 C   0  0  0  0  0  0  0  0  0  0  0  0
    2.5360   -5.6050  -28.5590 N   0  0  0  0  0  0  0  0  0  0  0  0
    1.3830   -4.9600  -28.3390 N   0  0  0  0  0  0  0  0  0  0  0  0
    3.2510   -5.1480  -29.1160 H   0  0  0  0  0  0  0  0  0  0  0  0
   -1.3350   -6.5740  -26.3380 C   0  0  0  0  0  1  0  0  0  0  0  0
   -0.6840   -5.4040  -27.0850 C   0  0  0  0  0  3  0  0  0  0  0  0
   -0.7230   -4.0790  -26.3140 C   0  0  0  0  0  1  0  0  0  0  0  0
   -0.1330  -10.5730  -25.2890 C   0  0  1  0  0  3  0  0  0  0  0  0
   -1.1940  -10.7180  -26.3840 C   0  0  0  0  0  1  0  0  0  0  0  0
   -0.4330  -11.5570  -24.2460 N   0  0  0  0  0  0  0  0  0  0  0  0
   -0.0490  -12.4840  -24.3270 H   0  0  0  0  0  0  0  0  0  0  0  0
   -0.7400  -11.0580  -22.9830 C   0  0  0  0  0  0  0  0  0  0  0  0
   -1.3110  -11.9110  -22.1150 N   0  0  0  0  0  0  0  0  0  0  0  0
   -2.0790  -11.3720  -21.1750 C   0  0  0  0  0  3  0  0  0  0  0  0
   -2.4220  -10.0870  -21.1270 N   0  0  0  0  0  0  0  0  0  0  0  0
   -1.8160   -9.2550  -22.0000 C   0  0  0  0  0  0  0  0  0  0  0  0
   -2.2810   -7.9720  -22.2980 C   0  0  0  0  0  0  0  0  0  0  0  0
   -1.4380   -6.9690  -22.7900 C   0  0  0  0  0  3  0  0  0  0  0  0
   -0.2200   -7.3380  -23.3300 C   0  0  0  0  0  3  0  0  0  0  0  0
    0.0550   -8.6990  -23.4460 C   0  0  0  0  0  3  0  0  0  0  0  0
   -0.7690   -9.6680  -22.8020 C   0  0  0  0  0  0  0  0  0  0  0  0
   -3.6720   -8.0000  -22.8470 C   0  0  0  0  0  0  0  0  0  0  0  0
   -3.8060   -8.1270  -24.2130 N   0  0  0  0  0  0  0  0  0  0  0  0
   -4.6530   -8.0790  -22.1490 O   0  0  0  0  0  0  0  0  0  0  0  0
   -4.7360   -8.3290  -24.5540 H   0  0  0  0  0  0  0  0  0  0  0  0
   -3.0350   -8.2210  -24.8550 H   0  0  0  0  0  0  0  0  0  0  0  0
  1  6  1  0  0  0  0
  2  3  1  0  0  0  0
  2  1  2  0  0  0  0
  3  4  2  0  0  0  0
  4  5  1  0  0  0  0
  5 20  1  0  0  0  0
  6  5  2  0  0  0  0
  7 13  1  0  0  0  0
  7  9  1  0  0  0  0
  8  7  2  0  0  0  0
  9 10  1  0  0  0  0
  9  1  1  0  0  0  0
 11 12  1  0  0  0  0
 11 18  1  0  0  0  0
 13 12  2  0  0  0  0
 14 15  1  0  0  0  0
 14 13  1  0  0  0  0
 15 11  2  0  0  0  0
 16 14  1  0  0  0  0
 18 17  1  0  0  0  0
 18 19  1  0  0  0  0
 20 21  1  6  0  0  0
 20 22  1  0  0  0  0
 22 24  1  0  0  0  0
 23 22  1  0  0  0  0
 24 33  2  0  0  0  0
 24 25  1  0  0  0  0
 25 26  2  0  0  0  0
 26 27  1  0  0  0  0
 28 27  2  0  0  0  0
 29 28  1  0  0  0  0
 30 29  2  0  0  0  0
 31 30  1  0  0  0  0
 32 31  2  0  0  0  0
 32 33  1  0  0  0  0
 33 28  1  0  0  0  0
 34 29  1  0  0  0  0
 34 36  2  0  0  0  0
 35 34  1  0  0  0  0
 37 35  1  0  0  0  0
 38 35  1  0  0  0  0
M  END
>  <minimizedAffinity>
-6.88048315

$$$$
