
 OpenBabel10152418153D

 38 41  0  0  1  0  0  0  0  0999 V2000
    4.5610   -9.5980  -28.0110 C   0  0  0  0  0  0  0  0  0  0  0  0
    4.9740  -10.8340  -28.5180 C   0  0  0  0  0  3  0  0  0  0  0  0
    4.6290  -12.0180  -27.8710 C   0  0  0  0  0  3  0  0  0  0  0  0
    3.7970  -11.9850  -26.7530 C   0  0  0  0  0  3  0  0  0  0  0  0
    3.3090  -10.7630  -26.2550 C   0  0  0  0  0  0  0  0  0  0  0  0
    3.7540   -9.5600  -26.8640 C   0  0  0  0  0  3  0  0  0  0  0  0
    4.0250   -7.5550  -29.4290 C   0  0  0  0  0  0  0  0  0  0  0  0
    4.3770   -7.1240  -30.5300 O   0  0  0  0  0  0  0  0  0  0  0  0
    4.8320   -8.4800  -28.8190 N   0  0  0  0  0  0  0  0  0  0  0  0
    5.7880   -8.3990  -29.1440 H   0  0  0  0  0  0  0  0  0  0  0  0
    1.3010   -5.7110  -27.8190 C   0  0  0  0  0  0  0  0  0  0  0  0
    2.6410   -5.6630  -28.2970 C   0  0  0  0  0  3  0  0  0  0  0  0
    2.9350   -6.9440  -28.7170 C   0  0  0  0  0  0  0  0  0  0  0  0
    1.8020   -7.6620  -28.4410 N   0  0  0  0  0  0  0  0  0  0  0  0
    0.8020   -6.9500  -27.9060 N   0  0  0  0  0  0  0  0  0  0  0  0
    1.6430   -8.6440  -28.6470 H   0  0  0  0  0  0  0  0  0  0  0  0
    0.7020   -3.3000  -27.9890 C   0  0  0  0  0  1  0  0  0  0  0  0
    0.4580   -4.6110  -27.2330 C   0  0  0  0  0  3  0  0  0  0  0  0
   -1.0250   -4.9860  -27.1080 C   0  0  0  0  0  1  0  0  0  0  0  0
    2.1850  -10.7380  -25.2100 C   0  0  1  0  0  3  0  0  0  0  0  0
    2.3400  -11.9190  -24.2470 C   0  0  0  0  0  1  0  0  0  0  0  0
    2.1740   -9.5110  -24.4110 N   0  0  0  0  0  0  0  0  0  0  0  0
    3.0240   -9.2170  -23.9580 H   0  0  0  0  0  0  0  0  0  0  0  0
    1.2180   -8.5530  -24.7430 C   0  0  0  0  0  0  0  0  0  0  0  0
    1.5530   -7.2660  -24.5450 N   0  0  0  0  0  0  0  0  0  0  0  0
    0.5500   -6.4230  -24.3260 C   0  0  0  0  0  3  0  0  0  0  0  0
   -0.7180   -6.7870  -24.1550 N   0  0  0  0  0  0  0  0  0  0  0  0
   -1.0220   -8.0830  -24.3800 C   0  0  0  0  0  0  0  0  0  0  0  0
   -2.2040   -8.6880  -23.9470 C   0  0  0  0  0  0  0  0  0  0  0  0
   -2.7300   -9.8270  -24.5670 C   0  0  0  0  0  3  0  0  0  0  0  0
   -1.9000  -10.5770  -25.3800 C   0  0  0  0  0  3  0  0  0  0  0  0
   -0.5580  -10.2120  -25.4530 C   0  0  0  0  0  3  0  0  0  0  0  0
   -0.1090   -8.9680  -24.9200 C   0  0  0  0  0  0  0  0  0  0  0  0
   -2.3520   -8.6120  -22.4600 C   0  0  0  0  0  0  0  0  0  0  0  0
   -2.5810   -7.3680  -21.9140 N   0  0  0  0  0  0  0  0  0  0  0  0
   -2.4410   -9.5890  -21.7580 O   0  0  0  0  0  0  0  0  0  0  0  0
   -2.8620   -7.3510  -20.9420 H   0  0  0  0  0  0  0  0  0  0  0  0
   -2.6750   -6.5190  -22.4480 H   0  0  0  0  0  0  0  0  0  0  0  0
  1  6  1  0  0  0  0
  2  1  2  0  0  0  0
  2  3  1  0  0  0  0
  3  4  2  0  0  0  0
  4  5  1  0  0  0  0
  5 20  1  0  0  0  0
  6  5  2  0  0  0  0
  7  9  1  0  0  0  0
  7 13  1  0  0  0  0
  8  7  2  0  0  0  0
  9  1  1  0  0  0  0
 10  9  1  0  0  0  0
 11 18  1  0  0  0  0
 12 11  1  0  0  0  0
 13 14  1  0  0  0  0
 13 12  2  0  0  0  0
 14 15  1  0  0  0  0
 15 11  2  0  0  0  0
 16 14  1  0  0  0  0
 17 18  1  0  0  0  0
 18 19  1  0  0  0  0
 20 22  1  0  0  0  0
 20 21  1  1  0  0  0
 22 23  1  0  0  0  0
 24 25  1  0  0  0  0
 24 22  1  0  0  0  0
 25 26  2  0  0  0  0
 26 27  1  0  0  0  0
 28 27  2  0  0  0  0
 28 29  1  0  0  0  0
 29 34  1  0  0  0  0
 30 29  2  0  0  0  0
 31 30  1  0  0  0  0
 32 31  2  0  0  0  0
 32 33  1  0  0  0  0
 33 24  2  0  0  0  0
 33 28  1  0  0  0  0
 34 35  1  0  0  0  0
 34 36  2  0  0  0  0
 35 37  1  0  0  0  0
 38 35  1  0  0  0  0
M  END
>  <minimizedAffinity>
-6.98296404

$$$$
