
 OpenBabel10152418153D

 38 41  0  0  1  0  0  0  0  0999 V2000
   -1.1570   -9.8600  -22.9480 C   0  0  0  0  0  0  0  0  0  0  0  0
   -1.5250  -10.0250  -21.6090 C   0  0  0  0  0  3  0  0  0  0  0  0
   -1.6350   -8.9240  -20.7630 C   0  0  0  0  0  3  0  0  0  0  0  0
   -1.4580   -7.6370  -21.2660 C   0  0  0  0  0  3  0  0  0  0  0  0
   -1.1510   -7.4310  -22.6240 C   0  0  0  0  0  0  0  0  0  0  0  0
   -0.9400   -8.5670  -23.4480 C   0  0  0  0  0  3  0  0  0  0  0  0
   -0.6990  -11.3230  -24.9780 C   0  0  0  0  0  0  0  0  0  0  0  0
   -1.3720  -12.0360  -25.7250 O   0  0  0  0  0  0  0  0  0  0  0  0
   -1.2230  -11.0120  -23.7500 N   0  0  0  0  0  0  0  0  0  0  0  0
   -1.8950  -11.7110  -23.4550 H   0  0  0  0  0  0  0  0  0  0  0  0
    2.7740  -10.8090  -26.0230 C   0  0  0  0  0  0  0  0  0  0  0  0
    1.7670  -11.7590  -25.6940 C   0  0  0  0  0  3  0  0  0  0  0  0
    0.6720  -11.0210  -25.2910 C   0  0  0  0  0  0  0  0  0  0  0  0
    1.0920   -9.7190  -25.3690 N   0  0  0  0  0  0  0  0  0  0  0  0
    2.3470   -9.5590  -25.8090 N   0  0  0  0  0  0  0  0  0  0  0  0
    0.5350   -8.8920  -25.1770 H   0  0  0  0  0  0  0  0  0  0  0  0
    4.1710  -12.0080  -27.6990 C   0  0  0  0  0  1  0  0  0  0  0  0
    4.1790  -11.0390  -26.5120 C   0  0  0  0  0  3  0  0  0  0  0  0
    4.9480   -9.7390  -26.7790 C   0  0  0  0  0  1  0  0  0  0  0  0
   -1.2280   -6.0250  -23.2380 C   0  0  1  0  0  3  0  0  0  0  0  0
   -0.9820   -4.9680  -22.1570 C   0  0  0  0  0  1  0  0  0  0  0  0
   -0.2430   -5.8120  -24.3000 N   0  0  0  0  0  0  0  0  0  0  0  0
    0.7310   -5.7480  -24.0560 H   0  0  0  0  0  0  0  0  0  0  0  0
   -0.5940   -6.2440  -25.5770 C   0  0  0  0  0  0  0  0  0  0  0  0
   -1.0870   -7.4900  -25.6830 N   0  0  0  0  0  0  0  0  0  0  0  0
   -0.9120   -8.0970  -26.8520 C   0  0  0  0  0  3  0  0  0  0  0  0
   -0.1750   -7.6150  -27.8490 N   0  0  0  0  0  0  0  0  0  0  0  0
    0.2890   -6.3540  -27.7180 C   0  0  0  0  0  0  0  0  0  0  0  0
    1.3160   -5.8220  -28.5000 C   0  0  0  0  0  0  0  0  0  0  0  0
    1.4590   -4.4450  -28.7060 C   0  0  0  0  0  3  0  0  0  0  0  0
    0.8080   -3.5780  -27.8480 C   0  0  0  0  0  3  0  0  0  0  0  0
    0.1270   -4.1270  -26.7630 C   0  0  0  0  0  3  0  0  0  0  0  0
   -0.1070   -5.5310  -26.6810 C   0  0  0  0  0  0  0  0  0  0  0  0
    2.5810   -6.6080  -28.3620 C   0  0  0  0  0  0  0  0  0  0  0  0
    3.0370   -6.8460  -27.0830 N   0  0  0  0  0  0  0  0  0  0  0  0
    3.1140   -7.1650  -29.2900 O   0  0  0  0  0  0  0  0  0  0  0  0
    3.7800   -7.5260  -26.9920 H   0  0  0  0  0  0  0  0  0  0  0  0
    2.5660   -6.5440  -26.2440 H   0  0  0  0  0  0  0  0  0  0  0  0
  1  2  1  0  0  0  0
  2  3  2  0  0  0  0
  4  3  1  0  0  0  0
  5  4  2  0  0  0  0
  6  1  2  0  0  0  0
  6  5  1  0  0  0  0
  7  9  1  0  0  0  0
  8  7  2  0  0  0  0
  9 10  1  0  0  0  0
  9  1  1  0  0  0  0
 11 15  2  0  0  0  0
 11 12  1  0  0  0  0
 12 13  2  0  0  0  0
 13  7  1  0  0  0  0
 14 13  1  0  0  0  0
 14 16  1  0  0  0  0
 15 14  1  0  0  0  0
 17 18  1  0  0  0  0
 18 11  1  0  0  0  0
 19 18  1  0  0  0  0
 20  5  1  0  0  0  0
 20 21  1  1  0  0  0
 22 23  1  0  0  0  0
 22 20  1  0  0  0  0
 24 22  1  0  0  0  0
 25 24  1  0  0  0  0
 26 25  2  0  0  0  0
 27 28  2  0  0  0  0
 27 26  1  0  0  0  0
 28 33  1  0  0  0  0
 29 34  1  0  0  0  0
 29 28  1  0  0  0  0
 30 29  2  0  0  0  0
 30 31  1  0  0  0  0
 31 32  2  0  0  0  0
 32 33  1  0  0  0  0
 33 24  2  0  0  0  0
 34 35  1  0  0  0  0
 35 37  1  0  0  0  0
 35 38  1  0  0  0  0
 36 34  2  0  0  0  0
M  END
>  <minimizedAffinity>
-6.23186541

$$$$
