
 OpenBabel10152418153D

 38 41  0  0  1  0  0  0  0  0999 V2000
    4.1320   -9.6060  -27.5660 C   0  0  0  0  0  0  0  0  0  0  0  0
    4.0390  -10.4980  -28.6390 C   0  0  0  0  0  3  0  0  0  0  0  0
    3.3960  -11.7240  -28.4900 C   0  0  0  0  0  3  0  0  0  0  0  0
    2.7650  -12.0390  -27.2870 C   0  0  0  0  0  3  0  0  0  0  0  0
    2.7830  -11.1360  -26.2080 C   0  0  0  0  0  0  0  0  0  0  0  0
    3.5310   -9.9370  -26.3430 C   0  0  0  0  0  3  0  0  0  0  0  0
    4.1290   -7.2170  -28.4400 C   0  0  0  0  0  0  0  0  0  0  0  0
    4.8630   -6.5370  -29.1600 O   0  0  0  0  0  0  0  0  0  0  0  0
    4.6640   -8.3390  -27.8630 N   0  0  0  0  0  0  0  0  0  0  0  0
    5.6700   -8.2580  -27.7730 H   0  0  0  0  0  0  0  0  0  0  0  0
    0.9730   -5.9340  -27.0940 C   0  0  0  0  0  0  0  0  0  0  0  0
    2.0690   -6.8200  -26.8960 C   0  0  0  0  0  3  0  0  0  0  0  0
    2.8370   -6.7280  -28.0400 C   0  0  0  0  0  0  0  0  0  0  0  0
    2.1560   -5.8460  -28.8370 N   0  0  0  0  0  0  0  0  0  0  0  0
    1.0360   -5.3490  -28.2960 N   0  0  0  0  0  0  0  0  0  0  0  0
    2.4450   -5.5110  -29.7510 H   0  0  0  0  0  0  0  0  0  0  0  0
    0.2200   -5.8630  -24.7220 C   0  0  0  0  0  1  0  0  0  0  0  0
   -0.1850   -5.6330  -26.1820 C   0  0  0  0  0  3  0  0  0  0  0  0
   -0.8170   -4.2590  -26.4400 C   0  0  0  0  0  1  0  0  0  0  0  0
    1.8680  -11.3530  -24.9940 C   0  0  1  0  0  3  0  0  0  0  0  0
    2.6480  -12.0380  -23.8670 C   0  0  0  0  0  1  0  0  0  0  0  0
    1.3220  -10.1030  -24.4600 N   0  0  0  0  0  0  0  0  0  0  0  0
    1.8940   -9.2750  -24.4790 H   0  0  0  0  0  0  0  0  0  0  0  0
   -0.0640   -9.9700  -24.4680 C   0  0  0  0  0  0  0  0  0  0  0  0
   -0.5890   -9.1320  -25.3780 N   0  0  0  0  0  0  0  0  0  0  0  0
   -1.7590   -8.5830  -25.0710 C   0  0  0  0  0  3  0  0  0  0  0  0
   -2.3590   -8.6990  -23.8880 N   0  0  0  0  0  0  0  0  0  0  0  0
   -1.8160   -9.5630  -23.0050 C   0  0  0  0  0  0  0  0  0  0  0  0
   -2.1180   -9.5680  -21.6410 C   0  0  0  0  0  0  0  0  0  0  0  0
   -1.9560  -10.7090  -20.8460 C   0  0  0  0  0  3  0  0  0  0  0  0
   -1.1570  -11.7330  -21.3180 C   0  0  0  0  0  3  0  0  0  0  0  0
   -0.4750  -11.5280  -22.5150 C   0  0  0  0  0  3  0  0  0  0  0  0
   -0.7840  -10.4150  -23.3510 C   0  0  0  0  0  0  0  0  0  0  0  0
   -1.7930   -8.2570  -20.9970 C   0  0  0  0  0  0  0  0  0  0  0  0
   -2.3660   -7.1300  -21.5440 N   0  0  0  0  0  0  0  0  0  0  0  0
   -1.2000   -8.1690  -19.9500 O   0  0  0  0  0  0  0  0  0  0  0  0
   -2.2920   -6.2810  -20.9980 H   0  0  0  0  0  0  0  0  0  0  0  0
   -2.9990   -7.1340  -22.3290 H   0  0  0  0  0  0  0  0  0  0  0  0
  1  6  1  0  0  0  0
  2  3  1  0  0  0  0
  2  1  2  0  0  0  0
  3  4  2  0  0  0  0
  4  5  1  0  0  0  0
  5 20  1  0  0  0  0
  6  5  2  0  0  0  0
  7 13  1  0  0  0  0
  7  9  1  0  0  0  0
  8  7  2  0  0  0  0
  9 10  1  0  0  0  0
  9  1  1  0  0  0  0
 11 12  1  0  0  0  0
 11 18  1  0  0  0  0
 13 12  2  0  0  0  0
 14 15  1  0  0  0  0
 14 13  1  0  0  0  0
 15 11  2  0  0  0  0
 16 14  1  0  0  0  0
 18 17  1  0  0  0  0
 19 18  1  0  0  0  0
 20 22  1  0  0  0  0
 20 21  1  1  0  0  0
 23 22  1  0  0  0  0
 24 22  1  0  0  0  0
 24 33  1  0  0  0  0
 25 26  1  0  0  0  0
 25 24  2  0  0  0  0
 26 27  2  0  0  0  0
 27 28  1  0  0  0  0
 28 29  1  0  0  0  0
 29 34  1  0  0  0  0
 29 30  2  0  0  0  0
 31 30  1  0  0  0  0
 32 31  2  0  0  0  0
 33 28  2  0  0  0  0
 33 32  1  0  0  0  0
 34 36  2  0  0  0  0
 35 37  1  0  0  0  0
 35 34  1  0  0  0  0
 38 35  1  0  0  0  0
M  END
>  <minimizedAffinity>
-8.65977001

$$$$

 OpenBabel10152418153D

 38 41  0  0  1  0  0  0  0  0999 V2000
    0.1820   -6.8700  -24.8120 C   0  0  0  0  0  0  0  0  0  0  0  0
   -0.2230   -6.2920  -26.0200 C   0  0  0  0  0  3  0  0  0  0  0  0
   -0.0620   -6.9740  -27.2230 C   0  0  0  0  0  3  0  0  0  0  0  0
    0.4320   -8.2780  -27.2250 C   0  0  0  0  0  3  0  0  0  0  0  0
    0.7890   -8.9140  -26.0220 C   0  0  0  0  0  0  0  0  0  0  0  0
    0.7160   -8.1670  -24.8160 C   0  0  0  0  0  3  0  0  0  0  0  0
   -1.1480   -6.3400  -22.7110 C   0  0  0  0  0  0  0  0  0  0  0  0
   -1.6510   -5.3310  -22.2120 O   0  0  0  0  0  0  0  0  0  0  0  0
   -0.1620   -6.1650  -23.6460 N   0  0  0  0  0  0  0  0  0  0  0  0
    0.3000   -5.2720  -23.5250 H   0  0  0  0  0  0  0  0  0  0  0  0
   -1.6780   -9.7910  -21.6030 C   0  0  0  0  0  0  0  0  0  0  0  0
   -1.7130   -8.8820  -22.6980 C   0  0  0  0  0  3  0  0  0  0  0  0
   -1.4230   -7.6420  -22.1650 C   0  0  0  0  0  0  0  0  0  0  0  0
   -1.2710   -7.8740  -20.8240 N   0  0  0  0  0  0  0  0  0  0  0  0
   -1.4130   -9.1540  -20.4550 N   0  0  0  0  0  0  0  0  0  0  0  0
   -1.0180   -7.1910  -20.1170 H   0  0  0  0  0  0  0  0  0  0  0  0
   -1.0220  -11.9700  -22.6130 C   0  0  0  0  0  1  0  0  0  0  0  0
   -1.9250  -11.2750  -21.5880 C   0  0  0  0  0  3  0  0  0  0  0  0
   -1.8510  -11.8870  -20.1830 C   0  0  0  0  0  1  0  0  0  0  0  0
    1.0670  -10.4230  -25.9890 C   0  0  1  0  0  3  0  0  0  0  0  0
   -0.2520  -11.2000  -26.0530 C   0  0  0  0  0  1  0  0  0  0  0  0
    1.9030  -10.8740  -27.1040 N   0  0  0  0  0  0  0  0  0  0  0  0
    1.4570  -11.1980  -27.9470 H   0  0  0  0  0  0  0  0  0  0  0  0
    3.1890  -10.3450  -27.1780 C   0  0  0  0  0  0  0  0  0  0  0  0
    3.5170   -9.4140  -26.2660 N   0  0  0  0  0  0  0  0  0  0  0  0
    4.4530   -8.5420  -26.6220 C   0  0  0  0  0  3  0  0  0  0  0  0
    4.9720   -8.4500  -27.8440 N   0  0  0  0  0  0  0  0  0  0  0  0
    4.6370   -9.4120  -28.7300 C   0  0  0  0  0  0  0  0  0  0  0  0
    4.8260   -9.2960  -30.1080 C   0  0  0  0  0  0  0  0  0  0  0  0
    4.9410  -10.4140  -30.9420 C   0  0  0  0  0  3  0  0  0  0  0  0
    4.5070  -11.6380  -30.4670 C   0  0  0  0  0  3  0  0  0  0  0  0
    3.8850  -11.6690  -29.2210 C   0  0  0  0  0  3  0  0  0  0  0  0
    3.9220  -10.5350  -28.3580 C   0  0  0  0  0  0  0  0  0  0  0  0
    4.0920   -8.1200  -30.6710 C   0  0  0  0  0  0  0  0  0  0  0  0
    4.5310   -6.8680  -30.2980 N   0  0  0  0  0  0  0  0  0  0  0  0
    3.2620   -8.2180  -31.5410 O   0  0  0  0  0  0  0  0  0  0  0  0
    4.1540   -6.0880  -30.8200 H   0  0  0  0  0  0  0  0  0  0  0  0
    5.3180   -6.6960  -29.6930 H   0  0  0  0  0  0  0  0  0  0  0  0
  1  9  1  0  0  0  0
  2  1  2  0  0  0  0
  3  2  1  0  0  0  0
  4  3  2  0  0  0  0
  4  5  1  0  0  0  0
  5 20  1  0  0  0  0
  5  6  2  0  0  0  0
  6  1  1  0  0  0  0
  7  8  2  0  0  0  0
  7 13  1  0  0  0  0
  9 10  1  0  0  0  0
  9  7  1  0  0  0  0
 11 18  1  0  0  0  0
 11 15  2  0  0  0  0
 12 13  2  0  0  0  0
 12 11  1  0  0  0  0
 13 14  1  0  0  0  0
 14 15  1  0  0  0  0
 14 16  1  0  0  0  0
 17 18  1  0  0  0  0
 18 19  1  0  0  0  0
 20 21  1  6  0  0  0
 22 20  1  0  0  0  0
 23 22  1  0  0  0  0
 24 22  1  0  0  0  0
 24 25  1  0  0  0  0
 26 25  2  0  0  0  0
 27 26  1  0  0  0  0
 28 33  1  0  0  0  0
 28 27  2  0  0  0  0
 29 28  1  0  0  0  0
 30 31  1  0  0  0  0
 30 29  2  0  0  0  0
 31 32  2  0  0  0  0
 32 33  1  0  0  0  0
 33 24  2  0  0  0  0
 34 35  1  0  0  0  0
 34 29  1  0  0  0  0
 35 38  1  0  0  0  0
 36 34  2  0  0  0  0
 37 35  1  0  0  0  0
M  END
>  <minimizedAffinity>
-7.59161234

$$$$

 OpenBabel10152418153D

 38 41  0  0  1  0  0  0  0  0999 V2000
   -0.3260   -5.7260  -24.4730 C   0  0  0  0  0  0  0  0  0  0  0  0
   -1.0100   -4.5210  -24.6630 C   0  0  0  0  0  3  0  0  0  0  0  0
   -0.9210   -3.8380  -25.8730 C   0  0  0  0  0  3  0  0  0  0  0  0
   -0.2120   -4.3920  -26.9380 C   0  0  0  0  0  3  0  0  0  0  0  0
    0.4340   -5.6350  -26.8020 C   0  0  0  0  0  0  0  0  0  0  0  0
    0.4210   -6.2670  -25.5310 C   0  0  0  0  0  3  0  0  0  0  0  0
   -1.2070   -7.6080  -23.0080 C   0  0  0  0  0  0  0  0  0  0  0  0
   -1.8950   -7.6880  -21.9880 O   0  0  0  0  0  0  0  0  0  0  0  0
   -0.6020   -6.4090  -23.2760 N   0  0  0  0  0  0  0  0  0  0  0  0
   -0.4660   -5.8720  -22.4280 H   0  0  0  0  0  0  0  0  0  0  0  0
   -0.1440  -10.7080  -24.6450 C   0  0  0  0  0  0  0  0  0  0  0  0
    0.2610   -9.5660  -23.8970 C   0  0  0  0  0  3  0  0  0  0  0  0
   -0.8700   -8.7880  -23.7590 C   0  0  0  0  0  0  0  0  0  0  0  0
   -1.8410   -9.4740  -24.4400 N   0  0  0  0  0  0  0  0  0  0  0  0
   -1.4380  -10.6310  -24.9790 N   0  0  0  0  0  0  0  0  0  0  0  0
   -2.8190   -9.2130  -24.5250 H   0  0  0  0  0  0  0  0  0  0  0  0
    0.8350  -11.8560  -26.6260 C   0  0  0  0  0  1  0  0  0  0  0  0
    0.6720  -11.8860  -25.1030 C   0  0  0  0  0  3  0  0  0  0  0  0
    1.9960  -12.0380  -24.3420 C   0  0  0  0  0  1  0  0  0  0  0  0
    0.9750   -6.3730  -28.0350 C   0  0  1  0  0  3  0  0  0  0  0  0
    1.8890   -5.4450  -28.8410 C   0  0  0  0  0  1  0  0  0  0  0  0
    1.7470   -7.5690  -27.6910 N   0  0  0  0  0  0  0  0  0  0  0  0
    1.2560   -8.4160  -27.4620 H   0  0  0  0  0  0  0  0  0  0  0  0
    3.0380   -7.6530  -28.2090 C   0  0  0  0  0  0  0  0  0  0  0  0
    3.3230   -6.8650  -29.2610 N   0  0  0  0  0  0  0  0  0  0  0  0
    4.2790   -7.2930  -30.0770 C   0  0  0  0  0  3  0  0  0  0  0  0
    4.8580   -8.4890  -29.9990 N   0  0  0  0  0  0  0  0  0  0  0  0
    4.5640   -9.2460  -28.9210 C   0  0  0  0  0  0  0  0  0  0  0  0
    4.8210  -10.6160  -28.8430 C   0  0  0  0  0  0  0  0  0  0  0  0
    4.9730  -11.2780  -27.6200 C   0  0  0  0  0  3  0  0  0  0  0  0
    4.5120  -10.6590  -26.4730 C   0  0  0  0  0  3  0  0  0  0  0  0
    3.8290   -9.4530  -26.6150 C   0  0  0  0  0  3  0  0  0  0  0  0
    3.8270   -8.7560  -27.8590 C   0  0  0  0  0  0  0  0  0  0  0  0
    4.1200  -11.3740  -29.9260 C   0  0  0  0  0  0  0  0  0  0  0  0
    4.7510  -11.4510  -31.1490 N   0  0  0  0  0  0  0  0  0  0  0  0
    3.1320  -12.0380  -29.7300 O   0  0  0  0  0  0  0  0  0  0  0  0
    4.3640  -12.1120  -31.8110 H   0  0  0  0  0  0  0  0  0  0  0  0
    5.6530  -11.0510  -31.3510 H   0  0  0  0  0  0  0  0  0  0  0  0
  1  9  1  0  0  0  0
  2  1  1  0  0  0  0
  3  2  2  0  0  0  0
  4  5  2  0  0  0  0
  4  3  1  0  0  0  0
  5  6  1  0  0  0  0
  6  1  2  0  0  0  0
  7  8  2  0  0  0  0
  9  7  1  0  0  0  0
  9 10  1  0  0  0  0
 11 12  1  0  0  0  0
 12 13  2  0  0  0  0
 13  7  1  0  0  0  0
 14 13  1  0  0  0  0
 15 11  2  0  0  0  0
 15 14  1  0  0  0  0
 16 14  1  0  0  0  0
 17 18  1  0  0  0  0
 18 11  1  0  0  0  0
 18 19  1  0  0  0  0
 20 21  1  1  0  0  0
 20 22  1  0  0  0  0
 20  5  1  0  0  0  0
 22 23  1  0  0  0  0
 24 33  1  0  0  0  0
 24 22  1  0  0  0  0
 25 24  2  0  0  0  0
 26 27  2  0  0  0  0
 26 25  1  0  0  0  0
 27 28  1  0  0  0  0
 28 29  2  0  0  0  0
 28 33  1  0  0  0  0
 29 30  1  0  0  0  0
 30 31  2  0  0  0  0
 32 31  1  0  0  0  0
 33 32  2  0  0  0  0
 34 36  2  0  0  0  0
 34 29  1  0  0  0  0
 35 34  1  0  0  0  0
 37 35  1  0  0  0  0
 38 35  1  0  0  0  0
M  END
>  <minimizedAffinity>
-7.06433487

$$$$

 OpenBabel10152418153D

 38 41  0  0  1  0  0  0  0  0999 V2000
    4.5610   -9.5980  -28.0110 C   0  0  0  0  0  0  0  0  0  0  0  0
    4.9740  -10.8340  -28.5180 C   0  0  0  0  0  3  0  0  0  0  0  0
    4.6290  -12.0180  -27.8710 C   0  0  0  0  0  3  0  0  0  0  0  0
    3.7970  -11.9850  -26.7530 C   0  0  0  0  0  3  0  0  0  0  0  0
    3.3090  -10.7630  -26.2550 C   0  0  0  0  0  0  0  0  0  0  0  0
    3.7540   -9.5600  -26.8640 C   0  0  0  0  0  3  0  0  0  0  0  0
    4.0250   -7.5550  -29.4290 C   0  0  0  0  0  0  0  0  0  0  0  0
    4.3770   -7.1240  -30.5300 O   0  0  0  0  0  0  0  0  0  0  0  0
    4.8320   -8.4800  -28.8190 N   0  0  0  0  0  0  0  0  0  0  0  0
    5.7880   -8.3990  -29.1440 H   0  0  0  0  0  0  0  0  0  0  0  0
    1.3010   -5.7110  -27.8190 C   0  0  0  0  0  0  0  0  0  0  0  0
    2.6410   -5.6630  -28.2970 C   0  0  0  0  0  3  0  0  0  0  0  0
    2.9350   -6.9440  -28.7170 C   0  0  0  0  0  0  0  0  0  0  0  0
    1.8020   -7.6620  -28.4410 N   0  0  0  0  0  0  0  0  0  0  0  0
    0.8020   -6.9500  -27.9060 N   0  0  0  0  0  0  0  0  0  0  0  0
    1.6430   -8.6440  -28.6470 H   0  0  0  0  0  0  0  0  0  0  0  0
    0.7020   -3.3000  -27.9890 C   0  0  0  0  0  1  0  0  0  0  0  0
    0.4580   -4.6110  -27.2330 C   0  0  0  0  0  3  0  0  0  0  0  0
   -1.0250   -4.9860  -27.1080 C   0  0  0  0  0  1  0  0  0  0  0  0
    2.1850  -10.7380  -25.2100 C   0  0  1  0  0  3  0  0  0  0  0  0
    2.3400  -11.9190  -24.2470 C   0  0  0  0  0  1  0  0  0  0  0  0
    2.1740   -9.5110  -24.4110 N   0  0  0  0  0  0  0  0  0  0  0  0
    3.0240   -9.2170  -23.9580 H   0  0  0  0  0  0  0  0  0  0  0  0
    1.2180   -8.5530  -24.7430 C   0  0  0  0  0  0  0  0  0  0  0  0
    1.5530   -7.2660  -24.5450 N   0  0  0  0  0  0  0  0  0  0  0  0
    0.5500   -6.4230  -24.3260 C   0  0  0  0  0  3  0  0  0  0  0  0
   -0.7180   -6.7870  -24.1550 N   0  0  0  0  0  0  0  0  0  0  0  0
   -1.0220   -8.0830  -24.3800 C   0  0  0  0  0  0  0  0  0  0  0  0
   -2.2040   -8.6880  -23.9470 C   0  0  0  0  0  0  0  0  0  0  0  0
   -2.7300   -9.8270  -24.5670 C   0  0  0  0  0  3  0  0  0  0  0  0
   -1.9000  -10.5770  -25.3800 C   0  0  0  0  0  3  0  0  0  0  0  0
   -0.5580  -10.2120  -25.4530 C   0  0  0  0  0  3  0  0  0  0  0  0
   -0.1090   -8.9680  -24.9200 C   0  0  0  0  0  0  0  0  0  0  0  0
   -2.3520   -8.6120  -22.4600 C   0  0  0  0  0  0  0  0  0  0  0  0
   -2.5810   -7.3680  -21.9140 N   0  0  0  0  0  0  0  0  0  0  0  0
   -2.4410   -9.5890  -21.7580 O   0  0  0  0  0  0  0  0  0  0  0  0
   -2.8620   -7.3510  -20.9420 H   0  0  0  0  0  0  0  0  0  0  0  0
   -2.6750   -6.5190  -22.4480 H   0  0  0  0  0  0  0  0  0  0  0  0
  1  6  1  0  0  0  0
  2  1  2  0  0  0  0
  2  3  1  0  0  0  0
  3  4  2  0  0  0  0
  4  5  1  0  0  0  0
  5 20  1  0  0  0  0
  6  5  2  0  0  0  0
  7  9  1  0  0  0  0
  7 13  1  0  0  0  0
  8  7  2  0  0  0  0
  9  1  1  0  0  0  0
 10  9  1  0  0  0  0
 11 18  1  0  0  0  0
 12 11  1  0  0  0  0
 13 14  1  0  0  0  0
 13 12  2  0  0  0  0
 14 15  1  0  0  0  0
 15 11  2  0  0  0  0
 16 14  1  0  0  0  0
 17 18  1  0  0  0  0
 18 19  1  0  0  0  0
 20 22  1  0  0  0  0
 20 21  1  1  0  0  0
 22 23  1  0  0  0  0
 24 25  1  0  0  0  0
 24 22  1  0  0  0  0
 25 26  2  0  0  0  0
 26 27  1  0  0  0  0
 28 27  2  0  0  0  0
 28 29  1  0  0  0  0
 29 34  1  0  0  0  0
 30 29  2  0  0  0  0
 31 30  1  0  0  0  0
 32 31  2  0  0  0  0
 32 33  1  0  0  0  0
 33 24  2  0  0  0  0
 33 28  1  0  0  0  0
 34 35  1  0  0  0  0
 34 36  2  0  0  0  0
 35 37  1  0  0  0  0
 38 35  1  0  0  0  0
M  END
>  <minimizedAffinity>
-6.98296404

$$$$

 OpenBabel10152418153D

 38 41  0  0  1  0  0  0  0  0999 V2000
    3.3090   -9.7190  -26.7800 C   0  0  0  0  0  0  0  0  0  0  0  0
    3.6070  -10.9140  -27.4420 C   0  0  0  0  0  3  0  0  0  0  0  0
    2.7980  -12.0360  -27.2800 C   0  0  0  0  0  3  0  0  0  0  0  0
    1.6340  -11.9530  -26.5180 C   0  0  0  0  0  3  0  0  0  0  0  0
    1.2690  -10.7470  -25.8910 C   0  0  0  0  0  0  0  0  0  0  0  0
    2.1580   -9.6440  -25.9810 C   0  0  0  0  0  3  0  0  0  0  0  0
    3.8860   -7.5420  -27.9620 C   0  0  0  0  0  0  0  0  0  0  0  0
    4.8520   -7.1060  -28.5920 O   0  0  0  0  0  0  0  0  0  0  0  0
    4.0980   -8.6090  -27.1290 N   0  0  0  0  0  0  0  0  0  0  0  0
    5.0650   -8.6520  -26.8320 H   0  0  0  0  0  0  0  0  0  0  0  0
    0.6990   -5.7860  -27.5390 C   0  0  0  0  0  0  0  0  0  0  0  0
    1.4410   -6.9720  -27.2720 C   0  0  0  0  0  3  0  0  0  0  0  0
    2.6430   -6.8180  -27.9310 C   0  0  0  0  0  0  0  0  0  0  0  0
    2.5360   -5.6050  -28.5590 N   0  0  0  0  0  0  0  0  0  0  0  0
    1.3830   -4.9600  -28.3390 N   0  0  0  0  0  0  0  0  0  0  0  0
    3.2510   -5.1480  -29.1160 H   0  0  0  0  0  0  0  0  0  0  0  0
   -1.3350   -6.5740  -26.3380 C   0  0  0  0  0  1  0  0  0  0  0  0
   -0.6840   -5.4040  -27.0850 C   0  0  0  0  0  3  0  0  0  0  0  0
   -0.7230   -4.0790  -26.3140 C   0  0  0  0  0  1  0  0  0  0  0  0
   -0.1330  -10.5730  -25.2890 C   0  0  1  0  0  3  0  0  0  0  0  0
   -1.1940  -10.7180  -26.3840 C   0  0  0  0  0  1  0  0  0  0  0  0
   -0.4330  -11.5570  -24.2460 N   0  0  0  0  0  0  0  0  0  0  0  0
   -0.0490  -12.4840  -24.3270 H   0  0  0  0  0  0  0  0  0  0  0  0
   -0.7400  -11.0580  -22.9830 C   0  0  0  0  0  0  0  0  0  0  0  0
   -1.3110  -11.9110  -22.1150 N   0  0  0  0  0  0  0  0  0  0  0  0
   -2.0790  -11.3720  -21.1750 C   0  0  0  0  0  3  0  0  0  0  0  0
   -2.4220  -10.0870  -21.1270 N   0  0  0  0  0  0  0  0  0  0  0  0
   -1.8160   -9.2550  -22.0000 C   0  0  0  0  0  0  0  0  0  0  0  0
   -2.2810   -7.9720  -22.2980 C   0  0  0  0  0  0  0  0  0  0  0  0
   -1.4380   -6.9690  -22.7900 C   0  0  0  0  0  3  0  0  0  0  0  0
   -0.2200   -7.3380  -23.3300 C   0  0  0  0  0  3  0  0  0  0  0  0
    0.0550   -8.6990  -23.4460 C   0  0  0  0  0  3  0  0  0  0  0  0
   -0.7690   -9.6680  -22.8020 C   0  0  0  0  0  0  0  0  0  0  0  0
   -3.6720   -8.0000  -22.8470 C   0  0  0  0  0  0  0  0  0  0  0  0
   -3.8060   -8.1270  -24.2130 N   0  0  0  0  0  0  0  0  0  0  0  0
   -4.6530   -8.0790  -22.1490 O   0  0  0  0  0  0  0  0  0  0  0  0
   -4.7360   -8.3290  -24.5540 H   0  0  0  0  0  0  0  0  0  0  0  0
   -3.0350   -8.2210  -24.8550 H   0  0  0  0  0  0  0  0  0  0  0  0
  1  6  1  0  0  0  0
  2  3  1  0  0  0  0
  2  1  2  0  0  0  0
  3  4  2  0  0  0  0
  4  5  1  0  0  0  0
  5 20  1  0  0  0  0
  6  5  2  0  0  0  0
  7 13  1  0  0  0  0
  7  9  1  0  0  0  0
  8  7  2  0  0  0  0
  9 10  1  0  0  0  0
  9  1  1  0  0  0  0
 11 12  1  0  0  0  0
 11 18  1  0  0  0  0
 13 12  2  0  0  0  0
 14 15  1  0  0  0  0
 14 13  1  0  0  0  0
 15 11  2  0  0  0  0
 16 14  1  0  0  0  0
 18 17  1  0  0  0  0
 18 19  1  0  0  0  0
 20 21  1  6  0  0  0
 20 22  1  0  0  0  0
 22 24  1  0  0  0  0
 23 22  1  0  0  0  0
 24 33  2  0  0  0  0
 24 25  1  0  0  0  0
 25 26  2  0  0  0  0
 26 27  1  0  0  0  0
 28 27  2  0  0  0  0
 29 28  1  0  0  0  0
 30 29  2  0  0  0  0
 31 30  1  0  0  0  0
 32 31  2  0  0  0  0
 32 33  1  0  0  0  0
 33 28  1  0  0  0  0
 34 29  1  0  0  0  0
 34 36  2  0  0  0  0
 35 34  1  0  0  0  0
 37 35  1  0  0  0  0
 38 35  1  0  0  0  0
M  END
>  <minimizedAffinity>
-6.88048315

$$$$

 OpenBabel10152418153D

 38 41  0  0  1  0  0  0  0  0999 V2000
   -1.1570   -9.8600  -22.9480 C   0  0  0  0  0  0  0  0  0  0  0  0
   -1.5250  -10.0250  -21.6090 C   0  0  0  0  0  3  0  0  0  0  0  0
   -1.6350   -8.9240  -20.7630 C   0  0  0  0  0  3  0  0  0  0  0  0
   -1.4580   -7.6370  -21.2660 C   0  0  0  0  0  3  0  0  0  0  0  0
   -1.1510   -7.4310  -22.6240 C   0  0  0  0  0  0  0  0  0  0  0  0
   -0.9400   -8.5670  -23.4480 C   0  0  0  0  0  3  0  0  0  0  0  0
   -0.6990  -11.3230  -24.9780 C   0  0  0  0  0  0  0  0  0  0  0  0
   -1.3720  -12.0360  -25.7250 O   0  0  0  0  0  0  0  0  0  0  0  0
   -1.2230  -11.0120  -23.7500 N   0  0  0  0  0  0  0  0  0  0  0  0
   -1.8950  -11.7110  -23.4550 H   0  0  0  0  0  0  0  0  0  0  0  0
    2.7740  -10.8090  -26.0230 C   0  0  0  0  0  0  0  0  0  0  0  0
    1.7670  -11.7590  -25.6940 C   0  0  0  0  0  3  0  0  0  0  0  0
    0.6720  -11.0210  -25.2910 C   0  0  0  0  0  0  0  0  0  0  0  0
    1.0920   -9.7190  -25.3690 N   0  0  0  0  0  0  0  0  0  0  0  0
    2.3470   -9.5590  -25.8090 N   0  0  0  0  0  0  0  0  0  0  0  0
    0.5350   -8.8920  -25.1770 H   0  0  0  0  0  0  0  0  0  0  0  0
    4.1710  -12.0080  -27.6990 C   0  0  0  0  0  1  0  0  0  0  0  0
    4.1790  -11.0390  -26.5120 C   0  0  0  0  0  3  0  0  0  0  0  0
    4.9480   -9.7390  -26.7790 C   0  0  0  0  0  1  0  0  0  0  0  0
   -1.2280   -6.0250  -23.2380 C   0  0  1  0  0  3  0  0  0  0  0  0
   -0.9820   -4.9680  -22.1570 C   0  0  0  0  0  1  0  0  0  0  0  0
   -0.2430   -5.8120  -24.3000 N   0  0  0  0  0  0  0  0  0  0  0  0
    0.7310   -5.7480  -24.0560 H   0  0  0  0  0  0  0  0  0  0  0  0
   -0.5940   -6.2440  -25.5770 C   0  0  0  0  0  0  0  0  0  0  0  0
   -1.0870   -7.4900  -25.6830 N   0  0  0  0  0  0  0  0  0  0  0  0
   -0.9120   -8.0970  -26.8520 C   0  0  0  0  0  3  0  0  0  0  0  0
   -0.1750   -7.6150  -27.8490 N   0  0  0  0  0  0  0  0  0  0  0  0
    0.2890   -6.3540  -27.7180 C   0  0  0  0  0  0  0  0  0  0  0  0
    1.3160   -5.8220  -28.5000 C   0  0  0  0  0  0  0  0  0  0  0  0
    1.4590   -4.4450  -28.7060 C   0  0  0  0  0  3  0  0  0  0  0  0
    0.8080   -3.5780  -27.8480 C   0  0  0  0  0  3  0  0  0  0  0  0
    0.1270   -4.1270  -26.7630 C   0  0  0  0  0  3  0  0  0  0  0  0
   -0.1070   -5.5310  -26.6810 C   0  0  0  0  0  0  0  0  0  0  0  0
    2.5810   -6.6080  -28.3620 C   0  0  0  0  0  0  0  0  0  0  0  0
    3.0370   -6.8460  -27.0830 N   0  0  0  0  0  0  0  0  0  0  0  0
    3.1140   -7.1650  -29.2900 O   0  0  0  0  0  0  0  0  0  0  0  0
    3.7800   -7.5260  -26.9920 H   0  0  0  0  0  0  0  0  0  0  0  0
    2.5660   -6.5440  -26.2440 H   0  0  0  0  0  0  0  0  0  0  0  0
  1  2  1  0  0  0  0
  2  3  2  0  0  0  0
  4  3  1  0  0  0  0
  5  4  2  0  0  0  0
  6  1  2  0  0  0  0
  6  5  1  0  0  0  0
  7  9  1  0  0  0  0
  8  7  2  0  0  0  0
  9 10  1  0  0  0  0
  9  1  1  0  0  0  0
 11 15  2  0  0  0  0
 11 12  1  0  0  0  0
 12 13  2  0  0  0  0
 13  7  1  0  0  0  0
 14 13  1  0  0  0  0
 14 16  1  0  0  0  0
 15 14  1  0  0  0  0
 17 18  1  0  0  0  0
 18 11  1  0  0  0  0
 19 18  1  0  0  0  0
 20  5  1  0  0  0  0
 20 21  1  1  0  0  0
 22 23  1  0  0  0  0
 22 20  1  0  0  0  0
 24 22  1  0  0  0  0
 25 24  1  0  0  0  0
 26 25  2  0  0  0  0
 27 28  2  0  0  0  0
 27 26  1  0  0  0  0
 28 33  1  0  0  0  0
 29 34  1  0  0  0  0
 29 28  1  0  0  0  0
 30 29  2  0  0  0  0
 30 31  1  0  0  0  0
 31 32  2  0  0  0  0
 32 33  1  0  0  0  0
 33 24  2  0  0  0  0
 34 35  1  0  0  0  0
 35 37  1  0  0  0  0
 35 38  1  0  0  0  0
 36 34  2  0  0  0  0
M  END
>  <minimizedAffinity>
-6.23186541

$$$$

 OpenBabel10152418153D

 38 41  0  0  1  0  0  0  0  0999 V2000
    1.6220  -10.9860  -25.3030 C   0  0  0  0  0  0  0  0  0  0  0  0
    1.0430  -11.4530  -26.4870 C   0  0  0  0  0  3  0  0  0  0  0  0
   -0.3160  -11.2740  -26.7320 C   0  0  0  0  0  3  0  0  0  0  0  0
   -1.0980  -10.5540  -25.8310 C   0  0  0  0  0  3  0  0  0  0  0  0
   -0.5340  -10.0130  -24.6610 C   0  0  0  0  0  0  0  0  0  0  0  0
    0.8280  -10.2930  -24.3760 C   0  0  0  0  0  3  0  0  0  0  0  0
    3.9860  -11.4080  -26.1390 C   0  0  0  0  0  0  0  0  0  0  0  0
    4.9670  -12.0390  -25.7400 O   0  0  0  0  0  0  0  0  0  0  0  0
    3.0210  -11.0810  -25.2230 N   0  0  0  0  0  0  0  0  0  0  0  0
    3.4070  -11.0440  -24.2860 H   0  0  0  0  0  0  0  0  0  0  0  0
    4.1860   -9.7400  -29.3940 C   0  0  0  0  0  0  0  0  0  0  0  0
    4.1130   -9.5730  -27.9830 C   0  0  0  0  0  3  0  0  0  0  0  0
    3.9670  -10.8430  -27.4620 C   0  0  0  0  0  0  0  0  0  0  0  0
    3.9300  -11.6600  -28.5610 N   0  0  0  0  0  0  0  0  0  0  0  0
    4.0630  -11.0290  -29.7350 N   0  0  0  0  0  0  0  0  0  0  0  0
    3.8620  -12.6730  -28.5590 H   0  0  0  0  0  0  0  0  0  0  0  0
    3.3210   -8.9500  -31.5920 C   0  0  0  0  0  1  0  0  0  0  0  0
    4.3370   -8.7000  -30.4710 C   0  0  0  0  0  3  0  0  0  0  0  0
    4.3220   -7.2640  -29.9310 C   0  0  0  0  0  1  0  0  0  0  0  0
   -1.3150   -8.9960  -23.8160 C   0  0  1  0  0  3  0  0  0  0  0  0
   -2.2660   -9.7270  -22.8630 C   0  0  0  0  0  1  0  0  0  0  0  0
   -0.4450   -8.1400  -23.0050 N   0  0  0  0  0  0  0  0  0  0  0  0
    0.2030   -8.5710  -22.3660 H   0  0  0  0  0  0  0  0  0  0  0  0
   -0.1550   -6.8770  -23.5150 C   0  0  0  0  0  0  0  0  0  0  0  0
   -1.0260   -5.8930  -23.2320 N   0  0  0  0  0  0  0  0  0  0  0  0
   -1.0870   -4.8900  -24.1000 C   0  0  0  0  0  3  0  0  0  0  0  0
   -0.4580   -4.8690  -25.2730 N   0  0  0  0  0  0  0  0  0  0  0  0
    0.4240   -5.8620  -25.5170 C   0  0  0  0  0  0  0  0  0  0  0  0
    0.9160   -6.1650  -26.7880 C   0  0  0  0  0  0  0  0  0  0  0  0
    2.1360   -6.8240  -26.9770 C   0  0  0  0  0  3  0  0  0  0  0  0
    2.6920   -7.5020  -25.9080 C   0  0  0  0  0  3  0  0  0  0  0  0
    1.9530   -7.5760  -24.7300 C   0  0  0  0  0  3  0  0  0  0  0  0
    0.7900   -6.7730  -24.5450 C   0  0  0  0  0  0  0  0  0  0  0  0
   -0.1840   -6.5190  -27.7380 C   0  0  0  0  0  0  0  0  0  0  0  0
   -0.5700   -5.5510  -28.6410 N   0  0  0  0  0  0  0  0  0  0  0  0
   -0.6210   -7.6370  -27.8510 O   0  0  0  0  0  0  0  0  0  0  0  0
   -1.1760   -5.8560  -29.3910 H   0  0  0  0  0  0  0  0  0  0  0  0
   -0.1480   -4.6390  -28.7140 H   0  0  0  0  0  0  0  0  0  0  0  0
  1  9  1  0  0  0  0
  1  6  1  0  0  0  0
  2  1  2  0  0  0  0
  3  2  1  0  0  0  0
  3  4  2  0  0  0  0
  4  5  1  0  0  0  0
  5  6  2  0  0  0  0
  5 20  1  0  0  0  0
  7  8  2  0  0  0  0
  7  9  1  0  0  0  0
  9 10  1  0  0  0  0
 11 12  1  0  0  0  0
 12 13  2  0  0  0  0
 13  7  1  0  0  0  0
 14 16  1  0  0  0  0
 14 13  1  0  0  0  0
 15 11  2  0  0  0  0
 15 14  1  0  0  0  0
 17 18  1  0  0  0  0
 18 19  1  0  0  0  0
 18 11  1  0  0  0  0
 20 22  1  0  0  0  0
 20 21  1  1  0  0  0
 22 23  1  0  0  0  0
 24 25  1  0  0  0  0
 24 22  1  0  0  0  0
 26 25  2  0  0  0  0
 27 26  1  0  0  0  0
 28 27  2  0  0  0  0
 28 33  1  0  0  0  0
 29 28  1  0  0  0  0
 30 29  2  0  0  0  0
 30 31  1  0  0  0  0
 31 32  2  0  0  0  0
 32 33  1  0  0  0  0
 33 24  2  0  0  0  0
 34 29  1  0  0  0  0
 35 34  1  0  0  0  0
 36 34  2  0  0  0  0
 37 35  1  0  0  0  0
 38 35  1  0  0  0  0
M  END
>  <minimizedAffinity>
-5.93607426

$$$$
