
 OpenBabel10152418153D

 38 41  0  0  1  0  0  0  0  0999 V2000
   -0.3260   -5.7260  -24.4730 C   0  0  0  0  0  0  0  0  0  0  0  0
   -1.0100   -4.5210  -24.6630 C   0  0  0  0  0  3  0  0  0  0  0  0
   -0.9210   -3.8380  -25.8730 C   0  0  0  0  0  3  0  0  0  0  0  0
   -0.2120   -4.3920  -26.9380 C   0  0  0  0  0  3  0  0  0  0  0  0
    0.4340   -5.6350  -26.8020 C   0  0  0  0  0  0  0  0  0  0  0  0
    0.4210   -6.2670  -25.5310 C   0  0  0  0  0  3  0  0  0  0  0  0
   -1.2070   -7.6080  -23.0080 C   0  0  0  0  0  0  0  0  0  0  0  0
   -1.8950   -7.6880  -21.9880 O   0  0  0  0  0  0  0  0  0  0  0  0
   -0.6020   -6.4090  -23.2760 N   0  0  0  0  0  0  0  0  0  0  0  0
   -0.4660   -5.8720  -22.4280 H   0  0  0  0  0  0  0  0  0  0  0  0
   -0.1440  -10.7080  -24.6450 C   0  0  0  0  0  0  0  0  0  0  0  0
    0.2610   -9.5660  -23.8970 C   0  0  0  0  0  3  0  0  0  0  0  0
   -0.8700   -8.7880  -23.7590 C   0  0  0  0  0  0  0  0  0  0  0  0
   -1.8410   -9.4740  -24.4400 N   0  0  0  0  0  0  0  0  0  0  0  0
   -1.4380  -10.6310  -24.9790 N   0  0  0  0  0  0  0  0  0  0  0  0
   -2.8190   -9.2130  -24.5250 H   0  0  0  0  0  0  0  0  0  0  0  0
    0.8350  -11.8560  -26.6260 C   0  0  0  0  0  1  0  0  0  0  0  0
    0.6720  -11.8860  -25.1030 C   0  0  0  0  0  3  0  0  0  0  0  0
    1.9960  -12.0380  -24.3420 C   0  0  0  0  0  1  0  0  0  0  0  0
    0.9750   -6.3730  -28.0350 C   0  0  1  0  0  3  0  0  0  0  0  0
    1.8890   -5.4450  -28.8410 C   0  0  0  0  0  1  0  0  0  0  0  0
    1.7470   -7.5690  -27.6910 N   0  0  0  0  0  0  0  0  0  0  0  0
    1.2560   -8.4160  -27.4620 H   0  0  0  0  0  0  0  0  0  0  0  0
    3.0380   -7.6530  -28.2090 C   0  0  0  0  0  0  0  0  0  0  0  0
    3.3230   -6.8650  -29.2610 N   0  0  0  0  0  0  0  0  0  0  0  0
    4.2790   -7.2930  -30.0770 C   0  0  0  0  0  3  0  0  0  0  0  0
    4.8580   -8.4890  -29.9990 N   0  0  0  0  0  0  0  0  0  0  0  0
    4.5640   -9.2460  -28.9210 C   0  0  0  0  0  0  0  0  0  0  0  0
    4.8210  -10.6160  -28.8430 C   0  0  0  0  0  0  0  0  0  0  0  0
    4.9730  -11.2780  -27.6200 C   0  0  0  0  0  3  0  0  0  0  0  0
    4.5120  -10.6590  -26.4730 C   0  0  0  0  0  3  0  0  0  0  0  0
    3.8290   -9.4530  -26.6150 C   0  0  0  0  0  3  0  0  0  0  0  0
    3.8270   -8.7560  -27.8590 C   0  0  0  0  0  0  0  0  0  0  0  0
    4.1200  -11.3740  -29.9260 C   0  0  0  0  0  0  0  0  0  0  0  0
    4.7510  -11.4510  -31.1490 N   0  0  0  0  0  0  0  0  0  0  0  0
    3.1320  -12.0380  -29.7300 O   0  0  0  0  0  0  0  0  0  0  0  0
    4.3640  -12.1120  -31.8110 H   0  0  0  0  0  0  0  0  0  0  0  0
    5.6530  -11.0510  -31.3510 H   0  0  0  0  0  0  0  0  0  0  0  0
  1  9  1  0  0  0  0
  2  1  1  0  0  0  0
  3  2  2  0  0  0  0
  4  5  2  0  0  0  0
  4  3  1  0  0  0  0
  5  6  1  0  0  0  0
  6  1  2  0  0  0  0
  7  8  2  0  0  0  0
  9  7  1  0  0  0  0
  9 10  1  0  0  0  0
 11 12  1  0  0  0  0
 12 13  2  0  0  0  0
 13  7  1  0  0  0  0
 14 13  1  0  0  0  0
 15 11  2  0  0  0  0
 15 14  1  0  0  0  0
 16 14  1  0  0  0  0
 17 18  1  0  0  0  0
 18 11  1  0  0  0  0
 18 19  1  0  0  0  0
 20 21  1  1  0  0  0
 20 22  1  0  0  0  0
 20  5  1  0  0  0  0
 22 23  1  0  0  0  0
 24 33  1  0  0  0  0
 24 22  1  0  0  0  0
 25 24  2  0  0  0  0
 26 27  2  0  0  0  0
 26 25  1  0  0  0  0
 27 28  1  0  0  0  0
 28 29  2  0  0  0  0
 28 33  1  0  0  0  0
 29 30  1  0  0  0  0
 30 31  2  0  0  0  0
 32 31  1  0  0  0  0
 33 32  2  0  0  0  0
 34 36  2  0  0  0  0
 34 29  1  0  0  0  0
 35 34  1  0  0  0  0
 37 35  1  0  0  0  0
 38 35  1  0  0  0  0
M  END
>  <minimizedAffinity>
-7.06433487

$$$$
