
 OpenBabel10152418153D

 38 41  0  0  1  0  0  0  0  0999 V2000
    1.6220  -10.9860  -25.3030 C   0  0  0  0  0  0  0  0  0  0  0  0
    1.0430  -11.4530  -26.4870 C   0  0  0  0  0  3  0  0  0  0  0  0
   -0.3160  -11.2740  -26.7320 C   0  0  0  0  0  3  0  0  0  0  0  0
   -1.0980  -10.5540  -25.8310 C   0  0  0  0  0  3  0  0  0  0  0  0
   -0.5340  -10.0130  -24.6610 C   0  0  0  0  0  0  0  0  0  0  0  0
    0.8280  -10.2930  -24.3760 C   0  0  0  0  0  3  0  0  0  0  0  0
    3.9860  -11.4080  -26.1390 C   0  0  0  0  0  0  0  0  0  0  0  0
    4.9670  -12.0390  -25.7400 O   0  0  0  0  0  0  0  0  0  0  0  0
    3.0210  -11.0810  -25.2230 N   0  0  0  0  0  0  0  0  0  0  0  0
    3.4070  -11.0440  -24.2860 H   0  0  0  0  0  0  0  0  0  0  0  0
    4.1860   -9.7400  -29.3940 C   0  0  0  0  0  0  0  0  0  0  0  0
    4.1130   -9.5730  -27.9830 C   0  0  0  0  0  3  0  0  0  0  0  0
    3.9670  -10.8430  -27.4620 C   0  0  0  0  0  0  0  0  0  0  0  0
    3.9300  -11.6600  -28.5610 N   0  0  0  0  0  0  0  0  0  0  0  0
    4.0630  -11.0290  -29.7350 N   0  0  0  0  0  0  0  0  0  0  0  0
    3.8620  -12.6730  -28.5590 H   0  0  0  0  0  0  0  0  0  0  0  0
    3.3210   -8.9500  -31.5920 C   0  0  0  0  0  1  0  0  0  0  0  0
    4.3370   -8.7000  -30.4710 C   0  0  0  0  0  3  0  0  0  0  0  0
    4.3220   -7.2640  -29.9310 C   0  0  0  0  0  1  0  0  0  0  0  0
   -1.3150   -8.9960  -23.8160 C   0  0  1  0  0  3  0  0  0  0  0  0
   -2.2660   -9.7270  -22.8630 C   0  0  0  0  0  1  0  0  0  0  0  0
   -0.4450   -8.1400  -23.0050 N   0  0  0  0  0  0  0  0  0  0  0  0
    0.2030   -8.5710  -22.3660 H   0  0  0  0  0  0  0  0  0  0  0  0
   -0.1550   -6.8770  -23.5150 C   0  0  0  0  0  0  0  0  0  0  0  0
   -1.0260   -5.8930  -23.2320 N   0  0  0  0  0  0  0  0  0  0  0  0
   -1.0870   -4.8900  -24.1000 C   0  0  0  0  0  3  0  0  0  0  0  0
   -0.4580   -4.8690  -25.2730 N   0  0  0  0  0  0  0  0  0  0  0  0
    0.4240   -5.8620  -25.5170 C   0  0  0  0  0  0  0  0  0  0  0  0
    0.9160   -6.1650  -26.7880 C   0  0  0  0  0  0  0  0  0  0  0  0
    2.1360   -6.8240  -26.9770 C   0  0  0  0  0  3  0  0  0  0  0  0
    2.6920   -7.5020  -25.9080 C   0  0  0  0  0  3  0  0  0  0  0  0
    1.9530   -7.5760  -24.7300 C   0  0  0  0  0  3  0  0  0  0  0  0
    0.7900   -6.7730  -24.5450 C   0  0  0  0  0  0  0  0  0  0  0  0
   -0.1840   -6.5190  -27.7380 C   0  0  0  0  0  0  0  0  0  0  0  0
   -0.5700   -5.5510  -28.6410 N   0  0  0  0  0  0  0  0  0  0  0  0
   -0.6210   -7.6370  -27.8510 O   0  0  0  0  0  0  0  0  0  0  0  0
   -1.1760   -5.8560  -29.3910 H   0  0  0  0  0  0  0  0  0  0  0  0
   -0.1480   -4.6390  -28.7140 H   0  0  0  0  0  0  0  0  0  0  0  0
  1  9  1  0  0  0  0
  1  6  1  0  0  0  0
  2  1  2  0  0  0  0
  3  2  1  0  0  0  0
  3  4  2  0  0  0  0
  4  5  1  0  0  0  0
  5  6  2  0  0  0  0
  5 20  1  0  0  0  0
  7  8  2  0  0  0  0
  7  9  1  0  0  0  0
  9 10  1  0  0  0  0
 11 12  1  0  0  0  0
 12 13  2  0  0  0  0
 13  7  1  0  0  0  0
 14 16  1  0  0  0  0
 14 13  1  0  0  0  0
 15 11  2  0  0  0  0
 15 14  1  0  0  0  0
 17 18  1  0  0  0  0
 18 19  1  0  0  0  0
 18 11  1  0  0  0  0
 20 22  1  0  0  0  0
 20 21  1  1  0  0  0
 22 23  1  0  0  0  0
 24 25  1  0  0  0  0
 24 22  1  0  0  0  0
 26 25  2  0  0  0  0
 27 26  1  0  0  0  0
 28 27  2  0  0  0  0
 28 33  1  0  0  0  0
 29 28  1  0  0  0  0
 30 29  2  0  0  0  0
 30 31  1  0  0  0  0
 31 32  2  0  0  0  0
 32 33  1  0  0  0  0
 33 24  2  0  0  0  0
 34 29  1  0  0  0  0
 35 34  1  0  0  0  0
 36 34  2  0  0  0  0
 37 35  1  0  0  0  0
 38 35  1  0  0  0  0
M  END
>  <minimizedAffinity>
-5.93607426

$$$$
