
 OpenBabel11232420013D

 40 45  0  0  1  0  0  0  0  0999 V2000
    1.9920    9.4390   -3.4320 C   0  0  0  0  0  0  0  0  0  0  0  0
    2.8280    9.9330   -2.4410 C   0  0  0  0  0  3  0  0  0  0  0  0
    4.1700   10.0080   -2.5700 N   0  0  0  0  0  0  0  0  0  0  0  0
    4.7010    9.5740   -3.7400 C   0  0  0  0  0  3  0  0  0  0  0  0
    3.9480    9.0830   -4.8040 C   0  0  0  0  0  0  0  0  0  0  0  0
    2.5590    9.0490   -4.6410 C   0  0  0  0  0  3  0  0  0  0  0  0
    4.5620    8.5360   -6.0120 C   0  0  0  0  0  0  0  0  0  0  0  0
    5.1890    9.3780   -6.9600 C   0  0  0  0  0  3  0  0  0  0  0  0
    5.7070    8.8660   -8.1560 C   0  0  0  0  0  3  0  0  0  0  0  0
    5.5720    7.5130   -8.3800 C   0  0  0  0  0  0  0  0  0  0  0  0
    4.9620    6.6620   -7.4630 C   0  0  0  0  0  0  0  0  0  0  0  0
    4.4670    7.1570   -6.2690 C   0  0  0  0  0  3  0  0  0  0  0  0
    4.9650    5.2480   -7.9970 C   0  0  2  0  0  3  0  0  0  0  0  0
    5.6580    5.4440   -9.3670 C   0  0  0  0  0  0  0  0  0  0  0  0
    5.8960    4.5960  -10.2130 O   0  0  0  0  0  0  0  0  0  0  0  0
    5.9780    6.7940   -9.4900 N   0  0  0  0  0  0  0  0  0  0  0  0
    6.4430    7.1700  -10.3040 H   0  0  0  0  0  0  0  0  0  0  0  0
    3.6040    4.6570   -8.1510 C   0  0  0  0  0  0  0  0  0  0  0  0
    2.3130    5.1410   -8.0520 C   0  0  0  0  0  3  0  0  0  0  0  0
    1.4480    4.0580   -8.3400 C   0  0  0  0  0  3  0  0  0  0  0  0
    2.2570    2.9800   -8.6020 C   0  0  0  0  0  3  0  0  0  0  0  0
    3.5630    3.3310   -8.4980 O   0  0  0  0  0  0  0  0  0  0  0  0
    0.6390    9.3120   -3.3130 O   0  0  0  0  0  0  0  0  0  0  0  0
    0.1710    7.9840   -3.6170 C   0  0  0  0  0  2  0  0  0  0  0  0
   -0.9030    8.1250   -4.7140 C   0  0  1  0  0  3  0  0  0  0  0  0
   -1.4700    9.5220   -4.6160 N   0  0  0  0  0  4  0  0  0  0  0  0
   -1.9640    9.6680   -3.7270 H   0  0  0  0  0  0  0  0  0  0  0  0
   -2.1200    9.7430   -5.3820 H   0  0  0  0  0  0  0  0  0  0  0  0
   -0.6950   10.2040   -4.6380 H   0  0  0  0  0  0  0  0  0  0  0  0
   -0.3380    7.9280   -6.1360 C   0  0  0  0  0  2  0  0  0  0  0  0
   -1.1140    6.9130   -6.9150 C   0  0  0  0  0  0  0  0  0  0  0  0
   -1.7680    7.1430   -8.1110 C   0  0  0  0  0  3  0  0  0  0  0  0
   -2.3600    5.9730   -8.5110 N   0  0  0  0  0  0  0  0  0  0  0  0
   -2.1150    4.9820   -7.5920 C   0  0  0  0  0  0  0  0  0  0  0  0
   -2.5300    3.6440   -7.5850 C   0  0  0  0  0  3  0  0  0  0  0  0
   -2.1170    2.8420   -6.5200 C   0  0  0  0  0  3  0  0  0  0  0  0
   -1.3120    3.3560   -5.5080 C   0  0  0  0  0  3  0  0  0  0  0  0
   -0.9000    4.6930   -5.5350 C   0  0  0  0  0  3  0  0  0  0  0  0
   -1.3170    5.5330   -6.5880 C   0  0  0  0  0  0  0  0  0  0  0  0
   -2.8950    5.8430   -9.3600 H   0  0  0  0  0  0  0  0  0  0  0  0
  1 23  1  0  0  0  0
  1  2  1  0  0  0  0
  3  2  2  0  0  0  0
  4  3  1  0  0  0  0
  5  6  1  0  0  0  0
  5  4  2  0  0  0  0
  6  1  2  0  0  0  0
  7  5  1  0  0  0  0
  8  7  2  0  0  0  0
  9  8  1  0  0  0  0
 10  9  2  0  0  0  0
 10 11  1  0  0  0  0
 11 12  2  0  0  0  0
 12  7  1  0  0  0  0
 13 18  1  6  0  0  0
 13 11  1  0  0  0  0
 14 13  1  0  0  0  0
 15 14  2  0  0  0  0
 16 14  1  0  0  0  0
 16 10  1  0  0  0  0
 17 16  1  0  0  0  0
 18 19  2  0  0  0  0
 20 19  1  0  0  0  0
 21 22  1  0  0  0  0
 21 20  2  0  0  0  0
 22 18  1  0  0  0  0
 24 23  1  0  0  0  0
 25 30  1  6  0  0  0
 25 26  1  0  0  0  0
 25 24  1  0  0  0  0
 26 27  1  0  0  0  0
 28 26  1  0  0  0  0
 29 26  1  0  0  0  0
 31 39  1  0  0  0  0
 31 30  1  0  0  0  0
 32 31  2  0  0  0  0
 33 32  1  0  0  0  0
 33 34  1  0  0  0  0
 34 35  2  0  0  0  0
 34 39  1  0  0  0  0
 35 36  1  0  0  0  0
 36 37  2  0  0  0  0
 38 37  1  0  0  0  0
 39 38  2  0  0  0  0
 40 33  1  0  0  0  0
M  END
>  <minimizedAffinity>
-10.3167906

$$$$
