
 OpenBabel11232420013D

 40 45  0  0  1  0  0  0  0  0999 V2000
   -1.1910    5.1470   -7.0560 C   0  0  0  0  0  0  0  0  0  0  0  0
   -2.4440    5.2130   -6.4650 C   0  0  0  0  0  3  0  0  0  0  0  0
   -2.7360    6.0280   -5.4290 N   0  0  0  0  0  0  0  0  0  0  0  0
   -1.7330    6.8150   -4.9640 C   0  0  0  0  0  3  0  0  0  0  0  0
   -0.4480    6.8420   -5.5030 C   0  0  0  0  0  0  0  0  0  0  0  0
   -0.1970    6.0020   -6.5930 C   0  0  0  0  0  3  0  0  0  0  0  0
    0.6320    7.6320   -4.9160 C   0  0  0  0  0  0  0  0  0  0  0  0
    0.3860    8.5280   -3.8500 C   0  0  0  0  0  3  0  0  0  0  0  0
    1.4020    9.3460   -3.3390 C   0  0  0  0  0  3  0  0  0  0  0  0
    2.6460    9.2520   -3.9230 C   0  0  0  0  0  0  0  0  0  0  0  0
    2.9160    8.3770   -4.9710 C   0  0  0  0  0  0  0  0  0  0  0  0
    1.9230    7.5500   -5.4670 C   0  0  0  0  0  3  0  0  0  0  0  0
    4.3620    8.5120   -5.3920 C   0  0  2  0  0  3  0  0  0  0  0  0
    4.8550    9.6150   -4.4250 C   0  0  0  0  0  0  0  0  0  0  0  0
    5.9710   10.1090   -4.3610 O   0  0  0  0  0  0  0  0  0  0  0  0
    3.7850    9.9720   -3.6070 N   0  0  0  0  0  0  0  0  0  0  0  0
    3.8630   10.6760   -2.8870 H   0  0  0  0  0  0  0  0  0  0  0  0
    4.5410    8.9120   -6.8170 C   0  0  0  0  0  0  0  0  0  0  0  0
    4.1400    9.9880   -7.5870 C   0  0  0  0  0  3  0  0  0  0  0  0
    4.6640    9.7800   -8.8850 C   0  0  0  0  0  3  0  0  0  0  0  0
    5.3570    8.5950   -8.8330 C   0  0  0  0  0  3  0  0  0  0  0  0
    5.2960    8.0660   -7.5860 O   0  0  0  0  0  0  0  0  0  0  0  0
   -0.8570    4.3030   -8.0750 O   0  0  0  0  0  0  0  0  0  0  0  0
   -0.0990    3.1610   -7.6320 C   0  0  0  0  0  2  0  0  0  0  0  0
    0.6790    2.6340   -8.8540 C   0  0  1  0  0  3  0  0  0  0  0  0
   -0.3300    2.0500   -9.8150 N   0  0  0  0  0  4  0  0  0  0  0  0
   -0.8020    1.2290   -9.4150 H   0  0  0  0  0  0  0  0  0  0  0  0
    0.0880    1.7710  -10.7110 H   0  0  0  0  0  0  0  0  0  0  0  0
   -1.0650    2.7510  -10.0020 H   0  0  0  0  0  0  0  0  0  0  0  0
    1.4650    3.7400   -9.5870 C   0  0  0  0  0  2  0  0  0  0  0  0
    2.7300    4.0990   -8.8760 C   0  0  0  0  0  0  0  0  0  0  0  0
    2.9590    5.2700   -8.1780 C   0  0  0  0  0  3  0  0  0  0  0  0
    4.2310    5.2280   -7.6690 N   0  0  0  0  0  0  0  0  0  0  0  0
    4.8460    4.0540   -8.0310 C   0  0  0  0  0  0  0  0  0  0  0  0
    6.1380    3.5960   -7.7460 C   0  0  0  0  0  3  0  0  0  0  0  0
    6.5020    2.3380   -8.2320 C   0  0  0  0  0  3  0  0  0  0  0  0
    5.6040    1.5680   -8.9640 C   0  0  0  0  0  3  0  0  0  0  0  0
    4.3140    2.0390   -9.2320 C   0  0  0  0  0  3  0  0  0  0  0  0
    3.9240    3.3130   -8.7710 C   0  0  0  0  0  0  0  0  0  0  0  0
    4.6630    5.9460   -7.1010 H   0  0  0  0  0  0  0  0  0  0  0  0
  1  6  2  0  0  0  0
  1  2  1  0  0  0  0
  2  3  2  0  0  0  0
  3  4  1  0  0  0  0
  5  4  2  0  0  0  0
  5  7  1  0  0  0  0
  6  5  1  0  0  0  0
  7  8  1  0  0  0  0
  8  9  2  0  0  0  0
 10 16  1  0  0  0  0
 10  9  1  0  0  0  0
 11 10  2  0  0  0  0
 12 11  1  0  0  0  0
 12  7  2  0  0  0  0
 13 18  1  6  0  0  0
 13 11  1  0  0  0  0
 13 14  1  0  0  0  0
 14 15  2  0  0  0  0
 14 16  1  0  0  0  0
 16 17  1  0  0  0  0
 19 18  2  0  0  0  0
 20 21  2  0  0  0  0
 20 19  1  0  0  0  0
 21 22  1  0  0  0  0
 22 18  1  0  0  0  0
 23 24  1  0  0  0  0
 23  1  1  0  0  0  0
 25 30  1  6  0  0  0
 25 24  1  0  0  0  0
 26 27  1  0  0  0  0
 26 25  1  0  0  0  0
 28 26  1  0  0  0  0
 29 26  1  0  0  0  0
 30 31  1  0  0  0  0
 31 39  1  0  0  0  0
 31 32  2  0  0  0  0
 32 33  1  0  0  0  0
 33 40  1  0  0  0  0
 34 35  1  0  0  0  0
 34 33  1  0  0  0  0
 36 35  2  0  0  0  0
 37 36  1  0  0  0  0
 38 37  2  0  0  0  0
 38 39  1  0  0  0  0
 39 34  2  0  0  0  0
M  END
>  <minimizedAffinity>
-9.97230244

$$$$
