
 OpenBabel11232420013D

 40 45  0  0  1  0  0  0  0  0999 V2000
    0.7590    8.4310   -4.0890 C   0  0  0  0  0  0  0  0  0  0  0  0
    1.3110    9.0420   -2.9720 C   0  0  0  0  0  3  0  0  0  0  0  0
    2.6000    9.4380   -2.9030 N   0  0  0  0  0  0  0  0  0  0  0  0
    3.3710    9.2180   -3.9960 C   0  0  0  0  0  3  0  0  0  0  0  0
    2.9080    8.6340   -5.1740 C   0  0  0  0  0  0  0  0  0  0  0  0
    1.5590    8.2640   -5.2140 C   0  0  0  0  0  3  0  0  0  0  0  0
    3.7910    8.3260   -6.2960 C   0  0  0  0  0  0  0  0  0  0  0  0
    4.1810    9.3260   -7.2170 C   0  0  0  0  0  3  0  0  0  0  0  0
    4.9610    9.0180   -8.3380 C   0  0  0  0  0  3  0  0  0  0  0  0
    5.3250    7.7010   -8.5160 C   0  0  0  0  0  0  0  0  0  0  0  0
    4.9580    6.6980   -7.6250 C   0  0  0  0  0  0  0  0  0  0  0  0
    4.2050    6.9980   -6.5020 C   0  0  0  0  0  3  0  0  0  0  0  0
    5.5030    5.3690   -8.0960 C   0  0  2  0  0  3  0  0  0  0  0  0
    6.2190    5.7840   -9.4040 C   0  0  0  0  0  0  0  0  0  0  0  0
    6.8200    5.0660  -10.1880 O   0  0  0  0  0  0  0  0  0  0  0  0
    6.0640    7.1610   -9.5530 N   0  0  0  0  0  0  0  0  0  0  0  0
    6.4500    7.6690  -10.3360 H   0  0  0  0  0  0  0  0  0  0  0  0
    4.4530    4.3410   -8.3490 C   0  0  0  0  0  0  0  0  0  0  0  0
    3.1140    4.3770   -8.6910 C   0  0  0  0  0  3  0  0  0  0  0  0
    2.6850    3.0320   -8.8060 C   0  0  0  0  0  3  0  0  0  0  0  0
    3.7850    2.2550   -8.5350 C   0  0  0  0  0  3  0  0  0  0  0  0
    4.8610    3.0350   -8.2650 O   0  0  0  0  0  0  0  0  0  0  0  0
   -0.5270    7.9820   -4.1710 O   0  0  0  0  0  0  0  0  0  0  0  0
   -0.9670    7.7860   -5.5290 C   0  0  0  0  0  2  0  0  0  0  0  0
   -1.4090    6.3150   -5.6530 C   0  0  1  0  0  3  0  0  0  0  0  0
   -2.6500    6.1430   -4.8070 N   0  0  0  0  0  4  0  0  0  0  0  0
   -2.4500    6.2870   -3.8090 H   0  0  0  0  0  0  0  0  0  0  0  0
   -3.0800    5.2160   -4.9150 H   0  0  0  0  0  0  0  0  0  0  0  0
   -3.3440    6.8590   -5.0760 H   0  0  0  0  0  0  0  0  0  0  0  0
   -1.7490    5.9100   -7.1020 C   0  0  0  0  0  2  0  0  0  0  0  0
   -1.6830    4.4290   -7.3030 C   0  0  0  0  0  0  0  0  0  0  0  0
   -0.5260    3.6820   -7.4210 C   0  0  0  0  0  3  0  0  0  0  0  0
   -0.8750    2.3680   -7.5930 N   0  0  0  0  0  0  0  0  0  0  0  0
   -2.2430    2.2410   -7.6020 C   0  0  0  0  0  0  0  0  0  0  0  0
   -3.0340    1.0970   -7.7600 C   0  0  0  0  0  3  0  0  0  0  0  0
   -4.4210    1.2550   -7.7110 C   0  0  0  0  0  3  0  0  0  0  0  0
   -4.9900    2.5070   -7.5000 C   0  0  0  0  0  3  0  0  0  0  0  0
   -4.1830    3.6390   -7.3360 C   0  0  0  0  0  3  0  0  0  0  0  0
   -2.7800    3.5130   -7.4010 C   0  0  0  0  0  0  0  0  0  0  0  0
   -0.2300    1.5950   -7.6920 H   0  0  0  0  0  0  0  0  0  0  0  0
  1  2  1  0  0  0  0
  2  3  2  0  0  0  0
  4  3  1  0  0  0  0
  5  4  2  0  0  0  0
  6  5  1  0  0  0  0
  6  1  2  0  0  0  0
  7  5  1  0  0  0  0
  8  7  2  0  0  0  0
  9  8  1  0  0  0  0
 10  9  2  0  0  0  0
 10 11  1  0  0  0  0
 11 12  2  0  0  0  0
 12  7  1  0  0  0  0
 13 18  1  6  0  0  0
 13 11  1  0  0  0  0
 14 13  1  0  0  0  0
 15 14  2  0  0  0  0
 16 14  1  0  0  0  0
 16 10  1  0  0  0  0
 17 16  1  0  0  0  0
 18 22  1  0  0  0  0
 19 18  2  0  0  0  0
 20 19  1  0  0  0  0
 20 21  2  0  0  0  0
 21 22  1  0  0  0  0
 23  1  1  0  0  0  0
 24 23  1  0  0  0  0
 25 30  1  6  0  0  0
 25 24  1  0  0  0  0
 25 26  1  0  0  0  0
 26 27  1  0  0  0  0
 28 26  1  0  0  0  0
 29 26  1  0  0  0  0
 31 30  1  0  0  0  0
 32 31  2  0  0  0  0
 33 32  1  0  0  0  0
 34 33  1  0  0  0  0
 34 39  1  0  0  0  0
 35 36  1  0  0  0  0
 35 34  2  0  0  0  0
 36 37  2  0  0  0  0
 37 38  1  0  0  0  0
 39 38  2  0  0  0  0
 39 31  1  0  0  0  0
 40 33  1  0  0  0  0
M  END
>  <minimizedAffinity>
-9.93675232

$$$$
