
 OpenBabel11232420013D

 40 45  0  0  1  0  0  0  0  0999 V2000
    2.1430    8.7310   -4.3490 C   0  0  0  0  0  0  0  0  0  0  0  0
    1.4850    9.2690   -3.2540 C   0  0  0  0  0  3  0  0  0  0  0  0
    0.1670    9.0910   -3.0180 N   0  0  0  0  0  0  0  0  0  0  0  0
   -0.5230    8.3410   -3.9130 C   0  0  0  0  0  3  0  0  0  0  0  0
    0.0490    7.7380   -5.0310 C   0  0  0  0  0  0  0  0  0  0  0  0
    1.4220    7.9240   -5.2230 C   0  0  0  0  0  3  0  0  0  0  0  0
   -0.7440    7.0170   -6.0250 C   0  0  0  0  0  0  0  0  0  0  0  0
   -0.8890    7.5090   -7.3420 C   0  0  0  0  0  3  0  0  0  0  0  0
   -1.7130    6.8630   -8.2720 C   0  0  0  0  0  3  0  0  0  0  0  0
   -2.3850    5.7370   -7.8510 C   0  0  0  0  0  0  0  0  0  0  0  0
   -2.2590    5.2300   -6.5610 C   0  0  0  0  0  0  0  0  0  0  0  0
   -1.4290    5.8510   -5.6420 C   0  0  0  0  0  3  0  0  0  0  0  0
   -3.1210    3.9980   -6.4080 C   0  0  2  0  0  3  0  0  0  0  0  0
   -3.7660    3.9050   -7.8120 C   0  0  0  0  0  0  0  0  0  0  0  0
   -4.5690    3.0770   -8.2120 O   0  0  0  0  0  0  0  0  0  0  0  0
   -3.2670    4.9560   -8.5780 N   0  0  0  0  0  0  0  0  0  0  0  0
   -3.5390    5.1050   -9.5380 H   0  0  0  0  0  0  0  0  0  0  0  0
   -4.1530    4.1120   -5.3370 C   0  0  0  0  0  0  0  0  0  0  0  0
   -4.6720    5.1510   -4.5890 C   0  0  0  0  0  3  0  0  0  0  0  0
   -5.6600    4.5920   -3.7420 C   0  0  0  0  0  3  0  0  0  0  0  0
   -5.6910    3.2490   -4.0250 C   0  0  0  0  0  3  0  0  0  0  0  0
   -4.7900    2.9480   -4.9930 O   0  0  0  0  0  0  0  0  0  0  0  0
    3.4620    8.9290   -4.6350 O   0  0  0  0  0  0  0  0  0  0  0  0
    3.6670    9.7560   -5.7970 C   0  0  0  0  0  2  0  0  0  0  0  0
    4.3240    8.8680   -6.8730 C   0  0  1  0  0  3  0  0  0  0  0  0
    5.4090    9.6860   -7.5340 N   0  0  0  0  0  4  0  0  0  0  0  0
    5.0190   10.4900   -8.0420 H   0  0  0  0  0  0  0  0  0  0  0  0
    5.9750    9.1370   -8.1930 H   0  0  0  0  0  0  0  0  0  0  0  0
    6.0330   10.0700   -6.8070 H   0  0  0  0  0  0  0  0  0  0  0  0
    4.9640    7.5920   -6.2890 C   0  0  0  0  0  2  0  0  0  0  0  0
    4.9440    6.4560   -7.2610 C   0  0  0  0  0  0  0  0  0  0  0  0
    6.0450    5.9360   -7.9170 C   0  0  0  0  0  3  0  0  0  0  0  0
    5.6240    4.9080   -8.7190 N   0  0  0  0  0  0  0  0  0  0  0  0
    4.2630    4.7500   -8.6090 C   0  0  0  0  0  0  0  0  0  0  0  0
    3.4140    3.8390   -9.2480 C   0  0  0  0  0  3  0  0  0  0  0  0
    2.0530    3.8900   -8.9340 C   0  0  0  0  0  3  0  0  0  0  0  0
    1.5680    4.8080   -8.0090 C   0  0  0  0  0  3  0  0  0  0  0  0
    2.4340    5.7070   -7.3740 C   0  0  0  0  0  3  0  0  0  0  0  0
    3.8090    5.6920   -7.6850 C   0  0  0  0  0  0  0  0  0  0  0  0
    6.2180    4.3350   -9.3040 H   0  0  0  0  0  0  0  0  0  0  0  0
  1  2  1  0  0  0  0
  2  3  2  0  0  0  0
  4  3  1  0  0  0  0
  5  4  2  0  0  0  0
  6  5  1  0  0  0  0
  6  1  2  0  0  0  0
  7 12  1  0  0  0  0
  7  5  1  0  0  0  0
  8  7  2  0  0  0  0
  9 10  2  0  0  0  0
  9  8  1  0  0  0  0
 10 11  1  0  0  0  0
 11 13  1  0  0  0  0
 11 12  2  0  0  0  0
 13 18  1  1  0  0  0
 14 13  1  0  0  0  0
 15 14  2  0  0  0  0
 16 10  1  0  0  0  0
 16 14  1  0  0  0  0
 17 16  1  0  0  0  0
 18 22  1  0  0  0  0
 18 19  2  0  0  0  0
 19 20  1  0  0  0  0
 21 20  2  0  0  0  0
 22 21  1  0  0  0  0
 23  1  1  0  0  0  0
 24 23  1  0  0  0  0
 25 30  1  1  0  0  0
 25 24  1  0  0  0  0
 26 25  1  0  0  0  0
 26 29  1  0  0  0  0
 27 26  1  0  0  0  0
 28 26  1  0  0  0  0
 31 30  1  0  0  0  0
 32 31  2  0  0  0  0
 33 34  1  0  0  0  0
 33 32  1  0  0  0  0
 34 39  1  0  0  0  0
 35 36  1  0  0  0  0
 35 34  2  0  0  0  0
 36 37  2  0  0  0  0
 37 38  1  0  0  0  0
 39 38  2  0  0  0  0
 39 31  1  0  0  0  0
 40 33  1  0  0  0  0
M  END
>  <minimizedAffinity>
-11.0925903

$$$$
