
 OpenBabel11232420013D

 40 45  0  0  1  0  0  0  0  0999 V2000
    4.7680    5.3520   -8.3490 C   0  0  0  0  0  0  0  0  0  0  0  0
    5.2840    4.4920   -9.3060 C   0  0  0  0  0  3  0  0  0  0  0  0
    4.5380    3.5780   -9.9640 N   0  0  0  0  0  0  0  0  0  0  0  0
    3.2190    3.5240   -9.6550 C   0  0  0  0  0  3  0  0  0  0  0  0
    2.5990    4.3580   -8.7280 C   0  0  0  0  0  0  0  0  0  0  0  0
    3.4020    5.3090   -8.0890 C   0  0  0  0  0  3  0  0  0  0  0  0
    1.1950    4.2060   -8.3520 C   0  0  0  0  0  0  0  0  0  0  0  0
    0.2910    3.4920   -9.1710 C   0  0  0  0  0  3  0  0  0  0  0  0
   -1.0710    3.4130   -8.8550 C   0  0  0  0  0  3  0  0  0  0  0  0
   -1.4980    4.0680   -7.7210 C   0  0  0  0  0  0  0  0  0  0  0  0
   -0.6300    4.7770   -6.8950 C   0  0  0  0  0  0  0  0  0  0  0  0
    0.7210    4.8410   -7.1900 C   0  0  0  0  0  3  0  0  0  0  0  0
   -1.3990    5.3820   -5.7430 C   0  0  2  0  0  3  0  0  0  0  0  0
   -2.8400    4.9150   -6.0630 C   0  0  0  0  0  0  0  0  0  0  0  0
   -3.8600    5.1540   -5.4360 O   0  0  0  0  0  0  0  0  0  0  0  0
   -2.7880    4.1520   -7.2280 N   0  0  0  0  0  0  0  0  0  0  0  0
   -3.6100    3.7310   -7.6380 H   0  0  0  0  0  0  0  0  0  0  0  0
   -1.3080    6.8690   -5.6700 C   0  0  0  0  0  0  0  0  0  0  0  0
   -1.0030    7.8730   -6.5700 C   0  0  0  0  0  3  0  0  0  0  0  0
   -1.1170    9.0980   -5.8690 C   0  0  0  0  0  3  0  0  0  0  0  0
   -1.4880    8.7730   -4.5870 C   0  0  0  0  0  3  0  0  0  0  0  0
   -1.6130    7.4290   -4.4570 O   0  0  0  0  0  0  0  0  0  0  0  0
    5.5050    6.2540   -7.6380 O   0  0  0  0  0  0  0  0  0  0  0  0
    4.7080    7.0400   -6.7310 C   0  0  0  0  0  2  0  0  0  0  0  0
    5.0740    8.5180   -6.9730 C   0  0  1  0  0  3  0  0  0  0  0  0
    5.3010    8.6910   -8.4570 N   0  0  0  0  0  4  0  0  0  0  0  0
    6.1130    8.1500   -8.7800 H   0  0  0  0  0  0  0  0  0  0  0  0
    5.4450    9.6720   -8.7270 H   0  0  0  0  0  0  0  0  0  0  0  0
    4.4820    8.3270   -8.9690 H   0  0  0  0  0  0  0  0  0  0  0  0
    3.9600    9.4920   -6.5360 C   0  0  0  0  0  2  0  0  0  0  0  0
    3.6100    9.3350   -5.0900 C   0  0  0  0  0  0  0  0  0  0  0  0
    2.3710    8.9730   -4.5950 C   0  0  0  0  0  3  0  0  0  0  0  0
    2.4460    8.9350   -3.2270 N   0  0  0  0  0  0  0  0  0  0  0  0
    3.7120    9.2770   -2.8150 C   0  0  0  0  0  0  0  0  0  0  0  0
    4.2330    9.3810   -1.5190 C   0  0  0  0  0  3  0  0  0  0  0  0
    5.5780    9.7370   -1.3880 C   0  0  0  0  0  3  0  0  0  0  0  0
    6.3690    9.9670   -2.5090 C   0  0  0  0  0  3  0  0  0  0  0  0
    5.8320    9.8510   -3.7960 C   0  0  0  0  0  3  0  0  0  0  0  0
    4.4730    9.5130   -3.9600 C   0  0  0  0  0  0  0  0  0  0  0  0
    1.6920    8.6860   -2.6010 H   0  0  0  0  0  0  0  0  0  0  0  0
  1  6  1  0  0  0  0
  1 23  1  0  0  0  0
  2  1  2  0  0  0  0
  3  4  2  0  0  0  0
  3  2  1  0  0  0  0
  4  5  1  0  0  0  0
  5  7  1  0  0  0  0
  5  6  2  0  0  0  0
  7 12  1  0  0  0  0
  8  9  1  0  0  0  0
  8  7  2  0  0  0  0
  9 10  2  0  0  0  0
 10 16  1  0  0  0  0
 10 11  1  0  0  0  0
 11 13  1  0  0  0  0
 12 11  2  0  0  0  0
 13 18  1  6  0  0  0
 14 13  1  0  0  0  0
 14 15  2  0  0  0  0
 16 14  1  0  0  0  0
 17 16  1  0  0  0  0
 18 22  1  0  0  0  0
 19 20  1  0  0  0  0
 19 18  2  0  0  0  0
 20 21  2  0  0  0  0
 21 22  1  0  0  0  0
 23 24  1  0  0  0  0
 25 24  1  6  0  0  0
 25 30  1  0  0  0  0
 26 25  1  0  0  0  0
 27 26  1  0  0  0  0
 28 26  1  0  0  0  0
 29 26  1  0  0  0  0
 30 31  1  0  0  0  0
 31 32  2  0  0  0  0
 31 39  1  0  0  0  0
 32 33  1  0  0  0  0
 33 34  1  0  0  0  0
 33 40  1  0  0  0  0
 34 35  1  0  0  0  0
 35 36  2  0  0  0  0
 37 36  1  0  0  0  0
 38 37  2  0  0  0  0
 39 38  1  0  0  0  0
 39 34  2  0  0  0  0
M  END
>  <minimizedAffinity>
-10.5449781

$$$$
