
 OpenBabel11232420293D

 37 41  0  0  1  0  0  0  0  0999 V2000
   -6.3970   -9.2790   10.6080 C   0  0  0  0  0  0  0  0  0  0  0  0
   -5.3680   -9.4790    9.9480 O   0  0  0  0  0  0  0  0  0  0  0  0
   -7.6030   -9.8830   10.2850 N   0  0  0  0  0  0  0  0  0  0  0  0
   -7.6150  -10.7710    9.1030 C   0  0  0  0  0  2  0  0  0  0  0  0
   -8.8590  -11.6520    8.9050 C   0  0  0  0  0  2  0  0  0  0  0  0
  -10.0620  -10.8280    9.0370 N   0  0  0  0  0  0  0  0  0  0  0  0
  -10.1690  -10.0780   10.2940 C   0  0  1  0  0  3  0  0  0  0  0  0
   -9.6850  -10.5860   11.6250 C   0  0  0  0  0  2  0  0  0  0  0  0
   -8.8810   -9.5500   10.8920 C   0  0  1  0  0  3  0  0  0  0  0  0
  -11.2010  -11.3280    8.3840 C   0  0  0  0  0  0  0  0  0  0  0  0
  -11.4050  -12.6600    8.4100 N   0  0  0  0  0  0  0  0  0  0  0  0
  -12.4420  -13.1380    7.7100 C   0  0  0  0  0  3  0  0  0  0  0  0
  -13.2560  -12.4270    6.9280 N   0  0  0  0  0  0  0  0  0  0  0  0
  -12.9910  -11.1200    6.8760 C   0  0  0  0  0  0  0  0  0  0  0  0
  -12.0160  -10.4870    7.6320 C   0  0  0  0  0  0  0  0  0  0  0  0
  -11.9000   -8.9870    7.5530 C   0  0  2  0  0  3  0  0  0  0  0  0
  -12.9030   -8.2980    8.4920 C   0  0  0  0  0  1  0  0  0  0  0  0
  -12.1400   -8.5330    6.1120 C   0  0  0  0  0  2  0  0  0  0  0  0
  -13.4230   -9.1120    5.5560 C   0  0  0  0  0  0  0  0  0  0  0  0
  -14.1030   -8.5100    4.7300 O   0  0  0  0  0  0  0  0  0  0  0  0
  -13.7250  -10.3850    5.9490 N   0  0  0  0  0  0  0  0  0  0  0  0
  -14.4970  -10.8520    5.4930 H   0  0  0  0  0  0  0  0  0  0  0  0
   -6.3580   -8.2290   11.7220 C   0  0  1  0  0  3  0  0  0  0  0  0
   -4.9900   -8.0820   12.3680 C   0  0  0  0  0  0  0  0  0  0  0  0
   -4.5720   -9.0120   13.3360 C   0  0  0  0  0  3  0  0  0  0  0  0
   -3.3340   -8.8730   13.9670 C   0  0  0  0  0  3  0  0  0  0  0  0
   -2.5060   -7.8010   13.6430 C   0  0  0  0  0  0  0  0  0  0  0  0
   -0.9880   -7.6260   14.4290 Cl  0  0  0  0  0  0  0  0  0  0  0  0
   -2.9060   -6.8690   12.6900 C   0  0  0  0  0  3  0  0  0  0  0  0
   -4.1430   -7.0060   12.0550 C   0  0  0  0  0  3  0  0  0  0  0  0
   -6.8110   -6.8530   11.1760 C   0  0  0  0  0  2  0  0  0  0  0  0
   -6.9450   -6.8040    9.6730 N   0  0  0  0  0  4  0  0  0  0  0  0
   -7.9580   -6.6190    9.5020 H   0  0  0  0  0  0  0  0  0  0  0  0
   -6.7970   -7.7490    9.2900 H   0  0  0  0  0  0  0  0  0  0  0  0
   -5.7030   -4.6740    9.8220 C   0  0  0  0  0  1  0  0  0  0  0  0
   -6.1320   -5.8080    8.9030 C   0  0  0  0  0  3  0  0  0  0  0  0
   -4.9290   -6.5370    8.3150 C   0  0  0  0  0  1  0  0  0  0  0  0
  1 23  1  0  0  0  0
  2  1  2  0  0  0  0
  3  1  1  0  0  0  0
  3  9  1  0  0  0  0
  4  3  1  0  0  0  0
  5  6  1  0  0  0  0
  5  4  1  0  0  0  0
  6  7  1  0  0  0  0
  7  9  1  0  0  0  0
  7  8  1  1  0  0  0
  9  8  1  1  0  0  0
 10 11  1  0  0  0  0
 10  6  1  0  0  0  0
 12 11  2  0  0  0  0
 13 12  1  0  0  0  0
 14 13  2  0  0  0  0
 14 15  1  0  0  0  0
 15 10  2  0  0  0  0
 16 15  1  0  0  0  0
 16 17  1  1  0  0  0
 18 16  1  0  0  0  0
 19 21  1  0  0  0  0
 19 18  1  0  0  0  0
 20 19  2  0  0  0  0
 21 14  1  0  0  0  0
 22 21  1  0  0  0  0
 23 31  1  6  0  0  0
 23 24  1  0  0  0  0
 24 25  1  0  0  0  0
 25 26  2  0  0  0  0
 27 26  1  0  0  0  0
 27 28  1  0  0  0  0
 29 27  2  0  0  0  0
 30 24  2  0  0  0  0
 30 29  1  0  0  0  0
 32 31  1  0  0  0  0
 33 32  1  0  0  0  0
 34 32  1  0  0  0  0
 36 32  1  0  0  0  0
 36 35  1  0  0  0  0
 37 36  1  0  0  0  0
M  END
>  <minimizedAffinity>
-5.5169692

$$$$

 OpenBabel11232420293D

 37 41  0  0  1  0  0  0  0  0999 V2000
   -6.6290   -5.2820   12.5720 C   0  0  0  0  0  0  0  0  0  0  0  0
   -6.9880   -4.3030   11.9020 O   0  0  0  0  0  0  0  0  0  0  0  0
   -6.2960   -6.4920   11.9810 N   0  0  0  0  0  0  0  0  0  0  0  0
   -6.4000   -6.5720   10.5080 C   0  0  0  0  0  2  0  0  0  0  0  0
   -5.7740   -7.8010    9.8300 C   0  0  0  0  0  2  0  0  0  0  0  0
   -6.2160   -9.0140   10.5210 N   0  0  0  0  0  0  0  0  0  0  0  0
   -5.9490   -9.0410   11.9650 C   0  0  1  0  0  3  0  0  0  0  0  0
   -4.7320   -8.4370   12.6110 C   0  0  0  0  0  2  0  0  0  0  0  0
   -6.0510   -7.7250   12.7090 C   0  0  1  0  0  3  0  0  0  0  0  0
   -6.1820  -10.1860    9.7490 C   0  0  0  0  0  0  0  0  0  0  0  0
   -5.0890  -10.4060    8.9910 N   0  0  0  0  0  0  0  0  0  0  0  0
   -5.1010  -11.4780    8.1880 C   0  0  0  0  0  3  0  0  0  0  0  0
   -6.1250  -12.3160    8.0130 N   0  0  0  0  0  0  0  0  0  0  0  0
   -7.2140  -12.0360    8.7320 C   0  0  0  0  0  0  0  0  0  0  0  0
   -7.2910  -11.0220    9.6750 C   0  0  0  0  0  0  0  0  0  0  0  0
   -8.5500  -10.8910   10.4930 C   0  0  2  0  0  3  0  0  0  0  0  0
   -8.5350  -11.8420   11.6990 C   0  0  0  0  0  1  0  0  0  0  0  0
   -9.7640  -11.1860    9.6110 C   0  0  0  0  0  2  0  0  0  0  0  0
   -9.6070  -12.4990    8.8750 C   0  0  0  0  0  0  0  0  0  0  0  0
  -10.5700  -13.2060    8.5940 O   0  0  0  0  0  0  0  0  0  0  0  0
   -8.3430  -12.8010    8.4520 N   0  0  0  0  0  0  0  0  0  0  0  0
   -8.2240  -13.5970    7.8400 H   0  0  0  0  0  0  0  0  0  0  0  0
   -6.6920   -5.1850   14.0990 C   0  0  1  0  0  3  0  0  0  0  0  0
   -5.3500   -4.8760   14.7410 C   0  0  0  0  0  0  0  0  0  0  0  0
   -4.9610   -5.5550   15.9080 C   0  0  0  0  0  3  0  0  0  0  0  0
   -3.7480   -5.2580   16.5340 C   0  0  0  0  0  3  0  0  0  0  0  0
   -2.9160   -4.2760   16.0030 C   0  0  0  0  0  0  0  0  0  0  0  0
   -1.4280   -3.9050   16.7800 Cl  0  0  0  0  0  0  0  0  0  0  0  0
   -3.2860   -3.5910   14.8500 C   0  0  0  0  0  3  0  0  0  0  0  0
   -4.4990   -3.8860   14.2210 C   0  0  0  0  0  3  0  0  0  0  0  0
   -7.7190   -4.1070   14.5250 C   0  0  0  0  0  2  0  0  0  0  0  0
   -8.7920   -4.6160   15.4550 N   0  0  0  0  0  4  0  0  0  0  0  0
   -9.1540   -3.7640   15.9350 H   0  0  0  0  0  0  0  0  0  0  0  0
   -8.3530   -5.1610   16.2110 H   0  0  0  0  0  0  0  0  0  0  0  0
  -11.0700   -5.4590   15.9070 C   0  0  0  0  0  1  0  0  0  0  0  0
   -9.9480   -5.3790   14.8820 C   0  0  0  0  0  3  0  0  0  0  0  0
  -10.4000   -4.6670   13.6130 C   0  0  0  0  0  1  0  0  0  0  0  0
  1 23  1  0  0  0  0
  2  1  2  0  0  0  0
  3  1  1  0  0  0  0
  3  9  1  0  0  0  0
  4  3  1  0  0  0  0
  5  4  1  0  0  0  0
  5  6  1  0  0  0  0
  6  7  1  0  0  0  0
  7  8  1  6  0  0  0
  7  9  1  0  0  0  0
  9  8  1  6  0  0  0
 10  6  1  0  0  0  0
 11 10  2  0  0  0  0
 12 11  1  0  0  0  0
 13 12  2  0  0  0  0
 13 14  1  0  0  0  0
 14 15  2  0  0  0  0
 15 10  1  0  0  0  0
 15 16  1  0  0  0  0
 16 17  1  1  0  0  0
 18 16  1  0  0  0  0
 19 18  1  0  0  0  0
 20 19  2  0  0  0  0
 21 14  1  0  0  0  0
 21 19  1  0  0  0  0
 22 21  1  0  0  0  0
 23 31  1  6  0  0  0
 23 24  1  0  0  0  0
 24 25  1  0  0  0  0
 25 26  2  0  0  0  0
 27 26  1  0  0  0  0
 27 28  1  0  0  0  0
 29 27  2  0  0  0  0
 30 24  2  0  0  0  0
 30 29  1  0  0  0  0
 31 32  1  0  0  0  0
 32 33  1  0  0  0  0
 32 34  1  0  0  0  0
 36 32  1  0  0  0  0
 36 35  1  0  0  0  0
 37 36  1  0  0  0  0
M  END
>  <minimizedAffinity>
-5.02051735

$$$$

 OpenBabel11232420293D

 37 41  0  0  1  0  0  0  0  0999 V2000
   -4.4500   -5.9440   12.1980 C   0  0  0  0  0  0  0  0  0  0  0  0
   -3.9970   -5.0330   11.4900 O   0  0  0  0  0  0  0  0  0  0  0  0
   -5.1400   -7.0180   11.6550 N   0  0  0  0  0  0  0  0  0  0  0  0
   -5.3270   -7.0250   10.1880 C   0  0  0  0  0  2  0  0  0  0  0  0
   -5.8380   -8.3300    9.5570 C   0  0  0  0  0  2  0  0  0  0  0  0
   -7.0030   -8.8070   10.3030 N   0  0  0  0  0  0  0  0  0  0  0  0
   -6.7870   -8.9930   11.7440 C   0  0  1  0  0  3  0  0  0  0  0  0
   -5.4960   -9.4710   12.3500 C   0  0  0  0  0  2  0  0  0  0  0  0
   -5.8570   -8.0150   12.4320 C   0  0  1  0  0  3  0  0  0  0  0  0
   -7.8750   -9.6380    9.5820 C   0  0  0  0  0  0  0  0  0  0  0  0
   -9.1010   -9.1610    9.2930 N   0  0  0  0  0  0  0  0  0  0  0  0
   -9.9590   -9.9910    8.6840 C   0  0  0  0  0  3  0  0  0  0  0  0
   -9.7380  -11.2750    8.3970 N   0  0  0  0  0  0  0  0  0  0  0  0
   -8.5350  -11.7350    8.7500 C   0  0  0  0  0  0  0  0  0  0  0  0
   -7.5250  -10.9530    9.2880 C   0  0  0  0  0  0  0  0  0  0  0  0
   -6.1790  -11.5830    9.5370 C   0  0  2  0  0  3  0  0  0  0  0  0
   -5.3220  -11.5950    8.2620 C   0  0  0  0  0  1  0  0  0  0  0  0
   -6.3710  -13.0110   10.0490 C   0  0  0  0  0  2  0  0  0  0  0  0
   -7.2970  -13.8010    9.1490 C   0  0  0  0  0  0  0  0  0  0  0  0
   -7.1750  -15.0120    8.9920 O   0  0  0  0  0  0  0  0  0  0  0  0
   -8.3390  -13.1050    8.6030 N   0  0  0  0  0  0  0  0  0  0  0  0
   -9.0520  -13.6260    8.1110 H   0  0  0  0  0  0  0  0  0  0  0  0
   -4.3620   -5.8010   13.7200 C   0  0  1  0  0  3  0  0  0  0  0  0
   -3.0300   -6.2570   14.2930 C   0  0  0  0  0  0  0  0  0  0  0  0
   -2.5260   -5.6490   15.4570 C   0  0  0  0  0  3  0  0  0  0  0  0
   -1.2870   -6.0290   15.9770 C   0  0  0  0  0  3  0  0  0  0  0  0
   -0.5370   -7.0130   15.3380 C   0  0  0  0  0  0  0  0  0  0  0  0
    0.9920   -7.4710   15.9760 Cl  0  0  0  0  0  0  0  0  0  0  0  0
   -1.0190   -7.6220   14.1830 C   0  0  0  0  0  3  0  0  0  0  0  0
   -2.2590   -7.2460   13.6600 C   0  0  0  0  0  3  0  0  0  0  0  0
   -4.6160   -4.3310   14.1340 C   0  0  0  0  0  2  0  0  0  0  0  0
   -5.9790   -4.0910   14.7360 N   0  0  0  0  0  4  0  0  0  0  0  0
   -6.2730   -3.1600   14.3670 H   0  0  0  0  0  0  0  0  0  0  0  0
   -5.8780   -3.9370   15.7490 H   0  0  0  0  0  0  0  0  0  0  0  0
   -7.9290   -5.2410   15.7250 C   0  0  0  0  0  1  0  0  0  0  0  0
   -7.0720   -5.0840   14.4780 C   0  0  0  0  0  3  0  0  0  0  0  0
   -7.8930   -4.5830   13.2950 C   0  0  0  0  0  1  0  0  0  0  0  0
  1 23  1  0  0  0  0
  2  1  2  0  0  0  0
  3  1  1  0  0  0  0
  3  9  1  0  0  0  0
  4  3  1  0  0  0  0
  5  4  1  0  0  0  0
  5  6  1  0  0  0  0
  6  7  1  0  0  0  0
  7  8  1  6  0  0  0
  7  9  1  0  0  0  0
  9  8  1  6  0  0  0
 10  6  1  0  0  0  0
 11 10  1  0  0  0  0
 12 11  2  0  0  0  0
 13 12  1  0  0  0  0
 13 14  2  0  0  0  0
 14 15  1  0  0  0  0
 15 16  1  0  0  0  0
 15 10  2  0  0  0  0
 16 17  1  6  0  0  0
 16 18  1  0  0  0  0
 19 18  1  0  0  0  0
 20 19  2  0  0  0  0
 21 14  1  0  0  0  0
 21 19  1  0  0  0  0
 22 21  1  0  0  0  0
 23 31  1  6  0  0  0
 23 24  1  0  0  0  0
 24 25  1  0  0  0  0
 25 26  2  0  0  0  0
 27 28  1  0  0  0  0
 27 26  1  0  0  0  0
 29 27  2  0  0  0  0
 30 29  1  0  0  0  0
 30 24  2  0  0  0  0
 31 32  1  0  0  0  0
 32 34  1  0  0  0  0
 33 32  1  0  0  0  0
 36 32  1  0  0  0  0
 36 35  1  0  0  0  0
 37 36  1  0  0  0  0
M  END
>  <minimizedAffinity>
-4.94138145

$$$$

 OpenBabel11232420293D

 37 41  0  0  1  0  0  0  0  0999 V2000
   -5.7380   -4.8760   11.1670 C   0  0  0  0  0  0  0  0  0  0  0  0
   -5.6320   -3.9500   10.3510 O   0  0  0  0  0  0  0  0  0  0  0  0
   -6.1820   -6.1360   10.7920 N   0  0  0  0  0  0  0  0  0  0  0  0
   -6.5400   -6.3270    9.3700 C   0  0  0  0  0  2  0  0  0  0  0  0
   -6.7620   -7.7720    8.8950 C   0  0  0  0  0  2  0  0  0  0  0  0
   -7.6590   -8.4570    9.8280 N   0  0  0  0  0  0  0  0  0  0  0  0
   -7.2240   -8.4470   11.2300 C   0  0  1  0  0  3  0  0  0  0  0  0
   -5.7880   -8.5230   11.6710 C   0  0  0  0  0  2  0  0  0  0  0  0
   -6.5070   -7.2050   11.7200 C   0  0  1  0  0  3  0  0  0  0  0  0
   -8.3620   -9.5450    9.2880 C   0  0  0  0  0  0  0  0  0  0  0  0
   -9.6400   -9.3420    8.9120 N   0  0  0  0  0  0  0  0  0  0  0  0
  -10.3340  -10.4050    8.4820 C   0  0  0  0  0  3  0  0  0  0  0  0
   -9.9000  -11.6660    8.4570 N   0  0  0  0  0  0  0  0  0  0  0  0
   -8.6500  -11.8440    8.8920 C   0  0  0  0  0  0  0  0  0  0  0  0
   -7.7960  -10.8160    9.2620 C   0  0  0  0  0  0  0  0  0  0  0  0
   -6.3740  -11.1560    9.6290 C   0  0  2  0  0  3  0  0  0  0  0  0
   -5.4880  -11.2780    8.3800 C   0  0  0  0  0  1  0  0  0  0  0  0
   -6.3500  -12.4670   10.4150 C   0  0  0  0  0  2  0  0  0  0  0  0
   -7.1090  -13.5590    9.6920 C   0  0  0  0  0  0  0  0  0  0  0  0
   -6.7880  -14.7410    9.7790 O   0  0  0  0  0  0  0  0  0  0  0  0
   -8.2310  -13.1650    9.0210 N   0  0  0  0  0  0  0  0  0  0  0  0
   -8.8360  -13.8830    8.6440 H   0  0  0  0  0  0  0  0  0  0  0  0
   -5.5020   -4.5740   12.6500 C   0  0  1  0  0  3  0  0  0  0  0  0
   -6.7670   -4.6480   13.4900 C   0  0  0  0  0  0  0  0  0  0  0  0
   -6.7200   -5.2160   14.7740 C   0  0  0  0  0  3  0  0  0  0  0  0
   -7.8790   -5.3270   15.5460 C   0  0  0  0  0  3  0  0  0  0  0  0
   -9.0960   -4.8770   15.0390 C   0  0  0  0  0  0  0  0  0  0  0  0
  -10.5220   -5.0230   15.9870 Cl  0  0  0  0  0  0  0  0  0  0  0  0
   -9.1620   -4.3150   13.7680 C   0  0  0  0  0  3  0  0  0  0  0  0
   -8.0030   -4.2020   12.9940 C   0  0  0  0  0  3  0  0  0  0  0  0
   -4.4490   -5.5480   13.2330 C   0  0  0  0  0  2  0  0  0  0  0  0
   -3.1780   -4.8740   13.6890 N   0  0  0  0  0  4  0  0  0  0  0  0
   -3.2760   -3.8830   13.3800 H   0  0  0  0  0  0  0  0  0  0  0  0
   -2.3880   -5.2320   13.1330 H   0  0  0  0  0  0  0  0  0  0  0  0
   -3.3110   -3.6160   15.8110 C   0  0  0  0  0  1  0  0  0  0  0  0
   -2.8270   -4.8960   15.1460 C   0  0  0  0  0  3  0  0  0  0  0  0
   -3.4740   -6.1280   15.7680 C   0  0  0  0  0  1  0  0  0  0  0  0
  1 23  1  0  0  0  0
  2  1  2  0  0  0  0
  3  1  1  0  0  0  0
  3  9  1  0  0  0  0
  4  3  1  0  0  0  0
  5  4  1  0  0  0  0
  5  6  1  0  0  0  0
  6  7  1  0  0  0  0
  7  8  1  6  0  0  0
  7  9  1  0  0  0  0
  9  8  1  6  0  0  0
 10  6  1  0  0  0  0
 11 10  2  0  0  0  0
 12 11  1  0  0  0  0
 13 12  2  0  0  0  0
 13 14  1  0  0  0  0
 14 21  1  0  0  0  0
 14 15  2  0  0  0  0
 15 10  1  0  0  0  0
 15 16  1  0  0  0  0
 16 17  1  6  0  0  0
 16 18  1  0  0  0  0
 19 20  2  0  0  0  0
 19 18  1  0  0  0  0
 21 19  1  0  0  0  0
 22 21  1  0  0  0  0
 23 31  1  1  0  0  0
 23 24  1  0  0  0  0
 24 25  1  0  0  0  0
 25 26  2  0  0  0  0
 27 26  1  0  0  0  0
 27 28  1  0  0  0  0
 29 27  2  0  0  0  0
 30 24  2  0  0  0  0
 30 29  1  0  0  0  0
 31 32  1  0  0  0  0
 32 36  1  0  0  0  0
 33 32  1  0  0  0  0
 34 32  1  0  0  0  0
 36 37  1  0  0  0  0
 36 35  1  0  0  0  0
M  END
>  <minimizedAffinity>
-4.76866579

$$$$

 OpenBabel11232420293D

 37 41  0  0  1  0  0  0  0  0999 V2000
   -7.7530  -12.4550    8.7640 C   0  0  0  0  0  0  0  0  0  0  0  0
   -8.7580  -12.6450    8.0660 O   0  0  0  0  0  0  0  0  0  0  0  0
   -7.4420  -11.2030    9.2750 N   0  0  0  0  0  0  0  0  0  0  0  0
   -8.3580  -10.0930    8.9370 C   0  0  0  0  0  2  0  0  0  0  0  0
   -8.1810   -8.7800    9.7170 C   0  0  0  0  0  2  0  0  0  0  0  0
   -6.7670   -8.4010    9.7120 N   0  0  0  0  0  0  0  0  0  0  0  0
   -5.8460   -9.4230   10.2260 C   0  0  1  0  0  3  0  0  0  0  0  0
   -6.1730  -10.3650   11.3520 C   0  0  0  0  0  2  0  0  0  0  0  0
   -6.1920  -10.8690    9.9370 C   0  0  1  0  0  3  0  0  0  0  0  0
   -6.5160   -7.0320    9.8960 C   0  0  0  0  0  0  0  0  0  0  0  0
   -6.0480   -6.3330    8.8430 N   0  0  0  0  0  0  0  0  0  0  0  0
   -5.7250   -5.0490    9.0490 C   0  0  0  0  0  3  0  0  0  0  0  0
   -5.7560   -4.4100   10.2200 N   0  0  0  0  0  0  0  0  0  0  0  0
   -6.1660   -5.1470   11.2550 C   0  0  0  0  0  0  0  0  0  0  0  0
   -6.6270   -6.4510   11.1550 C   0  0  0  0  0  0  0  0  0  0  0  0
   -7.1630   -7.1250   12.3930 C   0  0  2  0  0  3  0  0  0  0  0  0
   -8.6330   -6.7540   12.6390 C   0  0  0  0  0  1  0  0  0  0  0  0
   -6.3140   -6.7220   13.6000 C   0  0  0  0  0  2  0  0  0  0  0  0
   -6.1660   -5.2190   13.6950 C   0  0  0  0  0  0  0  0  0  0  0  0
   -6.0580   -4.6440   14.7740 O   0  0  0  0  0  0  0  0  0  0  0  0
   -6.0580   -4.5510   12.5090 N   0  0  0  0  0  0  0  0  0  0  0  0
   -5.8210   -3.5680   12.5360 H   0  0  0  0  0  0  0  0  0  0  0  0
   -6.7610  -13.6070    8.9480 C   0  0  1  0  0  3  0  0  0  0  0  0
   -7.1430  -14.5620   10.0670 C   0  0  0  0  0  0  0  0  0  0  0  0
   -7.6550  -14.0540   11.2740 C   0  0  0  0  0  3  0  0  0  0  0  0
   -7.9770  -14.9130   12.3270 C   0  0  0  0  0  3  0  0  0  0  0  0
   -7.7850  -16.2850   12.1870 C   0  0  0  0  0  0  0  0  0  0  0  0
   -8.1730  -17.3390   13.4880 Cl  0  0  0  0  0  0  0  0  0  0  0  0
   -7.2760  -16.8050   11.0010 C   0  0  0  0  0  3  0  0  0  0  0  0
   -6.9540  -15.9490    9.9440 C   0  0  0  0  0  3  0  0  0  0  0  0
   -6.6170  -14.4040    7.6280 C   0  0  0  0  0  2  0  0  0  0  0  0
   -6.1880  -13.5640    6.4490 N   0  0  0  0  0  4  0  0  0  0  0  0
   -5.2590  -13.1770    6.7220 H   0  0  0  0  0  0  0  0  0  0  0  0
   -6.7960  -12.7350    6.3870 H   0  0  0  0  0  0  0  0  0  0  0  0
   -5.0030  -15.2950    5.1450 C   0  0  0  0  0  1  0  0  0  0  0  0
   -6.0690  -14.2110    5.1020 C   0  0  0  0  0  3  0  0  0  0  0  0
   -7.4330  -14.7820    4.7320 C   0  0  0  0  0  1  0  0  0  0  0  0
  1 23  1  0  0  0  0
  1  3  1  0  0  0  0
  2  1  2  0  0  0  0
  3  9  1  0  0  0  0
  4  3  1  0  0  0  0
  4  5  1  0  0  0  0
  6  5  1  0  0  0  0
  6 10  1  0  0  0  0
  6  7  1  0  0  0  0
  7  8  1  1  0  0  0
  9  7  1  0  0  0  0
  9  8  1  1  0  0  0
 10 15  1  0  0  0  0
 11 12  1  0  0  0  0
 11 10  2  0  0  0  0
 12 13  2  0  0  0  0
 13 14  1  0  0  0  0
 14 21  1  0  0  0  0
 15 14  2  0  0  0  0
 15 16  1  0  0  0  0
 16 17  1  1  0  0  0
 16 18  1  0  0  0  0
 18 19  1  0  0  0  0
 19 20  2  0  0  0  0
 21 22  1  0  0  0  0
 21 19  1  0  0  0  0
 23 31  1  6  0  0  0
 23 24  1  0  0  0  0
 24 25  1  0  0  0  0
 25 26  2  0  0  0  0
 27 26  1  0  0  0  0
 27 28  1  0  0  0  0
 29 27  2  0  0  0  0
 30 24  2  0  0  0  0
 30 29  1  0  0  0  0
 32 33  1  0  0  0  0
 32 31  1  0  0  0  0
 34 32  1  0  0  0  0
 36 35  1  0  0  0  0
 36 32  1  0  0  0  0
 37 36  1  0  0  0  0
M  END
>  <minimizedAffinity>
-4.7611804

$$$$

 OpenBabel11232420293D

 37 41  0  0  1  0  0  0  0  0999 V2000
   -7.2770  -11.3450   10.7650 C   0  0  0  0  0  0  0  0  0  0  0  0
   -7.3400  -12.2520   11.6070 O   0  0  0  0  0  0  0  0  0  0  0  0
   -6.6260  -10.1480   11.0250 N   0  0  0  0  0  0  0  0  0  0  0  0
   -6.0180   -9.9900   12.3640 C   0  0  0  0  0  2  0  0  0  0  0  0
   -5.0680   -8.7980   12.5630 C   0  0  0  0  0  2  0  0  0  0  0  0
   -5.7040   -7.5810   12.0550 N   0  0  0  0  0  0  0  0  0  0  0  0
   -6.1480   -7.6470   10.6570 C   0  0  1  0  0  3  0  0  0  0  0  0
   -5.4220   -8.3960    9.5740 C   0  0  0  0  0  2  0  0  0  0  0  0
   -6.6740   -8.9790   10.1640 C   0  0  1  0  0  3  0  0  0  0  0  0
   -5.2340   -6.3840   12.6180 C   0  0  0  0  0  0  0  0  0  0  0  0
   -3.9470   -6.0490   12.3950 N   0  0  0  0  0  0  0  0  0  0  0  0
   -3.4800   -4.9530   13.0080 C   0  0  0  0  0  3  0  0  0  0  0  0
   -4.1480   -4.1960   13.8800 N   0  0  0  0  0  0  0  0  0  0  0  0
   -5.4010   -4.5900   14.1270 C   0  0  0  0  0  0  0  0  0  0  0  0
   -6.0340   -5.6400   13.4790 C   0  0  0  0  0  0  0  0  0  0  0  0
   -7.4870   -5.9030   13.7800 C   0  0  2  0  0  3  0  0  0  0  0  0
   -8.4040   -4.9960   12.9450 C   0  0  0  0  0  1  0  0  0  0  0  0
   -7.7480   -5.6770   15.2700 C   0  0  0  0  0  2  0  0  0  0  0  0
   -7.2280   -4.3300   15.7250 C   0  0  0  0  0  0  0  0  0  0  0  0
   -7.7690   -3.6950   16.6250 O   0  0  0  0  0  0  0  0  0  0  0  0
   -6.0640   -3.9110   15.1460 N   0  0  0  0  0  0  0  0  0  0  0  0
   -5.6150   -3.0870   15.5220 H   0  0  0  0  0  0  0  0  0  0  0  0
   -8.0580  -11.5050    9.4580 C   0  0  1  0  0  3  0  0  0  0  0  0
   -7.4140  -12.4770    8.4830 C   0  0  0  0  0  0  0  0  0  0  0  0
   -6.2660  -12.0910    7.7690 C   0  0  0  0  0  3  0  0  0  0  0  0
   -5.6820  -12.9560    6.8410 C   0  0  0  0  0  3  0  0  0  0  0  0
   -6.2420  -14.2110    6.6140 C   0  0  0  0  0  0  0  0  0  0  0  0
   -5.5260  -15.2700    5.4650 Cl  0  0  0  0  0  0  0  0  0  0  0  0
   -7.3800  -14.6080    7.3100 C   0  0  0  0  0  3  0  0  0  0  0  0
   -7.9660  -13.7450    8.2400 C   0  0  0  0  0  3  0  0  0  0  0  0
   -9.5060  -11.9680    9.7540 C   0  0  0  0  0  2  0  0  0  0  0  0
  -10.1850  -11.1920   10.8560 N   0  0  0  0  0  4  0  0  0  0  0  0
   -9.5360  -11.2610   11.6690 H   0  0  0  0  0  0  0  0  0  0  0  0
  -11.0240  -11.7050   11.1620 H   0  0  0  0  0  0  0  0  0  0  0  0
  -12.0270   -9.5980   10.4450 C   0  0  0  0  0  1  0  0  0  0  0  0
  -10.5240   -9.7500   10.6250 C   0  0  0  0  0  3  0  0  0  0  0  0
  -10.0210   -8.9510   11.8220 C   0  0  0  0  0  1  0  0  0  0  0  0
  1  3  1  0  0  0  0
  1  2  2  0  0  0  0
  3  4  1  0  0  0  0
  4  5  1  0  0  0  0
  6  5  1  0  0  0  0
  6 10  1  0  0  0  0
  7  8  1  6  0  0  0
  7  6  1  0  0  0  0
  9  8  1  6  0  0  0
  9  7  1  0  0  0  0
  9  3  1  0  0  0  0
 10 15  1  0  0  0  0
 11 10  2  0  0  0  0
 11 12  1  0  0  0  0
 12 13  2  0  0  0  0
 13 14  1  0  0  0  0
 14 21  1  0  0  0  0
 15 16  1  0  0  0  0
 15 14  2  0  0  0  0
 16 17  1  6  0  0  0
 16 18  1  0  0  0  0
 18 19  1  0  0  0  0
 19 20  2  0  0  0  0
 21 22  1  0  0  0  0
 21 19  1  0  0  0  0
 23 31  1  1  0  0  0
 23  1  1  0  0  0  0
 24 23  1  0  0  0  0
 25 24  2  0  0  0  0
 26 25  1  0  0  0  0
 27 26  2  0  0  0  0
 27 29  1  0  0  0  0
 28 27  1  0  0  0  0
 29 30  2  0  0  0  0
 30 24  1  0  0  0  0
 31 32  1  0  0  0  0
 32 34  1  0  0  0  0
 32 33  1  0  0  0  0
 35 36  1  0  0  0  0
 36 32  1  0  0  0  0
 36 37  1  0  0  0  0
M  END
>  <minimizedAffinity>
-4.74183846

$$$$

 OpenBabel11232420293D

 37 41  0  0  1  0  0  0  0  0999 V2000
   -5.0550   -7.5360   10.7890 C   0  0  0  0  0  0  0  0  0  0  0  0
   -4.5610   -6.9310    9.8270 O   0  0  0  0  0  0  0  0  0  0  0  0
   -5.8710   -8.6450   10.6160 N   0  0  0  0  0  0  0  0  0  0  0  0
   -6.1410   -9.0690    9.2250 C   0  0  0  0  0  2  0  0  0  0  0  0
   -6.8040  -10.4430    9.0320 C   0  0  0  0  0  2  0  0  0  0  0  0
   -7.9640  -10.5500    9.9190 N   0  0  0  0  0  0  0  0  0  0  0  0
   -7.6840  -10.3190   11.3420 C   0  0  1  0  0  3  0  0  0  0  0  0
   -6.4100  -10.7270   12.0300 C   0  0  0  0  0  2  0  0  0  0  0  0
   -6.6300   -9.2830   11.6770 C   0  0  1  0  0  3  0  0  0  0  0  0
   -8.9480  -11.4630    9.5060 C   0  0  0  0  0  0  0  0  0  0  0  0
   -8.6180  -12.7690    9.4770 N   0  0  0  0  0  0  0  0  0  0  0  0
   -9.5300  -13.6250    8.9960 C   0  0  0  0  0  3  0  0  0  0  0  0
  -10.7140  -13.2990    8.4750 N   0  0  0  0  0  0  0  0  0  0  0  0
  -10.9860  -11.9920    8.4630 C   0  0  0  0  0  0  0  0  0  0  0  0
  -10.1750  -11.0170    9.0250 C   0  0  0  0  0  0  0  0  0  0  0  0
  -10.6600   -9.5910    9.0350 C   0  0  2  0  0  3  0  0  0  0  0  0
  -11.5940   -9.3260   10.2260 C   0  0  0  0  0  1  0  0  0  0  0  0
  -11.3900   -9.2920    7.7240 C   0  0  0  0  0  2  0  0  0  0  0  0
  -12.4490  -10.3320    7.4310 C   0  0  0  0  0  0  0  0  0  0  0  0
  -13.4820  -10.0560    6.8290 O   0  0  0  0  0  0  0  0  0  0  0  0
  -12.1430  -11.6150    7.7860 N   0  0  0  0  0  0  0  0  0  0  0  0
  -12.7640  -12.3530    7.4820 H   0  0  0  0  0  0  0  0  0  0  0  0
   -4.8670   -6.9550   12.1930 C   0  0  1  0  0  3  0  0  0  0  0  0
   -3.6240   -7.4710   12.9000 C   0  0  0  0  0  0  0  0  0  0  0  0
   -3.7300   -8.5380   13.8100 C   0  0  0  0  0  3  0  0  0  0  0  0
   -2.6050   -9.0010   14.4960 C   0  0  0  0  0  3  0  0  0  0  0  0
   -1.3670   -8.3990   14.2860 C   0  0  0  0  0  0  0  0  0  0  0  0
    0.0130   -8.9650   15.1390 Cl  0  0  0  0  0  0  0  0  0  0  0  0
   -1.2440   -7.3400   13.3910 C   0  0  0  0  0  3  0  0  0  0  0  0
   -2.3680   -6.8750   12.7020 C   0  0  0  0  0  3  0  0  0  0  0  0
   -4.8090   -5.4090   12.1290 C   0  0  0  0  0  2  0  0  0  0  0  0
   -5.7340   -4.7210   13.1040 N   0  0  0  0  0  4  0  0  0  0  0  0
   -6.4830   -5.4190   13.2990 H   0  0  0  0  0  0  0  0  0  0  0  0
   -6.2260   -3.9560   12.6190 H   0  0  0  0  0  0  0  0  0  0  0  0
   -5.2510   -5.3300   15.4480 C   0  0  0  0  0  1  0  0  0  0  0  0
   -5.1790   -4.2250   14.4050 C   0  0  0  0  0  3  0  0  0  0  0  0
   -3.7420   -3.7770   14.1640 C   0  0  0  0  0  1  0  0  0  0  0  0
  1 23  1  0  0  0  0
  2  1  2  0  0  0  0
  3  1  1  0  0  0  0
  3  9  1  0  0  0  0
  4  3  1  0  0  0  0
  5  4  1  0  0  0  0
  5  6  1  0  0  0  0
  6  7  1  0  0  0  0
  7  9  1  0  0  0  0
  7  8  1  6  0  0  0
  9  8  1  1  0  0  0
 10  6  1  0  0  0  0
 11 10  1  0  0  0  0
 12 11  2  0  0  0  0
 13 12  1  0  0  0  0
 14 13  2  0  0  0  0
 14 15  1  0  0  0  0
 15 16  1  0  0  0  0
 15 10  2  0  0  0  0
 16 17  1  1  0  0  0
 18 16  1  0  0  0  0
 19 18  1  0  0  0  0
 19 21  1  0  0  0  0
 20 19  2  0  0  0  0
 21 14  1  0  0  0  0
 22 21  1  0  0  0  0
 23 31  1  6  0  0  0
 23 24  1  0  0  0  0
 24 25  1  0  0  0  0
 25 26  2  0  0  0  0
 27 26  1  0  0  0  0
 27 28  1  0  0  0  0
 29 27  2  0  0  0  0
 30 24  2  0  0  0  0
 30 29  1  0  0  0  0
 31 32  1  0  0  0  0
 32 33  1  0  0  0  0
 32 36  1  0  0  0  0
 34 32  1  0  0  0  0
 36 35  1  0  0  0  0
 37 36  1  0  0  0  0
M  END
>  <minimizedAffinity>
-4.71213484

$$$$

 OpenBabel11232420293D

 37 41  0  0  1  0  0  0  0  0999 V2000
   -7.1040   -9.7950    9.7160 C   0  0  0  0  0  0  0  0  0  0  0  0
   -6.3760  -10.1880    8.7940 O   0  0  0  0  0  0  0  0  0  0  0  0
   -6.7280   -8.7530   10.5520 N   0  0  0  0  0  0  0  0  0  0  0  0
   -5.4080   -8.1360   10.3040 C   0  0  0  0  0  2  0  0  0  0  0  0
   -5.1070   -6.8170   11.0340 C   0  0  0  0  0  2  0  0  0  0  0  0
   -5.4350   -6.9620   12.4530 N   0  0  0  0  0  0  0  0  0  0  0  0
   -6.8100   -7.3930   12.7340 C   0  0  1  0  0  3  0  0  0  0  0  0
   -8.0070   -6.9860   11.9190 C   0  0  0  0  0  2  0  0  0  0  0  0
   -7.4390   -8.3670   11.7590 C   0  0  1  0  0  3  0  0  0  0  0  0
   -4.7510   -6.0890   13.3150 C   0  0  0  0  0  0  0  0  0  0  0  0
   -5.1270   -4.7950   13.3240 N   0  0  0  0  0  0  0  0  0  0  0  0
   -4.4120   -3.9500   14.0800 C   0  0  0  0  0  3  0  0  0  0  0  0
   -3.3150   -4.2560   14.7750 N   0  0  0  0  0  0  0  0  0  0  0  0
   -2.9340   -5.5330   14.6970 C   0  0  0  0  0  0  0  0  0  0  0  0
   -3.6440   -6.5240   14.0370 C   0  0  0  0  0  0  0  0  0  0  0  0
   -3.1520   -7.9460   14.1250 C   0  0  2  0  0  3  0  0  0  0  0  0
   -3.6380   -8.6270   15.4140 C   0  0  0  0  0  1  0  0  0  0  0  0
   -1.6240   -7.9610   14.0720 C   0  0  0  0  0  2  0  0  0  0  0  0
   -1.0260   -7.0070   15.0840 C   0  0  0  0  0  0  0  0  0  0  0  0
    0.0540   -7.2250   15.6240 O   0  0  0  0  0  0  0  0  0  0  0  0
   -1.7100   -5.8410   15.2850 N   0  0  0  0  0  0  0  0  0  0  0  0
   -1.2710   -5.1240   15.8460 H   0  0  0  0  0  0  0  0  0  0  0  0
   -8.3860  -10.5750   10.0210 C   0  0  1  0  0  3  0  0  0  0  0  0
   -9.5500  -10.2020    9.1170 C   0  0  0  0  0  0  0  0  0  0  0  0
  -10.7360  -10.9550    9.1580 C   0  0  0  0  0  3  0  0  0  0  0  0
  -11.8020  -10.6500    8.3090 C   0  0  0  0  0  3  0  0  0  0  0  0
  -11.6910   -9.5950    7.4080 C   0  0  0  0  0  0  0  0  0  0  0  0
  -13.0020   -9.2280    6.3570 Cl  0  0  0  0  0  0  0  0  0  0  0  0
  -10.5240   -8.8400    7.3510 C   0  0  0  0  0  3  0  0  0  0  0  0
   -9.4550   -9.1420    8.2000 C   0  0  0  0  0  3  0  0  0  0  0  0
   -8.1250  -12.0970    9.9080 C   0  0  0  0  0  2  0  0  0  0  0  0
   -7.8900  -12.5760    8.4960 N   0  0  0  0  0  4  0  0  0  0  0  0
   -7.6430  -11.7150    7.9610 H   0  0  0  0  0  0  0  0  0  0  0  0
   -8.7870  -12.8760    8.0880 H   0  0  0  0  0  0  0  0  0  0  0  0
   -6.1330  -13.3320    6.9330 C   0  0  0  0  0  1  0  0  0  0  0  0
   -6.8430  -13.6190    8.2480 C   0  0  0  0  0  3  0  0  0  0  0  0
   -5.8720  -13.6020    9.4230 C   0  0  0  0  0  1  0  0  0  0  0  0
  1 23  1  0  0  0  0
  1  3  1  0  0  0  0
  2  1  2  0  0  0  0
  3  9  1  0  0  0  0
  4  3  1  0  0  0  0
  4  5  1  0  0  0  0
  5  6  1  0  0  0  0
  6  7  1  0  0  0  0
  6 10  1  0  0  0  0
  7  8  1  6  0  0  0
  9  8  1  6  0  0  0
  9  7  1  0  0  0  0
 10 11  2  0  0  0  0
 10 15  1  0  0  0  0
 11 12  1  0  0  0  0
 12 13  2  0  0  0  0
 14 13  1  0  0  0  0
 14 21  1  0  0  0  0
 15 16  1  0  0  0  0
 15 14  2  0  0  0  0
 16 17  1  1  0  0  0
 18 16  1  0  0  0  0
 18 19  1  0  0  0  0
 19 21  1  0  0  0  0
 19 20  2  0  0  0  0
 21 22  1  0  0  0  0
 23 31  1  6  0  0  0
 24 25  1  0  0  0  0
 24 23  1  0  0  0  0
 26 25  2  0  0  0  0
 27 26  1  0  0  0  0
 28 27  1  0  0  0  0
 29 27  2  0  0  0  0
 29 30  1  0  0  0  0
 30 24  2  0  0  0  0
 32 31  1  0  0  0  0
 33 32  1  0  0  0  0
 34 32  1  0  0  0  0
 35 36  1  0  0  0  0
 36 32  1  0  0  0  0
 36 37  1  0  0  0  0
M  END
>  <minimizedAffinity>
-4.5613246

$$$$

 OpenBabel11232420293D

 37 41  0  0  1  0  0  0  0  0999 V2000
   -4.9160   -7.4620   10.9290 C   0  0  0  0  0  0  0  0  0  0  0  0
   -4.3580   -6.8260   10.0240 O   0  0  0  0  0  0  0  0  0  0  0  0
   -5.7770   -8.5160   10.6600 N   0  0  0  0  0  0  0  0  0  0  0  0
   -6.0150   -8.8440    9.2380 C   0  0  0  0  0  2  0  0  0  0  0  0
   -6.7360  -10.1680    8.9390 C   0  0  0  0  0  2  0  0  0  0  0  0
   -7.9320  -10.2690    9.7770 N   0  0  0  0  0  0  0  0  0  0  0  0
   -7.6950  -10.1370   11.2200 C   0  0  1  0  0  3  0  0  0  0  0  0
   -6.4690  -10.6480   11.9260 C   0  0  0  0  0  2  0  0  0  0  0  0
   -6.6060   -9.1770   11.6540 C   0  0  1  0  0  3  0  0  0  0  0  0
   -8.9420  -11.1050    9.2750 C   0  0  0  0  0  0  0  0  0  0  0  0
  -10.0650  -10.5230    8.8110 N   0  0  0  0  0  0  0  0  0  0  0  0
  -11.0610  -11.3290    8.4180 C   0  0  0  0  0  3  0  0  0  0  0  0
  -11.0760  -12.6600    8.5080 N   0  0  0  0  0  0  0  0  0  0  0  0
   -9.9720  -13.2030    9.0280 C   0  0  0  0  0  0  0  0  0  0  0  0
   -8.8350  -12.4890    9.3730 C   0  0  0  0  0  0  0  0  0  0  0  0
   -7.6220  -13.2480    9.8470 C   0  0  2  0  0  3  0  0  0  0  0  0
   -6.7890  -13.7650    8.6650 C   0  0  0  0  0  1  0  0  0  0  0  0
   -8.0640  -14.4190   10.7250 C   0  0  0  0  0  2  0  0  0  0  0  0
   -9.1220  -15.2560   10.0390 C   0  0  0  0  0  0  0  0  0  0  0  0
   -9.2190  -16.4650   10.2290 O   0  0  0  0  0  0  0  0  0  0  0  0
  -10.0250  -14.5720    9.2750 N   0  0  0  0  0  0  0  0  0  0  0  0
  -10.8230  -15.0780    8.9160 H   0  0  0  0  0  0  0  0  0  0  0  0
   -4.7540   -6.9750   12.3720 C   0  0  1  0  0  3  0  0  0  0  0  0
   -3.5360   -7.5550   13.0720 C   0  0  0  0  0  0  0  0  0  0  0  0
   -3.6700   -8.7060   13.8680 C   0  0  0  0  0  3  0  0  0  0  0  0
   -2.5690   -9.2310   14.5490 C   0  0  0  0  0  3  0  0  0  0  0  0
   -1.3280   -8.6080   14.4470 C   0  0  0  0  0  0  0  0  0  0  0  0
    0.0220   -9.2520   15.2950 Cl  0  0  0  0  0  0  0  0  0  0  0  0
   -1.1780   -7.4660   13.6670 C   0  0  0  0  0  3  0  0  0  0  0  0
   -2.2770   -6.9380   12.9830 C   0  0  0  0  0  3  0  0  0  0  0  0
   -4.6730   -5.4290   12.4090 C   0  0  0  0  0  2  0  0  0  0  0  0
   -5.5990   -4.7910   13.4150 N   0  0  0  0  0  4  0  0  0  0  0  0
   -6.2890   -5.5360   13.6520 H   0  0  0  0  0  0  0  0  0  0  0  0
   -6.1630   -4.0690   12.9440 H   0  0  0  0  0  0  0  0  0  0  0  0
   -4.9160   -5.3460   15.7240 C   0  0  0  0  0  1  0  0  0  0  0  0
   -5.0230   -4.2390   14.6850 C   0  0  0  0  0  3  0  0  0  0  0  0
   -3.6580   -3.6420   14.3620 C   0  0  0  0  0  1  0  0  0  0  0  0
  1 23  1  0  0  0  0
  2  1  2  0  0  0  0
  3  1  1  0  0  0  0
  3  9  1  0  0  0  0
  4  3  1  0  0  0  0
  5  4  1  0  0  0  0
  5  6  1  0  0  0  0
  6  7  1  0  0  0  0
  7  9  1  0  0  0  0
  7  8  1  6  0  0  0
  9  8  1  1  0  0  0
 10 15  1  0  0  0  0
 10  6  1  0  0  0  0
 11 10  2  0  0  0  0
 12 13  2  0  0  0  0
 12 11  1  0  0  0  0
 13 14  1  0  0  0  0
 14 21  1  0  0  0  0
 14 15  2  0  0  0  0
 15 16  1  0  0  0  0
 16 17  1  6  0  0  0
 16 18  1  0  0  0  0
 19 20  2  0  0  0  0
 19 18  1  0  0  0  0
 21 19  1  0  0  0  0
 22 21  1  0  0  0  0
 23 31  1  6  0  0  0
 23 24  1  0  0  0  0
 24 25  1  0  0  0  0
 25 26  2  0  0  0  0
 27 26  1  0  0  0  0
 27 28  1  0  0  0  0
 29 27  2  0  0  0  0
 30 24  2  0  0  0  0
 30 29  1  0  0  0  0
 31 32  1  0  0  0  0
 32 33  1  0  0  0  0
 32 36  1  0  0  0  0
 34 32  1  0  0  0  0
 36 35  1  0  0  0  0
 37 36  1  0  0  0  0
M  END
>  <minimizedAffinity>
-4.43287754

$$$$
