
 OpenBabel11232420293D

 37 41  0  0  1  0  0  0  0  0999 V2000
   -4.4500   -5.9440   12.1980 C   0  0  0  0  0  0  0  0  0  0  0  0
   -3.9970   -5.0330   11.4900 O   0  0  0  0  0  0  0  0  0  0  0  0
   -5.1400   -7.0180   11.6550 N   0  0  0  0  0  0  0  0  0  0  0  0
   -5.3270   -7.0250   10.1880 C   0  0  0  0  0  2  0  0  0  0  0  0
   -5.8380   -8.3300    9.5570 C   0  0  0  0  0  2  0  0  0  0  0  0
   -7.0030   -8.8070   10.3030 N   0  0  0  0  0  0  0  0  0  0  0  0
   -6.7870   -8.9930   11.7440 C   0  0  1  0  0  3  0  0  0  0  0  0
   -5.4960   -9.4710   12.3500 C   0  0  0  0  0  2  0  0  0  0  0  0
   -5.8570   -8.0150   12.4320 C   0  0  1  0  0  3  0  0  0  0  0  0
   -7.8750   -9.6380    9.5820 C   0  0  0  0  0  0  0  0  0  0  0  0
   -9.1010   -9.1610    9.2930 N   0  0  0  0  0  0  0  0  0  0  0  0
   -9.9590   -9.9910    8.6840 C   0  0  0  0  0  3  0  0  0  0  0  0
   -9.7380  -11.2750    8.3970 N   0  0  0  0  0  0  0  0  0  0  0  0
   -8.5350  -11.7350    8.7500 C   0  0  0  0  0  0  0  0  0  0  0  0
   -7.5250  -10.9530    9.2880 C   0  0  0  0  0  0  0  0  0  0  0  0
   -6.1790  -11.5830    9.5370 C   0  0  2  0  0  3  0  0  0  0  0  0
   -5.3220  -11.5950    8.2620 C   0  0  0  0  0  1  0  0  0  0  0  0
   -6.3710  -13.0110   10.0490 C   0  0  0  0  0  2  0  0  0  0  0  0
   -7.2970  -13.8010    9.1490 C   0  0  0  0  0  0  0  0  0  0  0  0
   -7.1750  -15.0120    8.9920 O   0  0  0  0  0  0  0  0  0  0  0  0
   -8.3390  -13.1050    8.6030 N   0  0  0  0  0  0  0  0  0  0  0  0
   -9.0520  -13.6260    8.1110 H   0  0  0  0  0  0  0  0  0  0  0  0
   -4.3620   -5.8010   13.7200 C   0  0  1  0  0  3  0  0  0  0  0  0
   -3.0300   -6.2570   14.2930 C   0  0  0  0  0  0  0  0  0  0  0  0
   -2.5260   -5.6490   15.4570 C   0  0  0  0  0  3  0  0  0  0  0  0
   -1.2870   -6.0290   15.9770 C   0  0  0  0  0  3  0  0  0  0  0  0
   -0.5370   -7.0130   15.3380 C   0  0  0  0  0  0  0  0  0  0  0  0
    0.9920   -7.4710   15.9760 Cl  0  0  0  0  0  0  0  0  0  0  0  0
   -1.0190   -7.6220   14.1830 C   0  0  0  0  0  3  0  0  0  0  0  0
   -2.2590   -7.2460   13.6600 C   0  0  0  0  0  3  0  0  0  0  0  0
   -4.6160   -4.3310   14.1340 C   0  0  0  0  0  2  0  0  0  0  0  0
   -5.9790   -4.0910   14.7360 N   0  0  0  0  0  4  0  0  0  0  0  0
   -6.2730   -3.1600   14.3670 H   0  0  0  0  0  0  0  0  0  0  0  0
   -5.8780   -3.9370   15.7490 H   0  0  0  0  0  0  0  0  0  0  0  0
   -7.9290   -5.2410   15.7250 C   0  0  0  0  0  1  0  0  0  0  0  0
   -7.0720   -5.0840   14.4780 C   0  0  0  0  0  3  0  0  0  0  0  0
   -7.8930   -4.5830   13.2950 C   0  0  0  0  0  1  0  0  0  0  0  0
  1 23  1  0  0  0  0
  2  1  2  0  0  0  0
  3  1  1  0  0  0  0
  3  9  1  0  0  0  0
  4  3  1  0  0  0  0
  5  4  1  0  0  0  0
  5  6  1  0  0  0  0
  6  7  1  0  0  0  0
  7  8  1  6  0  0  0
  7  9  1  0  0  0  0
  9  8  1  6  0  0  0
 10  6  1  0  0  0  0
 11 10  1  0  0  0  0
 12 11  2  0  0  0  0
 13 12  1  0  0  0  0
 13 14  2  0  0  0  0
 14 15  1  0  0  0  0
 15 16  1  0  0  0  0
 15 10  2  0  0  0  0
 16 17  1  6  0  0  0
 16 18  1  0  0  0  0
 19 18  1  0  0  0  0
 20 19  2  0  0  0  0
 21 14  1  0  0  0  0
 21 19  1  0  0  0  0
 22 21  1  0  0  0  0
 23 31  1  6  0  0  0
 23 24  1  0  0  0  0
 24 25  1  0  0  0  0
 25 26  2  0  0  0  0
 27 28  1  0  0  0  0
 27 26  1  0  0  0  0
 29 27  2  0  0  0  0
 30 29  1  0  0  0  0
 30 24  2  0  0  0  0
 31 32  1  0  0  0  0
 32 34  1  0  0  0  0
 33 32  1  0  0  0  0
 36 32  1  0  0  0  0
 36 35  1  0  0  0  0
 37 36  1  0  0  0  0
M  END
>  <minimizedAffinity>
-4.94138145

$$$$
