
 OpenBabel11232420293D

 37 41  0  0  1  0  0  0  0  0999 V2000
   -5.7380   -4.8760   11.1670 C   0  0  0  0  0  0  0  0  0  0  0  0
   -5.6320   -3.9500   10.3510 O   0  0  0  0  0  0  0  0  0  0  0  0
   -6.1820   -6.1360   10.7920 N   0  0  0  0  0  0  0  0  0  0  0  0
   -6.5400   -6.3270    9.3700 C   0  0  0  0  0  2  0  0  0  0  0  0
   -6.7620   -7.7720    8.8950 C   0  0  0  0  0  2  0  0  0  0  0  0
   -7.6590   -8.4570    9.8280 N   0  0  0  0  0  0  0  0  0  0  0  0
   -7.2240   -8.4470   11.2300 C   0  0  1  0  0  3  0  0  0  0  0  0
   -5.7880   -8.5230   11.6710 C   0  0  0  0  0  2  0  0  0  0  0  0
   -6.5070   -7.2050   11.7200 C   0  0  1  0  0  3  0  0  0  0  0  0
   -8.3620   -9.5450    9.2880 C   0  0  0  0  0  0  0  0  0  0  0  0
   -9.6400   -9.3420    8.9120 N   0  0  0  0  0  0  0  0  0  0  0  0
  -10.3340  -10.4050    8.4820 C   0  0  0  0  0  3  0  0  0  0  0  0
   -9.9000  -11.6660    8.4570 N   0  0  0  0  0  0  0  0  0  0  0  0
   -8.6500  -11.8440    8.8920 C   0  0  0  0  0  0  0  0  0  0  0  0
   -7.7960  -10.8160    9.2620 C   0  0  0  0  0  0  0  0  0  0  0  0
   -6.3740  -11.1560    9.6290 C   0  0  2  0  0  3  0  0  0  0  0  0
   -5.4880  -11.2780    8.3800 C   0  0  0  0  0  1  0  0  0  0  0  0
   -6.3500  -12.4670   10.4150 C   0  0  0  0  0  2  0  0  0  0  0  0
   -7.1090  -13.5590    9.6920 C   0  0  0  0  0  0  0  0  0  0  0  0
   -6.7880  -14.7410    9.7790 O   0  0  0  0  0  0  0  0  0  0  0  0
   -8.2310  -13.1650    9.0210 N   0  0  0  0  0  0  0  0  0  0  0  0
   -8.8360  -13.8830    8.6440 H   0  0  0  0  0  0  0  0  0  0  0  0
   -5.5020   -4.5740   12.6500 C   0  0  1  0  0  3  0  0  0  0  0  0
   -6.7670   -4.6480   13.4900 C   0  0  0  0  0  0  0  0  0  0  0  0
   -6.7200   -5.2160   14.7740 C   0  0  0  0  0  3  0  0  0  0  0  0
   -7.8790   -5.3270   15.5460 C   0  0  0  0  0  3  0  0  0  0  0  0
   -9.0960   -4.8770   15.0390 C   0  0  0  0  0  0  0  0  0  0  0  0
  -10.5220   -5.0230   15.9870 Cl  0  0  0  0  0  0  0  0  0  0  0  0
   -9.1620   -4.3150   13.7680 C   0  0  0  0  0  3  0  0  0  0  0  0
   -8.0030   -4.2020   12.9940 C   0  0  0  0  0  3  0  0  0  0  0  0
   -4.4490   -5.5480   13.2330 C   0  0  0  0  0  2  0  0  0  0  0  0
   -3.1780   -4.8740   13.6890 N   0  0  0  0  0  4  0  0  0  0  0  0
   -3.2760   -3.8830   13.3800 H   0  0  0  0  0  0  0  0  0  0  0  0
   -2.3880   -5.2320   13.1330 H   0  0  0  0  0  0  0  0  0  0  0  0
   -3.3110   -3.6160   15.8110 C   0  0  0  0  0  1  0  0  0  0  0  0
   -2.8270   -4.8960   15.1460 C   0  0  0  0  0  3  0  0  0  0  0  0
   -3.4740   -6.1280   15.7680 C   0  0  0  0  0  1  0  0  0  0  0  0
  1 23  1  0  0  0  0
  2  1  2  0  0  0  0
  3  1  1  0  0  0  0
  3  9  1  0  0  0  0
  4  3  1  0  0  0  0
  5  4  1  0  0  0  0
  5  6  1  0  0  0  0
  6  7  1  0  0  0  0
  7  8  1  6  0  0  0
  7  9  1  0  0  0  0
  9  8  1  6  0  0  0
 10  6  1  0  0  0  0
 11 10  2  0  0  0  0
 12 11  1  0  0  0  0
 13 12  2  0  0  0  0
 13 14  1  0  0  0  0
 14 21  1  0  0  0  0
 14 15  2  0  0  0  0
 15 10  1  0  0  0  0
 15 16  1  0  0  0  0
 16 17  1  6  0  0  0
 16 18  1  0  0  0  0
 19 20  2  0  0  0  0
 19 18  1  0  0  0  0
 21 19  1  0  0  0  0
 22 21  1  0  0  0  0
 23 31  1  1  0  0  0
 23 24  1  0  0  0  0
 24 25  1  0  0  0  0
 25 26  2  0  0  0  0
 27 26  1  0  0  0  0
 27 28  1  0  0  0  0
 29 27  2  0  0  0  0
 30 24  2  0  0  0  0
 30 29  1  0  0  0  0
 31 32  1  0  0  0  0
 32 36  1  0  0  0  0
 33 32  1  0  0  0  0
 34 32  1  0  0  0  0
 36 37  1  0  0  0  0
 36 35  1  0  0  0  0
M  END
>  <minimizedAffinity>
-4.76866579

$$$$
