
 OpenBabel11232420293D

 37 41  0  0  1  0  0  0  0  0999 V2000
   -5.0550   -7.5360   10.7890 C   0  0  0  0  0  0  0  0  0  0  0  0
   -4.5610   -6.9310    9.8270 O   0  0  0  0  0  0  0  0  0  0  0  0
   -5.8710   -8.6450   10.6160 N   0  0  0  0  0  0  0  0  0  0  0  0
   -6.1410   -9.0690    9.2250 C   0  0  0  0  0  2  0  0  0  0  0  0
   -6.8040  -10.4430    9.0320 C   0  0  0  0  0  2  0  0  0  0  0  0
   -7.9640  -10.5500    9.9190 N   0  0  0  0  0  0  0  0  0  0  0  0
   -7.6840  -10.3190   11.3420 C   0  0  1  0  0  3  0  0  0  0  0  0
   -6.4100  -10.7270   12.0300 C   0  0  0  0  0  2  0  0  0  0  0  0
   -6.6300   -9.2830   11.6770 C   0  0  1  0  0  3  0  0  0  0  0  0
   -8.9480  -11.4630    9.5060 C   0  0  0  0  0  0  0  0  0  0  0  0
   -8.6180  -12.7690    9.4770 N   0  0  0  0  0  0  0  0  0  0  0  0
   -9.5300  -13.6250    8.9960 C   0  0  0  0  0  3  0  0  0  0  0  0
  -10.7140  -13.2990    8.4750 N   0  0  0  0  0  0  0  0  0  0  0  0
  -10.9860  -11.9920    8.4630 C   0  0  0  0  0  0  0  0  0  0  0  0
  -10.1750  -11.0170    9.0250 C   0  0  0  0  0  0  0  0  0  0  0  0
  -10.6600   -9.5910    9.0350 C   0  0  2  0  0  3  0  0  0  0  0  0
  -11.5940   -9.3260   10.2260 C   0  0  0  0  0  1  0  0  0  0  0  0
  -11.3900   -9.2920    7.7240 C   0  0  0  0  0  2  0  0  0  0  0  0
  -12.4490  -10.3320    7.4310 C   0  0  0  0  0  0  0  0  0  0  0  0
  -13.4820  -10.0560    6.8290 O   0  0  0  0  0  0  0  0  0  0  0  0
  -12.1430  -11.6150    7.7860 N   0  0  0  0  0  0  0  0  0  0  0  0
  -12.7640  -12.3530    7.4820 H   0  0  0  0  0  0  0  0  0  0  0  0
   -4.8670   -6.9550   12.1930 C   0  0  1  0  0  3  0  0  0  0  0  0
   -3.6240   -7.4710   12.9000 C   0  0  0  0  0  0  0  0  0  0  0  0
   -3.7300   -8.5380   13.8100 C   0  0  0  0  0  3  0  0  0  0  0  0
   -2.6050   -9.0010   14.4960 C   0  0  0  0  0  3  0  0  0  0  0  0
   -1.3670   -8.3990   14.2860 C   0  0  0  0  0  0  0  0  0  0  0  0
    0.0130   -8.9650   15.1390 Cl  0  0  0  0  0  0  0  0  0  0  0  0
   -1.2440   -7.3400   13.3910 C   0  0  0  0  0  3  0  0  0  0  0  0
   -2.3680   -6.8750   12.7020 C   0  0  0  0  0  3  0  0  0  0  0  0
   -4.8090   -5.4090   12.1290 C   0  0  0  0  0  2  0  0  0  0  0  0
   -5.7340   -4.7210   13.1040 N   0  0  0  0  0  4  0  0  0  0  0  0
   -6.4830   -5.4190   13.2990 H   0  0  0  0  0  0  0  0  0  0  0  0
   -6.2260   -3.9560   12.6190 H   0  0  0  0  0  0  0  0  0  0  0  0
   -5.2510   -5.3300   15.4480 C   0  0  0  0  0  1  0  0  0  0  0  0
   -5.1790   -4.2250   14.4050 C   0  0  0  0  0  3  0  0  0  0  0  0
   -3.7420   -3.7770   14.1640 C   0  0  0  0  0  1  0  0  0  0  0  0
  1 23  1  0  0  0  0
  2  1  2  0  0  0  0
  3  1  1  0  0  0  0
  3  9  1  0  0  0  0
  4  3  1  0  0  0  0
  5  4  1  0  0  0  0
  5  6  1  0  0  0  0
  6  7  1  0  0  0  0
  7  9  1  0  0  0  0
  7  8  1  6  0  0  0
  9  8  1  1  0  0  0
 10  6  1  0  0  0  0
 11 10  1  0  0  0  0
 12 11  2  0  0  0  0
 13 12  1  0  0  0  0
 14 13  2  0  0  0  0
 14 15  1  0  0  0  0
 15 16  1  0  0  0  0
 15 10  2  0  0  0  0
 16 17  1  1  0  0  0
 18 16  1  0  0  0  0
 19 18  1  0  0  0  0
 19 21  1  0  0  0  0
 20 19  2  0  0  0  0
 21 14  1  0  0  0  0
 22 21  1  0  0  0  0
 23 31  1  6  0  0  0
 23 24  1  0  0  0  0
 24 25  1  0  0  0  0
 25 26  2  0  0  0  0
 27 26  1  0  0  0  0
 27 28  1  0  0  0  0
 29 27  2  0  0  0  0
 30 24  2  0  0  0  0
 30 29  1  0  0  0  0
 31 32  1  0  0  0  0
 32 33  1  0  0  0  0
 32 36  1  0  0  0  0
 34 32  1  0  0  0  0
 36 35  1  0  0  0  0
 37 36  1  0  0  0  0
M  END
>  <minimizedAffinity>
-4.71213484

$$$$
