
 OpenBabel11232420293D

 37 41  0  0  1  0  0  0  0  0999 V2000
   -4.9160   -7.4620   10.9290 C   0  0  0  0  0  0  0  0  0  0  0  0
   -4.3580   -6.8260   10.0240 O   0  0  0  0  0  0  0  0  0  0  0  0
   -5.7770   -8.5160   10.6600 N   0  0  0  0  0  0  0  0  0  0  0  0
   -6.0150   -8.8440    9.2380 C   0  0  0  0  0  2  0  0  0  0  0  0
   -6.7360  -10.1680    8.9390 C   0  0  0  0  0  2  0  0  0  0  0  0
   -7.9320  -10.2690    9.7770 N   0  0  0  0  0  0  0  0  0  0  0  0
   -7.6950  -10.1370   11.2200 C   0  0  1  0  0  3  0  0  0  0  0  0
   -6.4690  -10.6480   11.9260 C   0  0  0  0  0  2  0  0  0  0  0  0
   -6.6060   -9.1770   11.6540 C   0  0  1  0  0  3  0  0  0  0  0  0
   -8.9420  -11.1050    9.2750 C   0  0  0  0  0  0  0  0  0  0  0  0
  -10.0650  -10.5230    8.8110 N   0  0  0  0  0  0  0  0  0  0  0  0
  -11.0610  -11.3290    8.4180 C   0  0  0  0  0  3  0  0  0  0  0  0
  -11.0760  -12.6600    8.5080 N   0  0  0  0  0  0  0  0  0  0  0  0
   -9.9720  -13.2030    9.0280 C   0  0  0  0  0  0  0  0  0  0  0  0
   -8.8350  -12.4890    9.3730 C   0  0  0  0  0  0  0  0  0  0  0  0
   -7.6220  -13.2480    9.8470 C   0  0  2  0  0  3  0  0  0  0  0  0
   -6.7890  -13.7650    8.6650 C   0  0  0  0  0  1  0  0  0  0  0  0
   -8.0640  -14.4190   10.7250 C   0  0  0  0  0  2  0  0  0  0  0  0
   -9.1220  -15.2560   10.0390 C   0  0  0  0  0  0  0  0  0  0  0  0
   -9.2190  -16.4650   10.2290 O   0  0  0  0  0  0  0  0  0  0  0  0
  -10.0250  -14.5720    9.2750 N   0  0  0  0  0  0  0  0  0  0  0  0
  -10.8230  -15.0780    8.9160 H   0  0  0  0  0  0  0  0  0  0  0  0
   -4.7540   -6.9750   12.3720 C   0  0  1  0  0  3  0  0  0  0  0  0
   -3.5360   -7.5550   13.0720 C   0  0  0  0  0  0  0  0  0  0  0  0
   -3.6700   -8.7060   13.8680 C   0  0  0  0  0  3  0  0  0  0  0  0
   -2.5690   -9.2310   14.5490 C   0  0  0  0  0  3  0  0  0  0  0  0
   -1.3280   -8.6080   14.4470 C   0  0  0  0  0  0  0  0  0  0  0  0
    0.0220   -9.2520   15.2950 Cl  0  0  0  0  0  0  0  0  0  0  0  0
   -1.1780   -7.4660   13.6670 C   0  0  0  0  0  3  0  0  0  0  0  0
   -2.2770   -6.9380   12.9830 C   0  0  0  0  0  3  0  0  0  0  0  0
   -4.6730   -5.4290   12.4090 C   0  0  0  0  0  2  0  0  0  0  0  0
   -5.5990   -4.7910   13.4150 N   0  0  0  0  0  4  0  0  0  0  0  0
   -6.2890   -5.5360   13.6520 H   0  0  0  0  0  0  0  0  0  0  0  0
   -6.1630   -4.0690   12.9440 H   0  0  0  0  0  0  0  0  0  0  0  0
   -4.9160   -5.3460   15.7240 C   0  0  0  0  0  1  0  0  0  0  0  0
   -5.0230   -4.2390   14.6850 C   0  0  0  0  0  3  0  0  0  0  0  0
   -3.6580   -3.6420   14.3620 C   0  0  0  0  0  1  0  0  0  0  0  0
  1 23  1  0  0  0  0
  2  1  2  0  0  0  0
  3  1  1  0  0  0  0
  3  9  1  0  0  0  0
  4  3  1  0  0  0  0
  5  4  1  0  0  0  0
  5  6  1  0  0  0  0
  6  7  1  0  0  0  0
  7  9  1  0  0  0  0
  7  8  1  6  0  0  0
  9  8  1  1  0  0  0
 10 15  1  0  0  0  0
 10  6  1  0  0  0  0
 11 10  2  0  0  0  0
 12 13  2  0  0  0  0
 12 11  1  0  0  0  0
 13 14  1  0  0  0  0
 14 21  1  0  0  0  0
 14 15  2  0  0  0  0
 15 16  1  0  0  0  0
 16 17  1  6  0  0  0
 16 18  1  0  0  0  0
 19 20  2  0  0  0  0
 19 18  1  0  0  0  0
 21 19  1  0  0  0  0
 22 21  1  0  0  0  0
 23 31  1  6  0  0  0
 23 24  1  0  0  0  0
 24 25  1  0  0  0  0
 25 26  2  0  0  0  0
 27 26  1  0  0  0  0
 27 28  1  0  0  0  0
 29 27  2  0  0  0  0
 30 24  2  0  0  0  0
 30 29  1  0  0  0  0
 31 32  1  0  0  0  0
 32 33  1  0  0  0  0
 32 36  1  0  0  0  0
 34 32  1  0  0  0  0
 36 35  1  0  0  0  0
 37 36  1  0  0  0  0
M  END
>  <minimizedAffinity>
-4.43287754

$$$$
