
 OpenBabel11232420293D

 37 41  0  0  1  0  0  0  0  0999 V2000
   -7.1040   -9.7950    9.7160 C   0  0  0  0  0  0  0  0  0  0  0  0
   -6.3760  -10.1880    8.7940 O   0  0  0  0  0  0  0  0  0  0  0  0
   -6.7280   -8.7530   10.5520 N   0  0  0  0  0  0  0  0  0  0  0  0
   -5.4080   -8.1360   10.3040 C   0  0  0  0  0  2  0  0  0  0  0  0
   -5.1070   -6.8170   11.0340 C   0  0  0  0  0  2  0  0  0  0  0  0
   -5.4350   -6.9620   12.4530 N   0  0  0  0  0  0  0  0  0  0  0  0
   -6.8100   -7.3930   12.7340 C   0  0  1  0  0  3  0  0  0  0  0  0
   -8.0070   -6.9860   11.9190 C   0  0  0  0  0  2  0  0  0  0  0  0
   -7.4390   -8.3670   11.7590 C   0  0  1  0  0  3  0  0  0  0  0  0
   -4.7510   -6.0890   13.3150 C   0  0  0  0  0  0  0  0  0  0  0  0
   -5.1270   -4.7950   13.3240 N   0  0  0  0  0  0  0  0  0  0  0  0
   -4.4120   -3.9500   14.0800 C   0  0  0  0  0  3  0  0  0  0  0  0
   -3.3150   -4.2560   14.7750 N   0  0  0  0  0  0  0  0  0  0  0  0
   -2.9340   -5.5330   14.6970 C   0  0  0  0  0  0  0  0  0  0  0  0
   -3.6440   -6.5240   14.0370 C   0  0  0  0  0  0  0  0  0  0  0  0
   -3.1520   -7.9460   14.1250 C   0  0  2  0  0  3  0  0  0  0  0  0
   -3.6380   -8.6270   15.4140 C   0  0  0  0  0  1  0  0  0  0  0  0
   -1.6240   -7.9610   14.0720 C   0  0  0  0  0  2  0  0  0  0  0  0
   -1.0260   -7.0070   15.0840 C   0  0  0  0  0  0  0  0  0  0  0  0
    0.0540   -7.2250   15.6240 O   0  0  0  0  0  0  0  0  0  0  0  0
   -1.7100   -5.8410   15.2850 N   0  0  0  0  0  0  0  0  0  0  0  0
   -1.2710   -5.1240   15.8460 H   0  0  0  0  0  0  0  0  0  0  0  0
   -8.3860  -10.5750   10.0210 C   0  0  1  0  0  3  0  0  0  0  0  0
   -9.5500  -10.2020    9.1170 C   0  0  0  0  0  0  0  0  0  0  0  0
  -10.7360  -10.9550    9.1580 C   0  0  0  0  0  3  0  0  0  0  0  0
  -11.8020  -10.6500    8.3090 C   0  0  0  0  0  3  0  0  0  0  0  0
  -11.6910   -9.5950    7.4080 C   0  0  0  0  0  0  0  0  0  0  0  0
  -13.0020   -9.2280    6.3570 Cl  0  0  0  0  0  0  0  0  0  0  0  0
  -10.5240   -8.8400    7.3510 C   0  0  0  0  0  3  0  0  0  0  0  0
   -9.4550   -9.1420    8.2000 C   0  0  0  0  0  3  0  0  0  0  0  0
   -8.1250  -12.0970    9.9080 C   0  0  0  0  0  2  0  0  0  0  0  0
   -7.8900  -12.5760    8.4960 N   0  0  0  0  0  4  0  0  0  0  0  0
   -7.6430  -11.7150    7.9610 H   0  0  0  0  0  0  0  0  0  0  0  0
   -8.7870  -12.8760    8.0880 H   0  0  0  0  0  0  0  0  0  0  0  0
   -6.1330  -13.3320    6.9330 C   0  0  0  0  0  1  0  0  0  0  0  0
   -6.8430  -13.6190    8.2480 C   0  0  0  0  0  3  0  0  0  0  0  0
   -5.8720  -13.6020    9.4230 C   0  0  0  0  0  1  0  0  0  0  0  0
  1 23  1  0  0  0  0
  1  3  1  0  0  0  0
  2  1  2  0  0  0  0
  3  9  1  0  0  0  0
  4  3  1  0  0  0  0
  4  5  1  0  0  0  0
  5  6  1  0  0  0  0
  6  7  1  0  0  0  0
  6 10  1  0  0  0  0
  7  8  1  6  0  0  0
  9  8  1  6  0  0  0
  9  7  1  0  0  0  0
 10 11  2  0  0  0  0
 10 15  1  0  0  0  0
 11 12  1  0  0  0  0
 12 13  2  0  0  0  0
 14 13  1  0  0  0  0
 14 21  1  0  0  0  0
 15 16  1  0  0  0  0
 15 14  2  0  0  0  0
 16 17  1  1  0  0  0
 18 16  1  0  0  0  0
 18 19  1  0  0  0  0
 19 21  1  0  0  0  0
 19 20  2  0  0  0  0
 21 22  1  0  0  0  0
 23 31  1  6  0  0  0
 24 25  1  0  0  0  0
 24 23  1  0  0  0  0
 26 25  2  0  0  0  0
 27 26  1  0  0  0  0
 28 27  1  0  0  0  0
 29 27  2  0  0  0  0
 29 30  1  0  0  0  0
 30 24  2  0  0  0  0
 32 31  1  0  0  0  0
 33 32  1  0  0  0  0
 34 32  1  0  0  0  0
 35 36  1  0  0  0  0
 36 32  1  0  0  0  0
 36 37  1  0  0  0  0
M  END
>  <minimizedAffinity>
-4.5613246

$$$$
