
 OpenBabel11232420293D

 37 41  0  0  1  0  0  0  0  0999 V2000
   -7.2770  -11.3450   10.7650 C   0  0  0  0  0  0  0  0  0  0  0  0
   -7.3400  -12.2520   11.6070 O   0  0  0  0  0  0  0  0  0  0  0  0
   -6.6260  -10.1480   11.0250 N   0  0  0  0  0  0  0  0  0  0  0  0
   -6.0180   -9.9900   12.3640 C   0  0  0  0  0  2  0  0  0  0  0  0
   -5.0680   -8.7980   12.5630 C   0  0  0  0  0  2  0  0  0  0  0  0
   -5.7040   -7.5810   12.0550 N   0  0  0  0  0  0  0  0  0  0  0  0
   -6.1480   -7.6470   10.6570 C   0  0  1  0  0  3  0  0  0  0  0  0
   -5.4220   -8.3960    9.5740 C   0  0  0  0  0  2  0  0  0  0  0  0
   -6.6740   -8.9790   10.1640 C   0  0  1  0  0  3  0  0  0  0  0  0
   -5.2340   -6.3840   12.6180 C   0  0  0  0  0  0  0  0  0  0  0  0
   -3.9470   -6.0490   12.3950 N   0  0  0  0  0  0  0  0  0  0  0  0
   -3.4800   -4.9530   13.0080 C   0  0  0  0  0  3  0  0  0  0  0  0
   -4.1480   -4.1960   13.8800 N   0  0  0  0  0  0  0  0  0  0  0  0
   -5.4010   -4.5900   14.1270 C   0  0  0  0  0  0  0  0  0  0  0  0
   -6.0340   -5.6400   13.4790 C   0  0  0  0  0  0  0  0  0  0  0  0
   -7.4870   -5.9030   13.7800 C   0  0  2  0  0  3  0  0  0  0  0  0
   -8.4040   -4.9960   12.9450 C   0  0  0  0  0  1  0  0  0  0  0  0
   -7.7480   -5.6770   15.2700 C   0  0  0  0  0  2  0  0  0  0  0  0
   -7.2280   -4.3300   15.7250 C   0  0  0  0  0  0  0  0  0  0  0  0
   -7.7690   -3.6950   16.6250 O   0  0  0  0  0  0  0  0  0  0  0  0
   -6.0640   -3.9110   15.1460 N   0  0  0  0  0  0  0  0  0  0  0  0
   -5.6150   -3.0870   15.5220 H   0  0  0  0  0  0  0  0  0  0  0  0
   -8.0580  -11.5050    9.4580 C   0  0  1  0  0  3  0  0  0  0  0  0
   -7.4140  -12.4770    8.4830 C   0  0  0  0  0  0  0  0  0  0  0  0
   -6.2660  -12.0910    7.7690 C   0  0  0  0  0  3  0  0  0  0  0  0
   -5.6820  -12.9560    6.8410 C   0  0  0  0  0  3  0  0  0  0  0  0
   -6.2420  -14.2110    6.6140 C   0  0  0  0  0  0  0  0  0  0  0  0
   -5.5260  -15.2700    5.4650 Cl  0  0  0  0  0  0  0  0  0  0  0  0
   -7.3800  -14.6080    7.3100 C   0  0  0  0  0  3  0  0  0  0  0  0
   -7.9660  -13.7450    8.2400 C   0  0  0  0  0  3  0  0  0  0  0  0
   -9.5060  -11.9680    9.7540 C   0  0  0  0  0  2  0  0  0  0  0  0
  -10.1850  -11.1920   10.8560 N   0  0  0  0  0  4  0  0  0  0  0  0
   -9.5360  -11.2610   11.6690 H   0  0  0  0  0  0  0  0  0  0  0  0
  -11.0240  -11.7050   11.1620 H   0  0  0  0  0  0  0  0  0  0  0  0
  -12.0270   -9.5980   10.4450 C   0  0  0  0  0  1  0  0  0  0  0  0
  -10.5240   -9.7500   10.6250 C   0  0  0  0  0  3  0  0  0  0  0  0
  -10.0210   -8.9510   11.8220 C   0  0  0  0  0  1  0  0  0  0  0  0
  1  3  1  0  0  0  0
  1  2  2  0  0  0  0
  3  4  1  0  0  0  0
  4  5  1  0  0  0  0
  6  5  1  0  0  0  0
  6 10  1  0  0  0  0
  7  8  1  6  0  0  0
  7  6  1  0  0  0  0
  9  8  1  6  0  0  0
  9  7  1  0  0  0  0
  9  3  1  0  0  0  0
 10 15  1  0  0  0  0
 11 10  2  0  0  0  0
 11 12  1  0  0  0  0
 12 13  2  0  0  0  0
 13 14  1  0  0  0  0
 14 21  1  0  0  0  0
 15 16  1  0  0  0  0
 15 14  2  0  0  0  0
 16 17  1  6  0  0  0
 16 18  1  0  0  0  0
 18 19  1  0  0  0  0
 19 20  2  0  0  0  0
 21 22  1  0  0  0  0
 21 19  1  0  0  0  0
 23 31  1  1  0  0  0
 23  1  1  0  0  0  0
 24 23  1  0  0  0  0
 25 24  2  0  0  0  0
 26 25  1  0  0  0  0
 27 26  2  0  0  0  0
 27 29  1  0  0  0  0
 28 27  1  0  0  0  0
 29 30  2  0  0  0  0
 30 24  1  0  0  0  0
 31 32  1  0  0  0  0
 32 34  1  0  0  0  0
 32 33  1  0  0  0  0
 35 36  1  0  0  0  0
 36 32  1  0  0  0  0
 36 37  1  0  0  0  0
M  END
>  <minimizedAffinity>
-4.74183846

$$$$
