
 OpenBabel11232419013D

 35 39  0  0  1  0  0  0  0  0999 V2000
   24.9650   67.2630   19.0360 O   0  0  0  0  0  0  0  0  0  0  0  0
   22.0730   66.0160   21.0200 C   0  0  0  0  0  0  0  0  0  0  0  0
   21.0950   66.4710   20.1400 C   0  0  0  0  0  3  0  0  0  0  0  0
   21.3650   67.1070   18.9780 N   0  0  0  0  0  0  0  0  0  0  0  0
   22.6650   67.2860   18.6650 C   0  0  0  0  0  3  0  0  0  0  0  0
   23.7270   66.8950   19.4740 C   0  0  0  0  0  0  0  0  0  0  0  0
   23.4150   66.2330   20.6580 C   0  0  0  0  0  3  0  0  0  0  0  0
   22.6200   66.7500   26.7260 C   0  0  0  0  0  1  0  0  0  0  0  0
   21.9640   65.5750   26.1030 C   0  0  0  0  0  0  0  0  0  0  0  0
   21.4710   64.5960   26.8700 N   0  0  0  0  0  0  0  0  0  0  0  0
   20.9470   63.7250   25.9910 N   0  0  0  0  0  0  0  0  0  0  0  0
   21.1060   64.0930   24.6800 C   0  0  0  0  0  0  0  0  0  0  0  0
   20.7200   63.4760   23.4880 C   0  0  0  0  0  3  0  0  0  0  0  0
   21.0450   64.1340   22.2940 C   0  0  0  0  0  3  0  0  0  0  0  0
   21.7270   65.3610   22.2850 C   0  0  0  0  0  0  0  0  0  0  0  0
   22.0850   65.9570   23.5100 C   0  0  0  0  0  3  0  0  0  0  0  0
   21.7730   65.3090   24.7210 C   0  0  0  0  0  0  0  0  0  0  0  0
   20.4940   62.8930   26.3510 H   0  0  0  0  0  0  0  0  0  0  0  0
   26.1390   66.6310   19.5570 C   0  0  0  0  0  2  0  0  0  0  0  0
   25.8580   65.1380   19.8370 C   0  0  1  0  0  3  0  0  0  0  0  0
   25.1500   64.9890   21.1580 N   0  0  0  0  0  4  0  0  0  0  0  0
   24.2270   65.4400   21.1730 H   0  0  0  0  0  0  0  0  0  0  0  0
   25.0320   64.0000   21.4140 H   0  0  0  0  0  0  0  0  0  0  0  0
   25.7170   65.4220   21.9030 H   0  0  0  0  0  0  0  0  0  0  0  0
   25.0100   64.4770   18.7400 C   0  0  0  0  0  2  0  0  0  0  0  0
   23.9450   63.6010   19.3080 C   0  0  0  0  0  0  0  0  0  0  0  0
   22.6650   63.4620   18.8070 C   0  0  0  0  0  3  0  0  0  0  0  0
   21.9870   62.5710   19.5970 N   0  0  0  0  0  0  0  0  0  0  0  0
   22.7990   62.1300   20.6130 C   0  0  0  0  0  0  0  0  0  0  0  0
   22.5260   61.2260   21.6460 C   0  0  0  0  0  3  0  0  0  0  0  0
   23.5550   60.9400   22.5450 C   0  0  0  0  0  3  0  0  0  0  0  0
   24.8070   61.5320   22.4120 C   0  0  0  0  0  3  0  0  0  0  0  0
   25.0650   62.4350   21.3720 C   0  0  0  0  0  3  0  0  0  0  0  0
   24.0400   62.7470   20.4540 C   0  0  0  0  0  0  0  0  0  0  0  0
   21.0310   62.2680   19.4570 H   0  0  0  0  0  0  0  0  0  0  0  0
  1  6  1  0  0  0  0
  1 19  1  0  0  0  0
  2 15  1  0  0  0  0
  3  2  2  0  0  0  0
  4  3  1  0  0  0  0
  5  4  2  0  0  0  0
  5  6  1  0  0  0  0
  6  7  2  0  0  0  0
  7  2  1  0  0  0  0
  9  8  1  0  0  0  0
  9 10  2  0  0  0  0
 11 18  1  0  0  0  0
 11 10  1  0  0  0  0
 12 17  1  0  0  0  0
 12 11  1  0  0  0  0
 13 12  2  0  0  0  0
 14 13  1  0  0  0  0
 15 14  2  0  0  0  0
 15 16  1  0  0  0  0
 16 17  2  0  0  0  0
 17  9  1  0  0  0  0
 19 20  1  0  0  0  0
 20 25  1  6  0  0  0
 20 21  1  0  0  0  0
 21 22  1  0  0  0  0
 21 23  1  0  0  0  0
 21 24  1  0  0  0  0
 25 26  1  0  0  0  0
 26 34  1  0  0  0  0
 27 26  2  0  0  0  0
 27 28  1  0  0  0  0
 28 29  1  0  0  0  0
 29 30  1  0  0  0  0
 30 31  2  0  0  0  0
 32 31  1  0  0  0  0
 33 32  2  0  0  0  0
 34 29  2  0  0  0  0
 34 33  1  0  0  0  0
 35 28  1  0  0  0  0
M  END
>  <minimizedAffinity>
10.1085329

$$$$

 OpenBabel11232419013D

 35 40  0  0  1  0  0  0  0  0999 V2000
   24.1700   61.6900   19.8790 O   0  0  0  0  0  0  0  0  0  0  0  0
   21.9740   64.4500   21.0660 C   0  0  0  0  0  0  0  0  0  0  0  0
   21.4320   64.7430   19.8180 C   0  0  0  0  0  3  0  0  0  0  0  0
   21.7410   64.0700   18.6870 N   0  0  0  0  0  0  0  0  0  0  0  0
   22.6150   63.0480   18.8000 C   0  0  0  0  0  3  0  0  0  0  0  0
   23.2360   62.6770   19.9880 C   0  0  0  0  0  0  0  0  0  0  0  0
   22.8880   63.3830   21.1370 C   0  0  0  0  0  0  0  0  0  0  0  0
   21.8370   63.9880   26.8250 C   0  0  0  0  0  1  0  0  0  0  0  0
   21.4150   65.2010   26.0830 C   0  0  0  0  0  0  0  0  0  0  0  0
   20.9520   66.2670   26.7460 N   0  0  0  0  0  0  0  0  0  0  0  0
   20.6870   67.1620   25.7790 N   0  0  0  0  0  0  0  0  0  0  0  0
   20.9380   66.7050   24.5120 C   0  0  0  0  0  0  0  0  0  0  0  0
   20.7930   67.3080   23.2610 C   0  0  0  0  0  3  0  0  0  0  0  0
   21.1490   66.5450   22.1400 C   0  0  0  0  0  3  0  0  0  0  0  0
   21.6310   65.2320   22.2580 C   0  0  0  0  0  0  0  0  0  0  0  0
   21.7760   64.6660   23.5400 C   0  0  0  0  0  3  0  0  0  0  0  0
   21.4190   65.4140   24.6790 C   0  0  0  0  0  0  0  0  0  0  0  0
   20.3330   68.0720   26.0520 H   0  0  0  0  0  0  0  0  0  0  0  0
   25.5620   62.0120   19.7800 C   0  0  0  0  0  2  0  0  0  0  0  0
   25.9160   63.1420   20.7700 C   0  0  1  0  0  3  0  0  0  0  0  0
   26.5520   64.2900   20.0320 N   0  0  0  0  0  4  0  0  0  0  0  0
   25.9230   64.7260   19.3460 H   0  0  0  0  0  0  0  0  0  0  0  0
   26.8830   65.0190   20.6770 H   0  0  0  0  0  0  0  0  0  0  0  0
   27.3810   63.9510   19.5180 H   0  0  0  0  0  0  0  0  0  0  0  0
   24.6930   63.6630   21.5410 C   0  0  2  0  0  3  0  0  0  0  0  0
   24.9550   63.7600   23.0060 C   0  0  0  0  0  0  0  0  0  0  0  0
   25.3440   62.7180   23.8260 C   0  0  0  0  0  3  0  0  0  0  0  0
   25.4860   63.2010   25.1000 N   0  0  0  0  0  0  0  0  0  0  0  0
   25.1860   64.5410   25.1310 C   0  0  0  0  0  0  0  0  0  0  0  0
   25.1930   65.4320   26.2110 C   0  0  0  0  0  3  0  0  0  0  0  0
   24.8590   66.7630   25.9530 C   0  0  0  0  0  3  0  0  0  0  0  0
   24.5370   67.1840   24.6660 C   0  0  0  0  0  3  0  0  0  0  0  0
   24.5360   66.2800   23.5960 C   0  0  0  0  0  3  0  0  0  0  0  0
   24.8630   64.9270   23.8310 C   0  0  0  0  0  0  0  0  0  0  0  0
   25.7760   62.6610   25.9060 H   0  0  0  0  0  0  0  0  0  0  0  0
  1  6  1  0  0  0  0
  2  7  1  0  0  0  0
  2 15  1  0  0  0  0
  3  2  2  0  0  0  0
  4  5  2  0  0  0  0
  4  3  1  0  0  0  0
  5  6  1  0  0  0  0
  6  7  2  0  0  0  0
  7 25  1  0  0  0  0
  9 10  2  0  0  0  0
  9  8  1  0  0  0  0
 11 18  1  0  0  0  0
 11 10  1  0  0  0  0
 12 17  1  0  0  0  0
 12 11  1  0  0  0  0
 13 12  2  0  0  0  0
 14 15  2  0  0  0  0
 14 13  1  0  0  0  0
 15 16  1  0  0  0  0
 16 17  2  0  0  0  0
 17  9  1  0  0  0  0
 19  1  1  0  0  0  0
 19 20  1  0  0  0  0
 20 21  1  6  0  0  0
 20 25  1  0  0  0  0
 21 23  1  0  0  0  0
 22 21  1  0  0  0  0
 24 21  1  0  0  0  0
 25 26  1  1  0  0  0
 26 27  2  0  0  0  0
 26 34  1  0  0  0  0
 27 28  1  0  0  0  0
 28 29  1  0  0  0  0
 28 35  1  0  0  0  0
 29 30  1  0  0  0  0
 31 30  2  0  0  0  0
 32 31  1  0  0  0  0
 33 34  1  0  0  0  0
 33 32  2  0  0  0  0
 34 29  2  0  0  0  0
M  END
>  <minimizedAffinity>
11.1028976

$$$$
