
 OpenBabel11232420093D

 39 45  0  0  1  0  0  0  0  0999 V2000
   -5.2870   -8.9020   12.4050 C   0  0  0  0  0  0  0  0  0  0  0  0
   -4.5660   -9.5610   13.3790 N   0  0  0  0  0  0  0  0  0  0  0  0
   -3.4890   -8.8410   13.5920 C   0  0  0  0  0  0  0  0  0  0  0  0
   -3.4940   -7.7360   12.7830 N   0  0  0  0  0  0  0  0  0  0  0  0
   -4.6420   -7.7310   12.0230 C   0  0  0  0  0  0  0  0  0  0  0  0
   -2.4770   -6.7130   12.9090 C   0  0  0  0  0  2  0  0  0  0  0  0
   -1.2080   -7.2530   13.3240 O   0  0  0  0  0  0  0  0  0  0  0  0
   -1.2580   -8.2140   14.3060 C   0  0  0  0  0  0  0  0  0  0  0  0
   -0.1020   -8.3650   15.0740 C   0  0  0  0  0  3  0  0  0  0  0  0
   -0.0570   -9.3340   16.0720 C   0  0  0  0  0  3  0  0  0  0  0  0
   -1.1640  -10.1550   16.2910 C   0  0  0  0  0  3  0  0  0  0  0  0
   -2.3190  -10.0220   15.5080 C   0  0  0  0  0  0  0  0  0  0  0  0
   -3.6320  -11.0840   15.8730 Cl  0  0  0  0  0  0  0  0  0  0  0  0
   -2.3720   -9.0510   14.4970 C   0  0  0  0  0  0  0  0  0  0  0  0
   -5.0130   -6.6430   11.1290 C   0  0  0  0  0  0  0  0  0  0  0  0
   -5.3890   -5.3970   11.6450 C   0  0  0  0  0  3  0  0  0  0  0  0
   -5.7520   -4.3610   10.7840 C   0  0  0  0  0  3  0  0  0  0  0  0
   -5.7400   -4.5630    9.4050 C   0  0  0  0  0  3  0  0  0  0  0  0
   -5.3630   -5.8000    8.8840 C   0  0  0  0  0  3  0  0  0  0  0  0
   -4.9980   -6.8380    9.7430 C   0  0  0  0  0  3  0  0  0  0  0  0
   -9.0380  -10.4280   10.8950 C   0  0  0  0  0  0  0  0  0  0  0  0
   -7.8300  -10.5350   10.1780 C   0  0  0  0  0  3  0  0  0  0  0  0
   -6.6210  -10.0420   10.6850 C   0  0  0  0  0  3  0  0  0  0  0  0
   -6.5620   -9.4280   11.9400 C   0  0  0  0  0  0  0  0  0  0  0  0
   -7.7460   -9.3050   12.6670 C   0  0  0  0  0  3  0  0  0  0  0  0
   -8.9540   -9.8010   12.1560 C   0  0  0  0  0  3  0  0  0  0  0  0
  -10.3950  -10.9960   10.3280 C   0  0  2  0  0  0  0  0  0  0  0  0
  -10.6130  -11.0780    8.7900 C   0  0  0  0  0  2  0  0  0  0  0  0
  -12.1440  -10.8600    9.0620 C   0  0  1  0  0  0  0  0  0  0  0  0
  -11.6730  -10.1040   10.3560 C   0  0  0  0  0  2  0  0  0  0  0  0
  -10.6320  -12.3130   10.9730 N   0  0  0  0  0  4  0  0  0  0  0  0
  -10.7170  -12.2360   11.9920 H   0  0  0  0  0  0  0  0  0  0  0  0
   -9.8780  -12.9790   10.7710 H   0  0  0  0  0  0  0  0  0  0  0  0
  -11.5140  -12.7250   10.6110 H   0  0  0  0  0  0  0  0  0  0  0  0
  -12.9020  -10.1050    7.9880 C   0  0  0  0  0  3  0  0  0  0  0  0
  -12.8190  -10.4570    6.5270 C   0  0  0  0  0  2  0  0  0  0  0  0
  -14.1260  -10.5850    7.2610 C   0  0  0  0  0  2  0  0  0  0  0  0
  -12.8030  -12.1150    9.4180 O   0  0  0  0  0  0  0  0  0  0  0  0
  -13.7450  -11.9710    9.1890 H   0  0  0  0  0  0  0  0  0  0  0  0
  1  2  1  0  0  0  0
  2  3  2  0  0  0  0
  3 14  1  0  0  0  0
  4  6  1  0  0  0  0
  4  3  1  0  0  0  0
  5  1  2  0  0  0  0
  5  4  1  0  0  0  0
  6  7  1  0  0  0  0
  7  8  1  0  0  0  0
  8 14  2  0  0  0  0
  8  9  1  0  0  0  0
  9 10  2  0  0  0  0
 10 11  1  0  0  0  0
 12 13  1  0  0  0  0
 12 11  2  0  0  0  0
 14 12  1  0  0  0  0
 15 16  1  0  0  0  0
 15  5  1  0  0  0  0
 17 16  2  0  0  0  0
 18 17  1  0  0  0  0
 19 18  2  0  0  0  0
 19 20  1  0  0  0  0
 20 15  2  0  0  0  0
 21 26  1  0  0  0  0
 22 23  1  0  0  0  0
 22 21  2  0  0  0  0
 23 24  2  0  0  0  0
 24  1  1  0  0  0  0
 24 25  1  0  0  0  0
 26 25  2  0  0  0  0
 27 30  1  0  0  0  0
 27 21  1  0  0  0  0
 27 31  1  1  0  0  0
 28 29  1  0  0  0  0
 28 27  1  0  0  0  0
 29 38  1  1  0  0  0
 29 30  1  0  0  0  0
 31 32  1  0  0  0  0
 33 31  1  0  0  0  0
 34 31  1  0  0  0  0
 35 29  1  0  0  0  0
 36 37  1  0  0  0  0
 36 35  1  0  0  0  0
 37 35  1  0  0  0  0
 39 38  1  0  0  0  0
M  END
>  <minimizedAffinity>
-5.64998484

$$$$
