
 OpenBabel11232420093D

 39 45  0  0  1  0  0  0  0  0999 V2000
   -6.7990  -10.2810   10.0460 C   0  0  0  0  0  0  0  0  0  0  0  0
   -6.5040   -9.0320    9.5430 N   0  0  0  0  0  0  0  0  0  0  0  0
   -6.5040   -8.2110   10.5680 C   0  0  0  0  0  0  0  0  0  0  0  0
   -6.7910   -8.8970   11.7190 N   0  0  0  0  0  0  0  0  0  0  0  0
   -6.9650  -10.2300   11.4250 C   0  0  0  0  0  0  0  0  0  0  0  0
   -6.7320   -8.2450   13.0110 C   0  0  0  0  0  2  0  0  0  0  0  0
   -7.0880   -6.8510   12.9360 O   0  0  0  0  0  0  0  0  0  0  0  0
   -6.5820   -6.1600   11.8610 C   0  0  0  0  0  0  0  0  0  0  0  0
   -6.4560   -4.7800   12.0240 C   0  0  0  0  0  3  0  0  0  0  0  0
   -5.9780   -4.0000   10.9750 C   0  0  0  0  0  3  0  0  0  0  0  0
   -5.6370   -4.6030    9.7630 C   0  0  0  0  0  3  0  0  0  0  0  0
   -5.7830   -5.9860    9.5870 C   0  0  0  0  0  0  0  0  0  0  0  0
   -5.3220   -6.6270    8.0490 Cl  0  0  0  0  0  0  0  0  0  0  0  0
   -6.2680   -6.7790   10.6370 C   0  0  0  0  0  0  0  0  0  0  0  0
   -7.1820  -11.2570   12.4340 C   0  0  0  0  0  0  0  0  0  0  0  0
   -8.4760  -11.5500   12.8820 C   0  0  0  0  0  3  0  0  0  0  0  0
   -8.6760  -12.5290   13.8560 C   0  0  0  0  0  3  0  0  0  0  0  0
   -7.5880  -13.2200   14.3870 C   0  0  0  0  0  3  0  0  0  0  0  0
   -6.2980  -12.9340   13.9430 C   0  0  0  0  0  3  0  0  0  0  0  0
   -6.0930  -11.9570   12.9680 C   0  0  0  0  0  3  0  0  0  0  0  0
   -7.0550  -13.7910    7.5350 C   0  0  0  0  0  0  0  0  0  0  0  0
   -8.0930  -13.4000    8.4060 C   0  0  0  0  0  3  0  0  0  0  0  0
   -7.9970  -12.2550    9.2060 C   0  0  0  0  0  3  0  0  0  0  0  0
   -6.8620  -11.4400    9.1670 C   0  0  0  0  0  0  0  0  0  0  0  0
   -5.8180  -11.8090    8.3180 C   0  0  0  0  0  3  0  0  0  0  0  0
   -5.9190  -12.9550    7.5170 C   0  0  0  0  0  3  0  0  0  0  0  0
   -7.1710  -15.0710    6.6250 C   0  0  2  0  0  0  0  0  0  0  0  0
   -6.2370  -16.2880    6.8840 C   0  0  0  0  0  2  0  0  0  0  0  0
   -6.3150  -16.5920    5.3460 C   0  0  1  0  0  0  0  0  0  0  0  0
   -6.5690  -15.0500    5.1870 C   0  0  0  0  0  2  0  0  0  0  0  0
   -8.5980  -15.4850    6.6150 N   0  0  0  0  0  4  0  0  0  0  0  0
   -9.2090  -14.7590    6.2270 H   0  0  0  0  0  0  0  0  0  0  0  0
   -8.9370  -15.7100    7.5570 H   0  0  0  0  0  0  0  0  0  0  0  0
   -8.7100  -16.3390    6.0330 H   0  0  0  0  0  0  0  0  0  0  0  0
   -5.0740  -17.2130    4.7350 C   0  0  0  0  0  3  0  0  0  0  0  0
   -3.7270  -16.5400    4.7560 C   0  0  0  0  0  2  0  0  0  0  0  0
   -3.9330  -17.8400    5.4850 C   0  0  0  0  0  2  0  0  0  0  0  0
   -7.5230  -17.3430    5.0140 O   0  0  0  0  0  0  0  0  0  0  0  0
   -7.3040  -17.8030    4.1760 H   0  0  0  0  0  0  0  0  0  0  0  0
  1  5  2  0  0  0  0
  2  1  1  0  0  0  0
  2  3  2  0  0  0  0
  3 14  1  0  0  0  0
  3  4  1  0  0  0  0
  4  6  1  0  0  0  0
  5  4  1  0  0  0  0
  5 15  1  0  0  0  0
  7  6  1  0  0  0  0
  8  9  1  0  0  0  0
  8  7  1  0  0  0  0
 10  9  2  0  0  0  0
 11 10  1  0  0  0  0
 12 11  2  0  0  0  0
 12 14  1  0  0  0  0
 13 12  1  0  0  0  0
 14  8  2  0  0  0  0
 15 16  2  0  0  0  0
 15 20  1  0  0  0  0
 16 17  1  0  0  0  0
 17 18  2  0  0  0  0
 19 18  1  0  0  0  0
 20 19  2  0  0  0  0
 21 22  1  0  0  0  0
 22 23  2  0  0  0  0
 24 23  1  0  0  0  0
 24  1  1  0  0  0  0
 25 24  2  0  0  0  0
 26 21  2  0  0  0  0
 26 25  1  0  0  0  0
 27 31  1  6  0  0  0
 27 28  1  0  0  0  0
 27 21  1  0  0  0  0
 29 38  1  6  0  0  0
 29 28  1  0  0  0  0
 30 29  1  0  0  0  0
 30 27  1  0  0  0  0
 31 33  1  0  0  0  0
 32 31  1  0  0  0  0
 34 31  1  0  0  0  0
 35 36  1  0  0  0  0
 35 29  1  0  0  0  0
 35 37  1  0  0  0  0
 36 37  1  0  0  0  0
 39 38  1  0  0  0  0
M  END
>  <minimizedAffinity>
-5.90168047

$$$$
