
 OpenBabel11232420093D

 39 45  0  0  1  0  0  0  0  0999 V2000
   -6.7330  -10.2500    9.8510 C   0  0  0  0  0  0  0  0  0  0  0  0
   -6.4260   -8.9920    9.3760 N   0  0  0  0  0  0  0  0  0  0  0  0
   -6.5220   -8.1770   10.4020 C   0  0  0  0  0  0  0  0  0  0  0  0
   -6.8830   -8.8730   11.5240 N   0  0  0  0  0  0  0  0  0  0  0  0
   -7.0060  -10.2090   11.2130 C   0  0  0  0  0  0  0  0  0  0  0  0
   -6.9380   -8.2270   12.8190 C   0  0  0  0  0  2  0  0  0  0  0  0
   -7.3160   -6.8410   12.7220 O   0  0  0  0  0  0  0  0  0  0  0  0
   -6.7430   -6.1340   11.6910 C   0  0  0  0  0  0  0  0  0  0  0  0
   -6.6590   -4.7520   11.8680 C   0  0  0  0  0  3  0  0  0  0  0  0
   -6.1180   -3.9580   10.8620 C   0  0  0  0  0  3  0  0  0  0  0  0
   -5.6720   -4.5470    9.6790 C   0  0  0  0  0  3  0  0  0  0  0  0
   -5.7740   -5.9320    9.4870 C   0  0  0  0  0  0  0  0  0  0  0  0
   -5.1830   -6.5550    7.9870 Cl  0  0  0  0  0  0  0  0  0  0  0  0
   -6.3230   -6.7400   10.4930 C   0  0  0  0  0  0  0  0  0  0  0  0
   -7.2780  -11.2450   12.1990 C   0  0  0  0  0  0  0  0  0  0  0  0
   -8.5960  -11.5570   12.5550 C   0  0  0  0  0  3  0  0  0  0  0  0
   -8.8500  -12.5450   13.5070 C   0  0  0  0  0  3  0  0  0  0  0  0
   -7.7930  -13.2260   14.1070 C   0  0  0  0  0  3  0  0  0  0  0  0
   -6.4780  -12.9210   13.7550 C   0  0  0  0  0  3  0  0  0  0  0  0
   -6.2200  -11.9350   12.8020 C   0  0  0  0  0  3  0  0  0  0  0  0
   -6.7090  -13.7550    7.3210 C   0  0  0  0  0  0  0  0  0  0  0  0
   -7.7750  -13.4520    8.1920 C   0  0  0  0  0  3  0  0  0  0  0  0
   -7.7710  -12.3070    8.9990 C   0  0  0  0  0  3  0  0  0  0  0  0
   -6.7040  -11.4050    8.9660 C   0  0  0  0  0  0  0  0  0  0  0  0
   -5.6340  -11.6850    8.1160 C   0  0  0  0  0  3  0  0  0  0  0  0
   -5.6420  -12.8320    7.3080 C   0  0  0  0  0  3  0  0  0  0  0  0
   -6.7230  -15.0360    6.4040 C   0  0  2  0  0  0  0  0  0  0  0  0
   -7.9840  -15.3610    5.5530 C   0  0  0  0  0  2  0  0  0  0  0  0
   -7.6150  -16.8790    5.7070 C   0  0  1  0  0  0  0  0  0  0  0  0
   -6.9250  -16.4410    7.0480 C   0  0  0  0  0  2  0  0  0  0  0  0
   -5.5030  -14.9920    5.5570 N   0  0  0  0  0  4  0  0  0  0  0  0
   -4.6430  -15.0050    6.1150 H   0  0  0  0  0  0  0  0  0  0  0  0
   -5.4790  -14.1530    4.9650 H   0  0  0  0  0  0  0  0  0  0  0  0
   -5.4860  -15.8170    4.9260 H   0  0  0  0  0  0  0  0  0  0  0  0
   -8.7880  -17.8390    5.7480 C   0  0  0  0  0  3  0  0  0  0  0  0
  -10.1360  -17.4620    6.3010 C   0  0  0  0  0  2  0  0  0  0  0  0
   -9.9890  -17.8140    4.8450 C   0  0  0  0  0  2  0  0  0  0  0  0
   -6.6110  -17.2830    4.7250 O   0  0  0  0  0  0  0  0  0  0  0  0
   -6.7330  -18.2520    4.6340 H   0  0  0  0  0  0  0  0  0  0  0  0
  1  5  2  0  0  0  0
  2  1  1  0  0  0  0
  2  3  2  0  0  0  0
  3 14  1  0  0  0  0
  3  4  1  0  0  0  0
  4  6  1  0  0  0  0
  5  4  1  0  0  0  0
  5 15  1  0  0  0  0
  7  6  1  0  0  0  0
  8  9  1  0  0  0  0
  8  7  1  0  0  0  0
 10  9  2  0  0  0  0
 11 10  1  0  0  0  0
 12 11  2  0  0  0  0
 12 14  1  0  0  0  0
 13 12  1  0  0  0  0
 14  8  2  0  0  0  0
 15 16  2  0  0  0  0
 15 20  1  0  0  0  0
 16 17  1  0  0  0  0
 17 18  2  0  0  0  0
 19 18  1  0  0  0  0
 20 19  2  0  0  0  0
 21 22  1  0  0  0  0
 22 23  2  0  0  0  0
 24 23  1  0  0  0  0
 24  1  1  0  0  0  0
 25 24  2  0  0  0  0
 26 21  2  0  0  0  0
 26 25  1  0  0  0  0
 27 31  1  6  0  0  0
 27 30  1  0  0  0  0
 27 21  1  0  0  0  0
 28 29  1  0  0  0  0
 28 27  1  0  0  0  0
 29 38  1  6  0  0  0
 29 35  1  0  0  0  0
 29 30  1  0  0  0  0
 31 32  1  0  0  0  0
 33 31  1  0  0  0  0
 34 31  1  0  0  0  0
 35 36  1  0  0  0  0
 37 35  1  0  0  0  0
 37 36  1  0  0  0  0
 39 38  1  0  0  0  0
M  END
>  <minimizedAffinity>
-5.87222195

$$$$
