
 OpenBabel11232420093D

 39 45  0  0  1  0  0  0  0  0999 V2000
  -10.3430  -10.5020    8.8330 C   0  0  0  0  0  0  0  0  0  0  0  0
  -10.2380  -11.8740    8.9280 N   0  0  0  0  0  0  0  0  0  0  0  0
  -11.3270  -12.3660    8.3830 C   0  0  0  0  0  0  0  0  0  0  0  0
  -12.1310  -11.3500    7.9390 N   0  0  0  0  0  0  0  0  0  0  0  0
  -11.5220  -10.1420    8.1930 C   0  0  0  0  0  0  0  0  0  0  0  0
  -13.3380  -11.6260    7.1890 C   0  0  0  0  0  2  0  0  0  0  0  0
  -13.9550  -12.8660    7.5840 O   0  0  0  0  0  0  0  0  0  0  0  0
  -13.0980  -13.9190    7.8040 C   0  0  0  0  0  0  0  0  0  0  0  0
  -13.6460  -15.1950    7.6660 C   0  0  0  0  0  3  0  0  0  0  0  0
  -12.8560  -16.3160    7.8990 C   0  0  0  0  0  3  0  0  0  0  0  0
  -11.5220  -16.1570    8.2770 C   0  0  0  0  0  3  0  0  0  0  0  0
  -10.9720  -14.8770    8.4380 C   0  0  0  0  0  0  0  0  0  0  0  0
   -9.3090  -14.7980    8.9000 Cl  0  0  0  0  0  0  0  0  0  0  0  0
  -11.7630  -13.7410    8.2110 C   0  0  0  0  0  0  0  0  0  0  0  0
  -12.0600   -8.8600    7.7570 C   0  0  0  0  0  0  0  0  0  0  0  0
  -11.5460   -8.2240    6.6210 C   0  0  0  0  0  3  0  0  0  0  0  0
  -12.0590   -6.9930    6.2130 C   0  0  0  0  0  3  0  0  0  0  0  0
  -13.0890   -6.3910    6.9350 C   0  0  0  0  0  3  0  0  0  0  0  0
  -13.6070   -7.0210    8.0660 C   0  0  0  0  0  3  0  0  0  0  0  0
  -13.0970   -8.2540    8.4760 C   0  0  0  0  0  3  0  0  0  0  0  0
   -7.2790   -7.8920   10.4120 C   0  0  0  0  0  0  0  0  0  0  0  0
   -8.2350   -8.5270   11.2300 C   0  0  0  0  0  3  0  0  0  0  0  0
   -9.2160   -9.3760   10.7040 C   0  0  0  0  0  3  0  0  0  0  0  0
   -9.2820   -9.6400    9.3330 C   0  0  0  0  0  0  0  0  0  0  0  0
   -8.3500   -9.0190    8.5000 C   0  0  0  0  0  3  0  0  0  0  0  0
   -7.3690   -8.1710    9.0310 C   0  0  0  0  0  3  0  0  0  0  0  0
   -6.1680   -6.9480   11.0080 C   0  0  2  0  0  0  0  0  0  0  0  0
   -5.8160   -7.0320   12.5210 C   0  0  0  0  0  2  0  0  0  0  0  0
   -5.4600   -5.5040   12.4550 C   0  0  1  0  0  0  0  0  0  0  0  0
   -6.4960   -5.4470   11.2750 C   0  0  0  0  0  2  0  0  0  0  0  0
   -4.9520   -7.1020   10.1670 N   0  0  0  0  0  4  0  0  0  0  0  0
   -5.1180   -6.8280    9.1930 H   0  0  0  0  0  0  0  0  0  0  0  0
   -4.6090   -8.0690   10.1660 H   0  0  0  0  0  0  0  0  0  0  0  0
   -4.1910   -6.5020   10.5410 H   0  0  0  0  0  0  0  0  0  0  0  0
   -5.7250   -4.7120   13.7210 C   0  0  0  0  0  3  0  0  0  0  0  0
   -5.2800   -5.1730   15.0830 C   0  0  0  0  0  2  0  0  0  0  0  0
   -4.7180   -3.9080   14.4930 C   0  0  0  0  0  2  0  0  0  0  0  0
   -4.1040   -5.2960   11.9530 O   0  0  0  0  0  0  0  0  0  0  0  0
   -3.8450   -4.4180   12.3030 H   0  0  0  0  0  0  0  0  0  0  0  0
  1  2  1  0  0  0  0
  1 24  1  0  0  0  0
  3  2  2  0  0  0  0
  4  5  1  0  0  0  0
  4  3  1  0  0  0  0
  5  1  2  0  0  0  0
  6  7  1  0  0  0  0
  6  4  1  0  0  0  0
  7  8  1  0  0  0  0
  8 14  1  0  0  0  0
  9  8  2  0  0  0  0
  9 10  1  0  0  0  0
 10 11  2  0  0  0  0
 11 12  1  0  0  0  0
 12 13  1  0  0  0  0
 14  3  1  0  0  0  0
 14 12  2  0  0  0  0
 15  5  1  0  0  0  0
 15 20  1  0  0  0  0
 16 15  2  0  0  0  0
 17 16  1  0  0  0  0
 17 18  2  0  0  0  0
 18 19  1  0  0  0  0
 19 20  2  0  0  0  0
 21 27  1  0  0  0  0
 21 22  1  0  0  0  0
 23 22  2  0  0  0  0
 24 23  1  0  0  0  0
 25 26  1  0  0  0  0
 25 24  2  0  0  0  0
 26 21  2  0  0  0  0
 27 31  1  6  0  0  0
 27 30  1  0  0  0  0
 27 28  1  0  0  0  0
 29 38  1  6  0  0  0
 29 28  1  0  0  0  0
 29 35  1  0  0  0  0
 30 29  1  0  0  0  0
 31 34  1  0  0  0  0
 32 31  1  0  0  0  0
 33 31  1  0  0  0  0
 35 37  1  0  0  0  0
 35 36  1  0  0  0  0
 37 36  1  0  0  0  0
 38 39  1  0  0  0  0
M  END
>  <minimizedAffinity>
-5.19982672

$$$$
