
 OpenBabel11232420093D

 39 45  0  0  1  0  0  0  0  0999 V2000
   -7.1640   -9.5420   11.5100 C   0  0  0  0  0  0  0  0  0  0  0  0
   -6.9210  -10.5970   12.3640 N   0  0  0  0  0  0  0  0  0  0  0  0
   -5.8050  -10.3120   12.9950 C   0  0  0  0  0  0  0  0  0  0  0  0
   -5.3200   -9.1030   12.5720 N   0  0  0  0  0  0  0  0  0  0  0  0
   -6.1780   -8.5710   11.6350 C   0  0  0  0  0  0  0  0  0  0  0  0
   -4.1630   -8.5010   13.2000 C   0  0  0  0  0  2  0  0  0  0  0  0
   -3.2270   -9.4850   13.6770 O   0  0  0  0  0  0  0  0  0  0  0  0
   -3.7750  -10.5850   14.2950 C   0  0  0  0  0  0  0  0  0  0  0  0
   -2.9480  -11.2570   15.1960 C   0  0  0  0  0  3  0  0  0  0  0  0
   -3.4140  -12.3970   15.8440 C   0  0  0  0  0  3  0  0  0  0  0  0
   -4.7020  -12.8660   15.5810 C   0  0  0  0  0  3  0  0  0  0  0  0
   -5.5280  -12.2060   14.6600 C   0  0  0  0  0  0  0  0  0  0  0  0
   -7.1070  -12.8680   14.4180 Cl  0  0  0  0  0  0  0  0  0  0  0  0
   -5.0650  -11.0600   13.9980 C   0  0  0  0  0  0  0  0  0  0  0  0
   -6.0140   -7.2450   11.0550 C   0  0  0  0  0  0  0  0  0  0  0  0
   -6.4660   -6.1100   11.7390 C   0  0  0  0  0  3  0  0  0  0  0  0
   -6.3150   -4.8440   11.1730 C   0  0  0  0  0  3  0  0  0  0  0  0
   -5.7110   -4.7030    9.9250 C   0  0  0  0  0  3  0  0  0  0  0  0
   -5.2560   -5.8290    9.2400 C   0  0  0  0  0  3  0  0  0  0  0  0
   -5.4050   -7.0970    9.8030 C   0  0  0  0  0  3  0  0  0  0  0  0
  -10.6130   -9.4190    8.9090 C   0  0  0  0  0  0  0  0  0  0  0  0
   -9.2920   -9.4350    8.4200 C   0  0  0  0  0  3  0  0  0  0  0  0
   -8.1850   -9.4830    9.2760 C   0  0  0  0  0  3  0  0  0  0  0  0
   -8.3480   -9.5280   10.6640 C   0  0  0  0  0  0  0  0  0  0  0  0
   -9.6470   -9.5070   11.1730 C   0  0  0  0  0  3  0  0  0  0  0  0
  -10.7520   -9.4600   10.3120 C   0  0  0  0  0  3  0  0  0  0  0  0
  -11.8570   -9.3780    7.9420 C   0  0  2  0  0  0  0  0  0  0  0  0
  -11.8660   -8.3960    6.7370 C   0  0  0  0  0  2  0  0  0  0  0  0
  -13.4270   -8.3260    6.8880 C   0  0  1  0  0  0  0  0  0  0  0  0
  -13.1640   -8.6620    8.4000 C   0  0  0  0  0  2  0  0  0  0  0  0
  -12.1240  -10.7720    7.4990 N   0  0  0  0  0  4  0  0  0  0  0  0
  -12.3470  -11.3920    8.2840 H   0  0  0  0  0  0  0  0  0  0  0  0
  -11.3220  -11.1730    6.9990 H   0  0  0  0  0  0  0  0  0  0  0  0
  -12.9320  -10.7810    6.8460 H   0  0  0  0  0  0  0  0  0  0  0  0
  -14.0650   -7.0030    6.5150 C   0  0  0  0  0  3  0  0  0  0  0  0
  -13.6850   -6.2290    5.2810 C   0  0  0  0  0  2  0  0  0  0  0  0
  -15.0780   -6.7800    5.4280 C   0  0  0  0  0  2  0  0  0  0  0  0
  -14.0740   -9.4540    6.2220 O   0  0  0  0  0  0  0  0  0  0  0  0
  -14.9830   -9.1380    6.0320 H   0  0  0  0  0  0  0  0  0  0  0  0
  1  5  2  0  0  0  0
  1  2  1  0  0  0  0
  2  3  2  0  0  0  0
  3 14  1  0  0  0  0
  4  3  1  0  0  0  0
  4  6  1  0  0  0  0
  5  4  1  0  0  0  0
  6  7  1  0  0  0  0
  7  8  1  0  0  0  0
  8  9  1  0  0  0  0
  9 10  2  0  0  0  0
 11 10  1  0  0  0  0
 12 11  2  0  0  0  0
 13 12  1  0  0  0  0
 14  8  2  0  0  0  0
 14 12  1  0  0  0  0
 15  5  1  0  0  0  0
 15 16  1  0  0  0  0
 17 16  2  0  0  0  0
 18 17  1  0  0  0  0
 19 20  1  0  0  0  0
 19 18  2  0  0  0  0
 20 15  2  0  0  0  0
 21 26  1  0  0  0  0
 22 21  2  0  0  0  0
 22 23  1  0  0  0  0
 23 24  2  0  0  0  0
 24 25  1  0  0  0  0
 24  1  1  0  0  0  0
 26 25  2  0  0  0  0
 27 31  1  6  0  0  0
 27 30  1  0  0  0  0
 27 21  1  0  0  0  0
 28 29  1  0  0  0  0
 28 27  1  0  0  0  0
 29 38  1  6  0  0  0
 29 30  1  0  0  0  0
 31 32  1  0  0  0  0
 33 31  1  0  0  0  0
 34 31  1  0  0  0  0
 35 29  1  0  0  0  0
 36 37  1  0  0  0  0
 36 35  1  0  0  0  0
 37 35  1  0  0  0  0
 39 38  1  0  0  0  0
M  END
>  <minimizedAffinity>
-5.76694727

$$$$
