
 OpenBabel11232420093D

 39 45  0  0  1  0  0  0  0  0999 V2000
   -7.6670  -12.3280    8.7180 C   0  0  0  0  0  0  0  0  0  0  0  0
   -7.2150  -12.9790    7.5900 N   0  0  0  0  0  0  0  0  0  0  0  0
   -7.6720  -14.2080    7.6650 C   0  0  0  0  0  0  0  0  0  0  0  0
   -8.4050  -14.3680    8.8110 N   0  0  0  0  0  0  0  0  0  0  0  0
   -8.4410  -13.1770    9.4990 C   0  0  0  0  0  0  0  0  0  0  0  0
   -9.1220  -15.5990    9.0730 C   0  0  0  0  0  2  0  0  0  0  0  0
   -8.4530  -16.7490    8.5210 O   0  0  0  0  0  0  0  0  0  0  0  0
   -7.9220  -16.5870    7.2630 C   0  0  0  0  0  0  0  0  0  0  0  0
   -7.7540  -17.7530    6.5150 C   0  0  0  0  0  3  0  0  0  0  0  0
   -7.1970  -17.6840    5.2420 C   0  0  0  0  0  3  0  0  0  0  0  0
   -6.8020  -16.4490    4.7250 C   0  0  0  0  0  3  0  0  0  0  0  0
   -6.9490  -15.2780    5.4810 C   0  0  0  0  0  0  0  0  0  0  0  0
   -6.4340  -13.8040    4.7390 Cl  0  0  0  0  0  0  0  0  0  0  0  0
   -7.5050  -15.3390    6.7670 C   0  0  0  0  0  0  0  0  0  0  0  0
   -9.2220  -12.9690   10.7110 C   0  0  0  0  0  0  0  0  0  0  0  0
  -10.5270  -12.4680   10.6370 C   0  0  0  0  0  3  0  0  0  0  0  0
  -11.2680  -12.2630   11.8020 C   0  0  0  0  0  3  0  0  0  0  0  0
  -10.7110  -12.5590   13.0450 C   0  0  0  0  0  3  0  0  0  0  0  0
   -9.4130  -13.0620   13.1250 C   0  0  0  0  0  3  0  0  0  0  0  0
   -8.6700  -13.2690   11.9620 C   0  0  0  0  0  3  0  0  0  0  0  0
   -6.6490   -8.1980    9.4870 C   0  0  0  0  0  0  0  0  0  0  0  0
   -5.7220   -9.2490    9.6290 C   0  0  0  0  0  3  0  0  0  0  0  0
   -6.0660  -10.5820    9.3680 C   0  0  0  0  0  3  0  0  0  0  0  0
   -7.3520  -10.9240    8.9410 C   0  0  0  0  0  0  0  0  0  0  0  0
   -8.2910   -9.9020    8.7990 C   0  0  0  0  0  3  0  0  0  0  0  0
   -7.9420   -8.5690    9.0600 C   0  0  0  0  0  3  0  0  0  0  0  0
   -6.2560   -6.6980    9.7680 C   0  0  2  0  0  0  0  0  0  0  0  0
   -4.8680   -6.3680   10.3880 C   0  0  0  0  0  2  0  0  0  0  0  0
   -5.5400   -5.1190   11.0630 C   0  0  1  0  0  0  0  0  0  0  0  0
   -6.8640   -5.9620   11.0010 C   0  0  0  0  0  2  0  0  0  0  0  0
   -6.4760   -5.9350    8.5120 N   0  0  0  0  0  4  0  0  0  0  0  0
   -7.4550   -5.9600    8.2100 H   0  0  0  0  0  0  0  0  0  0  0  0
   -5.9010   -6.2960    7.7420 H   0  0  0  0  0  0  0  0  0  0  0  0
   -6.2120   -4.9410    8.6570 H   0  0  0  0  0  0  0  0  0  0  0  0
   -4.9720   -4.7150   12.4090 C   0  0  0  0  0  3  0  0  0  0  0  0
   -5.7840   -4.7290   13.6770 C   0  0  0  0  0  2  0  0  0  0  0  0
   -4.5970   -5.6430   13.5300 C   0  0  0  0  0  2  0  0  0  0  0  0
   -5.6100   -3.9910   10.1370 O   0  0  0  0  0  0  0  0  0  0  0  0
   -5.6620   -3.2020   10.7160 H   0  0  0  0  0  0  0  0  0  0  0  0
  1 24  1  0  0  0  0
  1  5  2  0  0  0  0
  2  3  2  0  0  0  0
  2  1  1  0  0  0  0
  3  4  1  0  0  0  0
  4  6  1  0  0  0  0
  4  5  1  0  0  0  0
  5 15  1  0  0  0  0
  7  6  1  0  0  0  0
  8  7  1  0  0  0  0
  9  8  2  0  0  0  0
 10  9  1  0  0  0  0
 11 10  2  0  0  0  0
 11 12  1  0  0  0  0
 12 14  2  0  0  0  0
 13 12  1  0  0  0  0
 14  8  1  0  0  0  0
 14  3  1  0  0  0  0
 15 20  1  0  0  0  0
 16 15  2  0  0  0  0
 16 17  1  0  0  0  0
 17 18  2  0  0  0  0
 18 19  1  0  0  0  0
 20 19  2  0  0  0  0
 21 22  1  0  0  0  0
 21 27  1  0  0  0  0
 23 22  2  0  0  0  0
 24 23  1  0  0  0  0
 25 24  2  0  0  0  0
 25 26  1  0  0  0  0
 26 21  2  0  0  0  0
 27 31  1  6  0  0  0
 27 28  1  0  0  0  0
 27 30  1  0  0  0  0
 28 29  1  0  0  0  0
 29 38  1  6  0  0  0
 29 35  1  0  0  0  0
 30 29  1  0  0  0  0
 31 34  1  0  0  0  0
 32 31  1  0  0  0  0
 33 31  1  0  0  0  0
 35 37  1  0  0  0  0
 35 36  1  0  0  0  0
 37 36  1  0  0  0  0
 38 39  1  0  0  0  0
M  END
>  <minimizedAffinity>
-6.04764462

$$$$
