
 OpenBabel11232419253D

 41 46  0  0  1  0  0  0  0  0999 V2000
   37.6690   44.5190   19.6890 C   0  0  0  0  0  0  0  0  0  0  0  0
   38.7450   45.3050   19.3120 N   0  0  0  0  0  0  0  0  0  0  0  0
   38.4870   45.7040   18.0880 C   0  0  0  0  0  0  0  0  0  0  0  0
   37.3070   45.1830   17.6450 N   0  0  0  0  0  0  0  0  0  0  0  0
   36.7360   44.4420   18.6580 C   0  0  0  0  0  0  0  0  0  0  0  0
   36.7220   45.5850   16.3780 C   0  0  0  0  0  2  0  0  0  0  0  0
   37.6880   46.0770   15.4240 O   0  0  0  0  0  0  0  0  0  0  0  0
   38.7590   46.7750   15.9220 C   0  0  0  0  0  0  0  0  0  0  0  0
   39.4220   47.6310   15.0400 C   0  0  0  0  0  3  0  0  0  0  0  0
   40.5360   48.3570   15.4790 C   0  0  0  0  0  0  0  0  0  0  0  0
   40.9910   48.1870   16.7970 C   0  0  0  0  0  3  0  0  0  0  0  0
   40.3380   47.3130   17.6710 C   0  0  0  0  0  3  0  0  0  0  0  0
   39.2180   46.6100   17.2340 C   0  0  0  0  0  0  0  0  0  0  0  0
   37.4160   43.0520   23.7800 C   0  0  0  0  0  0  0  0  0  0  0  0
   38.0940   44.2380   23.4190 C   0  0  0  0  0  3  0  0  0  0  0  0
   38.1700   44.6880   22.0920 C   0  0  0  0  0  3  0  0  0  0  0  0
   37.5890   43.9720   21.0420 C   0  0  0  0  0  0  0  0  0  0  0  0
   36.9640   42.7700   21.3590 C   0  0  0  0  0  3  0  0  0  0  0  0
   36.8760   42.3320   22.6920 C   0  0  0  0  0  3  0  0  0  0  0  0
   38.8040   42.7400   28.3550 C   0  0  0  0  0  1  0  0  0  0  0  0
   38.6720   43.0740   26.8760 C   0  0  1  0  0  0  0  0  0  0  0  0
   38.4670   41.8280   25.9780 C   0  0  0  0  0  2  0  0  0  0  0  0
   37.2560   42.5310   25.2970 C   0  0  1  0  0  0  0  0  0  0  0  0
   37.2750   43.5830   26.4410 C   0  0  0  0  0  2  0  0  0  0  0  0
   36.0540   41.6620   25.3970 N   0  0  0  0  0  4  0  0  0  0  0  0
   35.1930   42.1980   25.2330 H   0  0  0  0  0  0  0  0  0  0  0  0
   36.0910   40.9090   24.6970 H   0  0  0  0  0  0  0  0  0  0  0  0
   35.9590   41.2150   26.3170 H   0  0  0  0  0  0  0  0  0  0  0  0
   39.7700   43.9110   26.4700 O   0  0  0  0  0  0  0  0  0  0  0  0
   39.8190   44.6460   27.1090 H   0  0  0  0  0  0  0  0  0  0  0  0
   35.4020   43.8680   18.5570 C   0  0  0  0  0  0  0  0  0  0  0  0
   35.1890   42.6930   17.8270 C   0  0  0  0  0  3  0  0  0  0  0  0
   33.9050   42.1540   17.7260 C   0  0  0  0  0  3  0  0  0  0  0  0
   32.8310   42.7870   18.3520 C   0  0  0  0  0  3  0  0  0  0  0  0
   33.0370   43.9570   19.0810 C   0  0  0  0  0  3  0  0  0  0  0  0
   34.3200   44.4990   19.1830 C   0  0  0  0  0  3  0  0  0  0  0  0
   41.2800   49.3160   14.6120 C   0  0  0  0  0  0  0  0  0  0  0  0
   41.5770   50.5560   15.1050 N   0  0  0  0  0  0  0  0  0  0  0  0
   41.6380   49.0050   13.4820 O   0  0  0  0  0  0  0  0  0  0  0  0
   42.0870   51.1760   14.4880 H   0  0  0  0  0  0  0  0  0  0  0  0
   41.3530   50.8940   16.0260 H   0  0  0  0  0  0  0  0  0  0  0  0
  1 17  1  0  0  0  0
  2  1  1  0  0  0  0
  3  2  2  0  0  0  0
  4  3  1  0  0  0  0
  4  5  1  0  0  0  0
  5  1  2  0  0  0  0
  6  4  1  0  0  0  0
  7  8  1  0  0  0  0
  7  6  1  0  0  0  0
  8 13  1  0  0  0  0
  9 10  1  0  0  0  0
  9  8  2  0  0  0  0
 10 11  2  0  0  0  0
 11 12  1  0  0  0  0
 13 12  2  0  0  0  0
 13  3  1  0  0  0  0
 14 23  1  0  0  0  0
 15 14  1  0  0  0  0
 16 15  2  0  0  0  0
 17 18  2  0  0  0  0
 17 16  1  0  0  0  0
 18 19  1  0  0  0  0
 19 14  2  0  0  0  0
 21 20  1  1  0  0  0
 22 21  1  0  0  0  0
 23 25  1  1  0  0  0
 23 22  1  0  0  0  0
 23 24  1  0  0  0  0
 24 21  1  0  0  0  0
 25 28  1  0  0  0  0
 26 25  1  0  0  0  0
 27 25  1  0  0  0  0
 29 21  1  0  0  0  0
 29 30  1  0  0  0  0
 31  5  1  0  0  0  0
 31 36  1  0  0  0  0
 32 31  2  0  0  0  0
 33 32  1  0  0  0  0
 33 34  2  0  0  0  0
 34 35  1  0  0  0  0
 35 36  2  0  0  0  0
 37 38  1  0  0  0  0
 37 10  1  0  0  0  0
 38 41  1  0  0  0  0
 39 37  2  0  0  0  0
 40 38  1  0  0  0  0
M  END
>  <minimizedAffinity>
-11.8818302

$$$$
