
 OpenBabel11232419253D

 41 46  0  0  1  0  0  0  0  0999 V2000
   35.8410   43.6430   19.9400 C   0  0  0  0  0  0  0  0  0  0  0  0
   34.5850   43.0650   19.8650 N   0  0  0  0  0  0  0  0  0  0  0  0
   34.1360   43.3380   18.6620 C   0  0  0  0  0  0  0  0  0  0  0  0
   35.0330   44.0950   17.9680 N   0  0  0  0  0  0  0  0  0  0  0  0
   36.1560   44.2830   18.7450 C   0  0  0  0  0  0  0  0  0  0  0  0
   34.8420   44.4090   16.5630 C   0  0  0  0  0  2  0  0  0  0  0  0
   33.4600   44.3790   16.1450 O   0  0  0  0  0  0  0  0  0  0  0  0
   32.6470   43.4490   16.7430 C   0  0  0  0  0  0  0  0  0  0  0  0
   31.4850   43.0890   16.0550 C   0  0  0  0  0  3  0  0  0  0  0  0
   30.6010   42.1610   16.6200 C   0  0  0  0  0  0  0  0  0  0  0  0
   30.8820   41.6300   17.8900 C   0  0  0  0  0  3  0  0  0  0  0  0
   32.0340   42.0090   18.5840 C   0  0  0  0  0  3  0  0  0  0  0  0
   32.9200   42.9160   18.0080 C   0  0  0  0  0  0  0  0  0  0  0  0
   38.2800   43.2640   23.5270 C   0  0  0  0  0  0  0  0  0  0  0  0
   38.2340   44.4350   22.7370 C   0  0  0  0  0  3  0  0  0  0  0  0
   37.4470   44.5320   21.5800 C   0  0  0  0  0  3  0  0  0  0  0  0
   36.6710   43.4600   21.1300 C   0  0  0  0  0  0  0  0  0  0  0  0
   36.7420   42.2750   21.8540 C   0  0  0  0  0  3  0  0  0  0  0  0
   37.5190   42.1870   23.0230 C   0  0  0  0  0  3  0  0  0  0  0  0
   38.6790   43.0420   28.2960 C   0  0  0  0  0  1  0  0  0  0  0  0
   38.1720   43.1290   26.8630 C   0  0  1  0  0  0  0  0  0  0  0  0
   38.9110   44.1920   26.0110 C   0  0  0  0  0  2  0  0  0  0  0  0
   39.1250   43.1310   24.8920 C   0  0  1  0  0  0  0  0  0  0  0  0
   38.7100   42.0330   25.9100 C   0  0  0  0  0  2  0  0  0  0  0  0
   40.5740   43.0330   24.5700 N   0  0  0  0  0  4  0  0  0  0  0  0
   40.7850   42.1610   24.0690 H   0  0  0  0  0  0  0  0  0  0  0  0
   40.8660   43.8160   23.9700 H   0  0  0  0  0  0  0  0  0  0  0  0
   41.1720   43.0510   25.4050 H   0  0  0  0  0  0  0  0  0  0  0  0
   36.7410   43.2760   26.8650 O   0  0  0  0  0  0  0  0  0  0  0  0
   36.3840   42.5740   27.4410 H   0  0  0  0  0  0  0  0  0  0  0  0
   37.3600   44.9290   18.2430 C   0  0  0  0  0  0  0  0  0  0  0  0
   38.6150   44.5930   18.7630 C   0  0  0  0  0  3  0  0  0  0  0  0
   39.7640   45.2230   18.2840 C   0  0  0  0  0  3  0  0  0  0  0  0
   39.6650   46.1920   17.2860 C   0  0  0  0  0  3  0  0  0  0  0  0
   38.4170   46.5320   16.7630 C   0  0  0  0  0  3  0  0  0  0  0  0
   37.2660   45.9030   17.2410 C   0  0  0  0  0  3  0  0  0  0  0  0
   29.3570   41.6980   15.9390 C   0  0  0  0  0  0  0  0  0  0  0  0
   28.3620   42.6040   15.6980 N   0  0  0  0  0  0  0  0  0  0  0  0
   29.2230   40.5330   15.5850 O   0  0  0  0  0  0  0  0  0  0  0  0
   27.5360   42.2520   15.2300 H   0  0  0  0  0  0  0  0  0  0  0  0
   28.3890   43.5850   15.9240 H   0  0  0  0  0  0  0  0  0  0  0  0
  1 17  1  0  0  0  0
  2  1  1  0  0  0  0
  3  2  2  0  0  0  0
  4  3  1  0  0  0  0
  4  5  1  0  0  0  0
  5  1  2  0  0  0  0
  6  4  1  0  0  0  0
  7  6  1  0  0  0  0
  7  8  1  0  0  0  0
  8 13  1  0  0  0  0
  9 10  1  0  0  0  0
  9  8  2  0  0  0  0
 10 11  2  0  0  0  0
 11 12  1  0  0  0  0
 13 12  2  0  0  0  0
 13  3  1  0  0  0  0
 14 23  1  0  0  0  0
 15 14  2  0  0  0  0
 16 15  1  0  0  0  0
 17 16  2  0  0  0  0
 17 18  1  0  0  0  0
 18 19  2  0  0  0  0
 19 14  1  0  0  0  0
 21 29  1  0  0  0  0
 21 20  1  1  0  0  0
 22 21  1  0  0  0  0
 23 25  1  6  0  0  0
 23 24  1  0  0  0  0
 23 22  1  0  0  0  0
 24 21  1  0  0  0  0
 25 28  1  0  0  0  0
 26 25  1  0  0  0  0
 27 25  1  0  0  0  0
 29 30  1  0  0  0  0
 31  5  1  0  0  0  0
 31 32  1  0  0  0  0
 33 32  2  0  0  0  0
 34 33  1  0  0  0  0
 35 36  1  0  0  0  0
 35 34  2  0  0  0  0
 36 31  2  0  0  0  0
 37 10  1  0  0  0  0
 38 41  1  0  0  0  0
 38 37  1  0  0  0  0
 39 37  2  0  0  0  0
 40 38  1  0  0  0  0
M  END
>  <minimizedAffinity>
-11.1679688

$$$$
