
 OpenBabel11232419253D

 41 46  0  0  1  0  0  0  0  0999 V2000
   36.1230   44.6530   17.2990 C   0  0  0  0  0  0  0  0  0  0  0  0
   36.6490   44.3820   18.5510 N   0  0  0  0  0  0  0  0  0  0  0  0
   37.8580   44.8930   18.5520 C   0  0  0  0  0  0  0  0  0  0  0  0
   38.1500   45.4530   17.3430 N   0  0  0  0  0  0  0  0  0  0  0  0
   37.0470   45.3480   16.5230 C   0  0  0  0  0  0  0  0  0  0  0  0
   39.3680   46.2140   17.1280 C   0  0  0  0  0  2  0  0  0  0  0  0
   40.4410   45.8570   18.0260 O   0  0  0  0  0  0  0  0  0  0  0  0
   40.0920   45.4930   19.3020 C   0  0  0  0  0  0  0  0  0  0  0  0
   41.0800   45.6000   20.2830 C   0  0  0  0  0  3  0  0  0  0  0  0
   40.7970   45.2240   21.6020 C   0  0  0  0  0  0  0  0  0  0  0  0
   39.5250   44.7110   21.9110 C   0  0  0  0  0  3  0  0  0  0  0  0
   38.5460   44.5850   20.9230 C   0  0  0  0  0  3  0  0  0  0  0  0
   38.8280   44.9810   19.6170 C   0  0  0  0  0  0  0  0  0  0  0  0
   31.9990   43.5070   16.5080 C   0  0  0  0  0  0  0  0  0  0  0  0
   32.9000   42.7080   17.2460 C   0  0  0  0  0  3  0  0  0  0  0  0
   34.2290   43.0930   17.4820 C   0  0  0  0  0  3  0  0  0  0  0  0
   34.7430   44.2920   16.9810 C   0  0  0  0  0  0  0  0  0  0  0  0
   33.8960   45.0720   16.2000 C   0  0  0  0  0  3  0  0  0  0  0  0
   32.5610   44.6900   15.9800 C   0  0  0  0  0  3  0  0  0  0  0  0
   28.1370   40.7330   17.0980 C   0  0  0  0  0  1  0  0  0  0  0  0
   29.5260   41.3550   17.1520 C   0  0  1  0  0  0  0  0  0  0  0  0
   30.1020   41.6990   15.7550 C   0  0  0  0  0  2  0  0  0  0  0  0
   30.4510   43.1280   16.2630 C   0  0  1  0  0  0  0  0  0  0  0  0
   29.5540   42.8630   17.5040 C   0  0  0  0  0  2  0  0  0  0  0  0
   29.8300   44.1400   15.3680 N   0  0  0  0  0  4  0  0  0  0  0  0
   29.7860   45.0610   15.8220 H   0  0  0  0  0  0  0  0  0  0  0  0
   30.3780   44.2460   14.5040 H   0  0  0  0  0  0  0  0  0  0  0  0
   28.8720   43.8950   15.0910 H   0  0  0  0  0  0  0  0  0  0  0  0
   30.3920   40.5330   17.9550 O   0  0  0  0  0  0  0  0  0  0  0  0
   29.9260   40.3650   18.7950 H   0  0  0  0  0  0  0  0  0  0  0  0
   36.9800   45.9740   15.2100 C   0  0  0  0  0  0  0  0  0  0  0  0
   37.0080   47.3670   15.0870 C   0  0  0  0  0  3  0  0  0  0  0  0
   36.9330   47.9610   13.8260 C   0  0  0  0  0  3  0  0  0  0  0  0
   36.8300   47.1670   12.6840 C   0  0  0  0  0  3  0  0  0  0  0  0
   36.8030   45.7770   12.8010 C   0  0  0  0  0  3  0  0  0  0  0  0
   36.8770   45.1810   14.0600 C   0  0  0  0  0  3  0  0  0  0  0  0
   41.7830   45.3370   22.7150 C   0  0  0  0  0  0  0  0  0  0  0  0
   42.1860   46.5800   23.1150 N   0  0  0  0  0  0  0  0  0  0  0  0
   42.2210   44.3410   23.2780 O   0  0  0  0  0  0  0  0  0  0  0  0
   42.8520   46.6150   23.8760 H   0  0  0  0  0  0  0  0  0  0  0  0
   41.8640   47.4550   22.7350 H   0  0  0  0  0  0  0  0  0  0  0  0
  1  2  1  0  0  0  0
  2  3  2  0  0  0  0
  3 13  1  0  0  0  0
  4  3  1  0  0  0  0
  5  1  2  0  0  0  0
  5  4  1  0  0  0  0
  6  4  1  0  0  0  0
  6  7  1  0  0  0  0
  7  8  1  0  0  0  0
  8 13  2  0  0  0  0
  8  9  1  0  0  0  0
  9 10  2  0  0  0  0
 10 11  1  0  0  0  0
 10 37  1  0  0  0  0
 12 11  2  0  0  0  0
 13 12  1  0  0  0  0
 14 15  1  0  0  0  0
 15 16  2  0  0  0  0
 17  1  1  0  0  0  0
 17 16  1  0  0  0  0
 18 17  2  0  0  0  0
 19 18  1  0  0  0  0
 19 14  2  0  0  0  0
 21 20  1  6  0  0  0
 21 24  1  0  0  0  0
 21 29  1  0  0  0  0
 22 23  1  0  0  0  0
 22 21  1  0  0  0  0
 23 25  1  6  0  0  0
 23 14  1  0  0  0  0
 23 24  1  0  0  0  0
 25 26  1  0  0  0  0
 27 25  1  0  0  0  0
 28 25  1  0  0  0  0
 29 30  1  0  0  0  0
 31  5  1  0  0  0  0
 32 31  1  0  0  0  0
 33 32  2  0  0  0  0
 34 35  2  0  0  0  0
 34 33  1  0  0  0  0
 35 36  1  0  0  0  0
 36 31  2  0  0  0  0
 37 38  1  0  0  0  0
 37 39  2  0  0  0  0
 38 40  1  0  0  0  0
 41 38  1  0  0  0  0
M  END
>  <minimizedAffinity>
-12.2306032

$$$$

 OpenBabel11232419253D

 41 46  0  0  1  0  0  0  0  0999 V2000
   35.5730   44.6960   18.0880 C   0  0  0  0  0  0  0  0  0  0  0  0
   34.3400   44.1390   18.3820 N   0  0  0  0  0  0  0  0  0  0  0  0
   33.5800   44.3770   17.3380 C   0  0  0  0  0  0  0  0  0  0  0  0
   34.2580   45.0930   16.3960 N   0  0  0  0  0  0  0  0  0  0  0  0
   35.5520   45.2890   16.8280 C   0  0  0  0  0  0  0  0  0  0  0  0
   33.6910   45.3610   15.0860 C   0  0  0  0  0  2  0  0  0  0  0  0
   32.2470   45.3400   15.0650 O   0  0  0  0  0  0  0  0  0  0  0  0
   31.6220   44.4470   15.8980 C   0  0  0  0  0  0  0  0  0  0  0  0
   30.3140   44.0840   15.5700 C   0  0  0  0  0  3  0  0  0  0  0  0
   29.6120   43.1930   16.3900 C   0  0  0  0  0  0  0  0  0  0  0  0
   30.2270   42.7010   17.5550 C   0  0  0  0  0  3  0  0  0  0  0  0
   31.5280   43.0840   17.8910 C   0  0  0  0  0  3  0  0  0  0  0  0
   32.2280   43.9540   17.0590 C   0  0  0  0  0  0  0  0  0  0  0  0
   38.9840   44.3820   20.7740 C   0  0  0  0  0  0  0  0  0  0  0  0
   39.0760   44.8790   19.4550 C   0  0  0  0  0  3  0  0  0  0  0  0
   37.9650   44.9640   18.6030 C   0  0  0  0  0  3  0  0  0  0  0  0
   36.6960   44.5410   19.0100 C   0  0  0  0  0  0  0  0  0  0  0  0
   36.5860   43.9920   20.2840 C   0  0  0  0  0  3  0  0  0  0  0  0
   37.6990   43.9250   21.1400 C   0  0  0  0  0  3  0  0  0  0  0  0
   40.8980   44.5110   25.1650 C   0  0  0  0  0  1  0  0  0  0  0  0
   39.9570   44.5080   23.9680 C   0  0  1  0  0  0  0  0  0  0  0  0
   40.3940   45.4730   22.8370 C   0  0  0  0  0  2  0  0  0  0  0  0
   40.2230   44.3220   21.8030 C   0  0  1  0  0  0  0  0  0  0  0  0
   40.1450   43.3210   22.9900 C   0  0  0  0  0  2  0  0  0  0  0  0
   41.4890   44.1420   21.0440 N   0  0  0  0  0  4  0  0  0  0  0  0
   41.5160   43.2280   20.5770 H   0  0  0  0  0  0  0  0  0  0  0  0
   41.5810   44.8650   20.3170 H   0  0  0  0  0  0  0  0  0  0  0  0
   42.3240   44.2020   21.6380 H   0  0  0  0  0  0  0  0  0  0  0  0
   38.6040   44.7100   24.4170 O   0  0  0  0  0  0  0  0  0  0  0  0
   38.4440   44.0680   25.1350 H   0  0  0  0  0  0  0  0  0  0  0  0
   36.5770   45.8950   15.9900 C   0  0  0  0  0  0  0  0  0  0  0  0
   36.8180   47.2720   16.0490 C   0  0  0  0  0  3  0  0  0  0  0  0
   37.7960   47.8480   15.2370 C   0  0  0  0  0  3  0  0  0  0  0  0
   38.5350   47.0520   14.3620 C   0  0  0  0  0  3  0  0  0  0  0  0
   38.3000   45.6790   14.2990 C   0  0  0  0  0  3  0  0  0  0  0  0
   37.3230   45.1010   15.1100 C   0  0  0  0  0  3  0  0  0  0  0  0
   28.2250   42.7280   16.0960 C   0  0  0  0  0  0  0  0  0  0  0  0
   27.3260   43.6220   15.5850 N   0  0  0  0  0  0  0  0  0  0  0  0
   27.8910   41.5660   16.2900 O   0  0  0  0  0  0  0  0  0  0  0  0
   26.3970   43.2670   15.3940 H   0  0  0  0  0  0  0  0  0  0  0  0
   27.5120   44.5860   15.3650 H   0  0  0  0  0  0  0  0  0  0  0  0
  1  2  1  0  0  0  0
  1 17  1  0  0  0  0
  3  2  2  0  0  0  0
  4  5  1  0  0  0  0
  4  3  1  0  0  0  0
  5  1  2  0  0  0  0
  6  4  1  0  0  0  0
  7  6  1  0  0  0  0
  7  8  1  0  0  0  0
  8 13  1  0  0  0  0
  9  8  2  0  0  0  0
  9 10  1  0  0  0  0
 10 11  2  0  0  0  0
 11 12  1  0  0  0  0
 13  3  1  0  0  0  0
 13 12  2  0  0  0  0
 14 19  1  0  0  0  0
 14 23  1  0  0  0  0
 15 14  2  0  0  0  0
 16 17  2  0  0  0  0
 16 15  1  0  0  0  0
 17 18  1  0  0  0  0
 18 19  2  0  0  0  0
 21 29  1  0  0  0  0
 21 20  1  1  0  0  0
 22 21  1  0  0  0  0
 23 25  1  6  0  0  0
 23 22  1  0  0  0  0
 23 24  1  0  0  0  0
 24 21  1  0  0  0  0
 25 28  1  0  0  0  0
 26 25  1  0  0  0  0
 27 25  1  0  0  0  0
 29 30  1  0  0  0  0
 31 32  1  0  0  0  0
 31  5  1  0  0  0  0
 33 32  2  0  0  0  0
 34 33  1  0  0  0  0
 35 34  2  0  0  0  0
 35 36  1  0  0  0  0
 36 31  2  0  0  0  0
 37 39  2  0  0  0  0
 37 10  1  0  0  0  0
 38 37  1  0  0  0  0
 40 38  1  0  0  0  0
 41 38  1  0  0  0  0
M  END
>  <minimizedAffinity>
-11.9455967

$$$$

 OpenBabel11232419253D

 41 46  0  0  1  0  0  0  0  0999 V2000
   37.6690   44.5190   19.6890 C   0  0  0  0  0  0  0  0  0  0  0  0
   38.7450   45.3050   19.3120 N   0  0  0  0  0  0  0  0  0  0  0  0
   38.4870   45.7040   18.0880 C   0  0  0  0  0  0  0  0  0  0  0  0
   37.3070   45.1830   17.6450 N   0  0  0  0  0  0  0  0  0  0  0  0
   36.7360   44.4420   18.6580 C   0  0  0  0  0  0  0  0  0  0  0  0
   36.7220   45.5850   16.3780 C   0  0  0  0  0  2  0  0  0  0  0  0
   37.6880   46.0770   15.4240 O   0  0  0  0  0  0  0  0  0  0  0  0
   38.7590   46.7750   15.9220 C   0  0  0  0  0  0  0  0  0  0  0  0
   39.4220   47.6310   15.0400 C   0  0  0  0  0  3  0  0  0  0  0  0
   40.5360   48.3570   15.4790 C   0  0  0  0  0  0  0  0  0  0  0  0
   40.9910   48.1870   16.7970 C   0  0  0  0  0  3  0  0  0  0  0  0
   40.3380   47.3130   17.6710 C   0  0  0  0  0  3  0  0  0  0  0  0
   39.2180   46.6100   17.2340 C   0  0  0  0  0  0  0  0  0  0  0  0
   37.4160   43.0520   23.7800 C   0  0  0  0  0  0  0  0  0  0  0  0
   38.0940   44.2380   23.4190 C   0  0  0  0  0  3  0  0  0  0  0  0
   38.1700   44.6880   22.0920 C   0  0  0  0  0  3  0  0  0  0  0  0
   37.5890   43.9720   21.0420 C   0  0  0  0  0  0  0  0  0  0  0  0
   36.9640   42.7700   21.3590 C   0  0  0  0  0  3  0  0  0  0  0  0
   36.8760   42.3320   22.6920 C   0  0  0  0  0  3  0  0  0  0  0  0
   38.8040   42.7400   28.3550 C   0  0  0  0  0  1  0  0  0  0  0  0
   38.6720   43.0740   26.8760 C   0  0  1  0  0  0  0  0  0  0  0  0
   38.4670   41.8280   25.9780 C   0  0  0  0  0  2  0  0  0  0  0  0
   37.2560   42.5310   25.2970 C   0  0  1  0  0  0  0  0  0  0  0  0
   37.2750   43.5830   26.4410 C   0  0  0  0  0  2  0  0  0  0  0  0
   36.0540   41.6620   25.3970 N   0  0  0  0  0  4  0  0  0  0  0  0
   35.1930   42.1980   25.2330 H   0  0  0  0  0  0  0  0  0  0  0  0
   36.0910   40.9090   24.6970 H   0  0  0  0  0  0  0  0  0  0  0  0
   35.9590   41.2150   26.3170 H   0  0  0  0  0  0  0  0  0  0  0  0
   39.7700   43.9110   26.4700 O   0  0  0  0  0  0  0  0  0  0  0  0
   39.8190   44.6460   27.1090 H   0  0  0  0  0  0  0  0  0  0  0  0
   35.4020   43.8680   18.5570 C   0  0  0  0  0  0  0  0  0  0  0  0
   35.1890   42.6930   17.8270 C   0  0  0  0  0  3  0  0  0  0  0  0
   33.9050   42.1540   17.7260 C   0  0  0  0  0  3  0  0  0  0  0  0
   32.8310   42.7870   18.3520 C   0  0  0  0  0  3  0  0  0  0  0  0
   33.0370   43.9570   19.0810 C   0  0  0  0  0  3  0  0  0  0  0  0
   34.3200   44.4990   19.1830 C   0  0  0  0  0  3  0  0  0  0  0  0
   41.2800   49.3160   14.6120 C   0  0  0  0  0  0  0  0  0  0  0  0
   41.5770   50.5560   15.1050 N   0  0  0  0  0  0  0  0  0  0  0  0
   41.6380   49.0050   13.4820 O   0  0  0  0  0  0  0  0  0  0  0  0
   42.0870   51.1760   14.4880 H   0  0  0  0  0  0  0  0  0  0  0  0
   41.3530   50.8940   16.0260 H   0  0  0  0  0  0  0  0  0  0  0  0
  1 17  1  0  0  0  0
  2  1  1  0  0  0  0
  3  2  2  0  0  0  0
  4  3  1  0  0  0  0
  4  5  1  0  0  0  0
  5  1  2  0  0  0  0
  6  4  1  0  0  0  0
  7  8  1  0  0  0  0
  7  6  1  0  0  0  0
  8 13  1  0  0  0  0
  9 10  1  0  0  0  0
  9  8  2  0  0  0  0
 10 11  2  0  0  0  0
 11 12  1  0  0  0  0
 13 12  2  0  0  0  0
 13  3  1  0  0  0  0
 14 23  1  0  0  0  0
 15 14  1  0  0  0  0
 16 15  2  0  0  0  0
 17 18  2  0  0  0  0
 17 16  1  0  0  0  0
 18 19  1  0  0  0  0
 19 14  2  0  0  0  0
 21 20  1  1  0  0  0
 22 21  1  0  0  0  0
 23 25  1  1  0  0  0
 23 22  1  0  0  0  0
 23 24  1  0  0  0  0
 24 21  1  0  0  0  0
 25 28  1  0  0  0  0
 26 25  1  0  0  0  0
 27 25  1  0  0  0  0
 29 21  1  0  0  0  0
 29 30  1  0  0  0  0
 31  5  1  0  0  0  0
 31 36  1  0  0  0  0
 32 31  2  0  0  0  0
 33 32  1  0  0  0  0
 33 34  2  0  0  0  0
 34 35  1  0  0  0  0
 35 36  2  0  0  0  0
 37 38  1  0  0  0  0
 37 10  1  0  0  0  0
 38 41  1  0  0  0  0
 39 37  2  0  0  0  0
 40 38  1  0  0  0  0
M  END
>  <minimizedAffinity>
-11.8818302

$$$$

 OpenBabel11232419253D

 41 46  0  0  1  0  0  0  0  0999 V2000
   35.3560   43.9810   18.1950 C   0  0  0  0  0  0  0  0  0  0  0  0
   35.7000   43.6770   19.5010 N   0  0  0  0  0  0  0  0  0  0  0  0
   36.9280   44.1130   19.6600 C   0  0  0  0  0  0  0  0  0  0  0  0
   37.4050   44.6550   18.5030 N   0  0  0  0  0  0  0  0  0  0  0  0
   36.4120   44.6180   17.5480 C   0  0  0  0  0  0  0  0  0  0  0  0
   38.6850   45.3390   18.4510 C   0  0  0  0  0  2  0  0  0  0  0  0
   39.6110   44.9150   19.4750 O   0  0  0  0  0  0  0  0  0  0  0  0
   39.0810   44.5720   20.6930 C   0  0  0  0  0  0  0  0  0  0  0  0
   39.9410   44.6170   21.7920 C   0  0  0  0  0  3  0  0  0  0  0  0
   39.4690   44.2580   23.0610 C   0  0  0  0  0  0  0  0  0  0  0  0
   38.1400   43.8250   23.2020 C   0  0  0  0  0  3  0  0  0  0  0  0
   37.2880   43.7610   22.0960 C   0  0  0  0  0  3  0  0  0  0  0  0
   37.7580   44.1390   20.8410 C   0  0  0  0  0  0  0  0  0  0  0  0
   31.2890   43.1410   16.8870 C   0  0  0  0  0  0  0  0  0  0  0  0
   31.9090   42.4830   17.9720 C   0  0  0  0  0  3  0  0  0  0  0  0
   33.2250   42.7630   18.3720 C   0  0  0  0  0  3  0  0  0  0  0  0
   34.0080   43.7070   17.7010 C   0  0  0  0  0  0  0  0  0  0  0  0
   33.4440   44.3290   16.5910 C   0  0  0  0  0  3  0  0  0  0  0  0
   32.1200   44.0560   16.2050 C   0  0  0  0  0  3  0  0  0  0  0  0
   27.2090   40.6310   16.8350 C   0  0  0  0  0  1  0  0  0  0  0  0
   28.6170   41.1470   17.0960 C   0  0  1  0  0  0  0  0  0  0  0  0
   29.3870   41.5160   15.8030 C   0  0  0  0  0  2  0  0  0  0  0  0
   29.7640   42.8890   16.4320 C   0  0  1  0  0  0  0  0  0  0  0  0
   28.7010   42.6290   17.5360 C   0  0  0  0  0  2  0  0  0  0  0  0
   29.3290   43.9870   15.5290 N   0  0  0  0  0  4  0  0  0  0  0  0
   29.2890   44.8850   16.0270 H   0  0  0  0  0  0  0  0  0  0  0  0
   29.9880   44.0950   14.7450 H   0  0  0  0  0  0  0  0  0  0  0  0
   28.4000   43.8270   15.1220 H   0  0  0  0  0  0  0  0  0  0  0  0
   29.3190   40.2240   17.9490 O   0  0  0  0  0  0  0  0  0  0  0  0
   28.7400   40.0490   18.7150 H   0  0  0  0  0  0  0  0  0  0  0  0
   36.5510   45.2490   16.2430 C   0  0  0  0  0  0  0  0  0  0  0  0
   36.4370   46.6370   16.1110 C   0  0  0  0  0  3  0  0  0  0  0  0
   36.5620   47.2340   14.8560 C   0  0  0  0  0  3  0  0  0  0  0  0
   36.7990   46.4470   13.7290 C   0  0  0  0  0  3  0  0  0  0  0  0
   36.9140   45.0630   13.8540 C   0  0  0  0  0  3  0  0  0  0  0  0
   36.7890   44.4640   15.1080 C   0  0  0  0  0  3  0  0  0  0  0  0
   40.3110   44.3090   24.2920 C   0  0  0  0  0  0  0  0  0  0  0  0
   40.5890   43.1430   24.9480 N   0  0  0  0  0  0  0  0  0  0  0  0
   40.7630   45.3690   24.7080 O   0  0  0  0  0  0  0  0  0  0  0  0
   41.1670   43.2190   25.7760 H   0  0  0  0  0  0  0  0  0  0  0  0
   40.2890   42.2240   24.6700 H   0  0  0  0  0  0  0  0  0  0  0  0
  1  2  1  0  0  0  0
  2  3  2  0  0  0  0
  3 13  1  0  0  0  0
  4  3  1  0  0  0  0
  5  1  2  0  0  0  0
  5  4  1  0  0  0  0
  6  4  1  0  0  0  0
  6  7  1  0  0  0  0
  7  8  1  0  0  0  0
  8 13  2  0  0  0  0
  8  9  1  0  0  0  0
  9 10  2  0  0  0  0
 10 11  1  0  0  0  0
 10 37  1  0  0  0  0
 12 11  2  0  0  0  0
 13 12  1  0  0  0  0
 14 15  1  0  0  0  0
 15 16  2  0  0  0  0
 17  1  1  0  0  0  0
 17 16  1  0  0  0  0
 18 17  2  0  0  0  0
 19 18  1  0  0  0  0
 19 14  2  0  0  0  0
 21 20  1  6  0  0  0
 21 24  1  0  0  0  0
 21 29  1  0  0  0  0
 22 23  1  0  0  0  0
 22 21  1  0  0  0  0
 23 25  1  6  0  0  0
 23 14  1  0  0  0  0
 23 24  1  0  0  0  0
 25 26  1  0  0  0  0
 27 25  1  0  0  0  0
 28 25  1  0  0  0  0
 29 30  1  0  0  0  0
 31  5  1  0  0  0  0
 32 31  1  0  0  0  0
 33 32  2  0  0  0  0
 34 35  2  0  0  0  0
 34 33  1  0  0  0  0
 35 36  1  0  0  0  0
 36 31  2  0  0  0  0
 37 39  2  0  0  0  0
 37 38  1  0  0  0  0
 38 40  1  0  0  0  0
 41 38  1  0  0  0  0
M  END
>  <minimizedAffinity>
-11.8365583

$$$$

 OpenBabel11232419253D

 41 46  0  0  1  0  0  0  0  0999 V2000
   36.3480   44.2640   18.0300 C   0  0  0  0  0  0  0  0  0  0  0  0
   36.8640   44.0570   19.2980 N   0  0  0  0  0  0  0  0  0  0  0  0
   38.0300   44.6610   19.3150 C   0  0  0  0  0  0  0  0  0  0  0  0
   38.3050   45.2210   18.1010 N   0  0  0  0  0  0  0  0  0  0  0  0
   37.2330   45.0150   17.2600 C   0  0  0  0  0  0  0  0  0  0  0  0
   39.4650   46.0690   17.8980 C   0  0  0  0  0  2  0  0  0  0  0  0
   40.5420   45.8130   18.8250 O   0  0  0  0  0  0  0  0  0  0  0  0
   40.1930   45.4450   20.1000 C   0  0  0  0  0  0  0  0  0  0  0  0
   41.1480   45.6460   21.1000 C   0  0  0  0  0  3  0  0  0  0  0  0
   40.8640   45.2730   22.4190 C   0  0  0  0  0  0  0  0  0  0  0  0
   39.6300   44.6680   22.7120 C   0  0  0  0  0  3  0  0  0  0  0  0
   38.6860   44.4490   21.7050 C   0  0  0  0  0  3  0  0  0  0  0  0
   38.9660   44.8420   20.3990 C   0  0  0  0  0  0  0  0  0  0  0  0
   32.3200   42.8440   17.1850 C   0  0  0  0  0  0  0  0  0  0  0  0
   33.1070   42.3630   18.2560 C   0  0  0  0  0  3  0  0  0  0  0  0
   34.4060   42.8290   18.5050 C   0  0  0  0  0  3  0  0  0  0  0  0
   35.0070   43.7920   17.6900 C   0  0  0  0  0  0  0  0  0  0  0  0
   34.2790   44.2420   16.5930 C   0  0  0  0  0  3  0  0  0  0  0  0
   32.9710   43.7840   16.3570 C   0  0  0  0  0  3  0  0  0  0  0  0
   27.7410   43.6730   16.0470 C   0  0  0  0  0  1  0  0  0  0  0  0
   29.2280   43.7930   16.3520 C   0  0  1  0  0  0  0  0  0  0  0  0
   29.6470   43.0830   17.6640 C   0  0  0  0  0  2  0  0  0  0  0  0
   30.8050   42.3770   16.8990 C   0  0  1  0  0  0  0  0  0  0  0  0
   30.1390   42.8180   15.5660 C   0  0  0  0  0  2  0  0  0  0  0  0
   30.6970   40.9050   17.0820 N   0  0  0  0  0  4  0  0  0  0  0  0
   31.2440   40.4010   16.3730 H   0  0  0  0  0  0  0  0  0  0  0  0
   31.0550   40.6270   18.0060 H   0  0  0  0  0  0  0  0  0  0  0  0
   29.7310   40.5630   17.0160 H   0  0  0  0  0  0  0  0  0  0  0  0
   29.6240   45.1750   16.2840 O   0  0  0  0  0  0  0  0  0  0  0  0
   29.2950   45.5240   15.4340 H   0  0  0  0  0  0  0  0  0  0  0  0
   37.1470   45.6110   15.9350 C   0  0  0  0  0  0  0  0  0  0  0  0
   36.9530   46.9890   15.7880 C   0  0  0  0  0  3  0  0  0  0  0  0
   36.8620   47.5520   14.5140 C   0  0  0  0  0  3  0  0  0  0  0  0
   36.9640   46.7420   13.3830 C   0  0  0  0  0  3  0  0  0  0  0  0
   37.1580   45.3680   13.5230 C   0  0  0  0  0  3  0  0  0  0  0  0
   37.2490   44.8020   14.7960 C   0  0  0  0  0  3  0  0  0  0  0  0
   41.8140   45.4820   23.5510 C   0  0  0  0  0  0  0  0  0  0  0  0
   42.2210   46.7530   23.8430 N   0  0  0  0  0  0  0  0  0  0  0  0
   42.2180   44.5400   24.2220 O   0  0  0  0  0  0  0  0  0  0  0  0
   42.8620   46.8540   24.6200 H   0  0  0  0  0  0  0  0  0  0  0  0
   41.9250   47.5910   23.3690 H   0  0  0  0  0  0  0  0  0  0  0  0
  1  2  1  0  0  0  0
  2  3  2  0  0  0  0
  3 13  1  0  0  0  0
  4  3  1  0  0  0  0
  5  1  2  0  0  0  0
  5  4  1  0  0  0  0
  6  4  1  0  0  0  0
  6  7  1  0  0  0  0
  7  8  1  0  0  0  0
  8 13  2  0  0  0  0
  8  9  1  0  0  0  0
  9 10  2  0  0  0  0
 10 11  1  0  0  0  0
 10 37  1  0  0  0  0
 12 11  2  0  0  0  0
 13 12  1  0  0  0  0
 14 15  1  0  0  0  0
 15 16  2  0  0  0  0
 17  1  1  0  0  0  0
 17 16  1  0  0  0  0
 18 17  2  0  0  0  0
 19 18  1  0  0  0  0
 19 14  2  0  0  0  0
 21 20  1  6  0  0  0
 21 22  1  0  0  0  0
 23 25  1  1  0  0  0
 23 14  1  0  0  0  0
 23 22  1  0  0  0  0
 24 21  1  0  0  0  0
 24 23  1  0  0  0  0
 25 27  1  0  0  0  0
 26 25  1  0  0  0  0
 28 25  1  0  0  0  0
 29 21  1  0  0  0  0
 30 29  1  0  0  0  0
 31  5  1  0  0  0  0
 32 31  1  0  0  0  0
 33 32  2  0  0  0  0
 34 35  2  0  0  0  0
 34 33  1  0  0  0  0
 35 36  1  0  0  0  0
 36 31  2  0  0  0  0
 37 38  1  0  0  0  0
 37 39  2  0  0  0  0
 38 40  1  0  0  0  0
 41 38  1  0  0  0  0
M  END
>  <minimizedAffinity>
-11.5692863

$$$$

 OpenBabel11232419253D

 41 46  0  0  1  0  0  0  0  0999 V2000
   36.2410   43.3220   20.2370 C   0  0  0  0  0  0  0  0  0  0  0  0
   36.2230   42.7930   21.5170 N   0  0  0  0  0  0  0  0  0  0  0  0
   37.3620   43.1460   22.0680 C   0  0  0  0  0  0  0  0  0  0  0  0
   38.1290   43.8520   21.1890 N   0  0  0  0  0  0  0  0  0  0  0  0
   37.4290   44.0130   20.0130 C   0  0  0  0  0  0  0  0  0  0  0  0
   39.3720   44.4830   21.5960 C   0  0  0  0  0  2  0  0  0  0  0  0
   39.9910   43.8590   22.7420 O   0  0  0  0  0  0  0  0  0  0  0  0
   39.1540   43.3420   23.6990 C   0  0  0  0  0  0  0  0  0  0  0  0
   39.6870   43.1700   24.9780 C   0  0  0  0  0  3  0  0  0  0  0  0
   38.8930   42.6270   25.9960 C   0  0  0  0  0  0  0  0  0  0  0  0
   37.5770   42.2300   25.7030 C   0  0  0  0  0  3  0  0  0  0  0  0
   37.0550   42.3830   24.4160 C   0  0  0  0  0  3  0  0  0  0  0  0
   37.8430   42.9440   23.4140 C   0  0  0  0  0  0  0  0  0  0  0  0
   32.7190   43.0760   17.6900 C   0  0  0  0  0  0  0  0  0  0  0  0
   32.7050   43.6390   18.9850 C   0  0  0  0  0  3  0  0  0  0  0  0
   33.8510   43.7010   19.7930 C   0  0  0  0  0  3  0  0  0  0  0  0
   35.0780   43.1870   19.3630 C   0  0  0  0  0  0  0  0  0  0  0  0
   35.1090   42.5730   18.1160 C   0  0  0  0  0  3  0  0  0  0  0  0
   33.9620   42.5290   17.3030 C   0  0  0  0  0  3  0  0  0  0  0  0
   29.4520   45.1320   14.8520 C   0  0  0  0  0  1  0  0  0  0  0  0
   30.6240   44.8430   15.7810 C   0  0  1  0  0  0  0  0  0  0  0  0
   30.2400   43.9800   17.0090 C   0  0  0  0  0  2  0  0  0  0  0  0
   31.4410   43.0370   16.7100 C   0  0  1  0  0  0  0  0  0  0  0  0
   31.5660   43.7060   15.3120 C   0  0  0  0  0  2  0  0  0  0  0  0
   30.9560   41.6370   16.5840 N   0  0  0  0  0  4  0  0  0  0  0  0
   31.6460   41.0450   16.1060 H   0  0  0  0  0  0  0  0  0  0  0  0
   30.7850   41.2280   17.5130 H   0  0  0  0  0  0  0  0  0  0  0  0
   30.0780   41.5630   16.0550 H   0  0  0  0  0  0  0  0  0  0  0  0
   31.2880   46.0750   16.1170 O   0  0  0  0  0  0  0  0  0  0  0  0
   31.4650   46.5410   15.2790 H   0  0  0  0  0  0  0  0  0  0  0  0
   37.9110   44.8440   18.9180 C   0  0  0  0  0  0  0  0  0  0  0  0
   37.0460   45.2310   17.8880 C   0  0  0  0  0  3  0  0  0  0  0  0
   37.5170   46.0200   16.8370 C   0  0  0  0  0  3  0  0  0  0  0  0
   38.8520   46.4230   16.8100 C   0  0  0  0  0  3  0  0  0  0  0  0
   39.7180   46.0400   17.8340 C   0  0  0  0  0  3  0  0  0  0  0  0
   39.2500   45.2520   18.8860 C   0  0  0  0  0  3  0  0  0  0  0  0
   39.3730   42.4400   27.3960 C   0  0  0  0  0  0  0  0  0  0  0  0
   40.1330   41.3430   27.6910 N   0  0  0  0  0  0  0  0  0  0  0  0
   39.1090   43.2560   28.2720 O   0  0  0  0  0  0  0  0  0  0  0  0
   40.4430   41.2550   28.6510 H   0  0  0  0  0  0  0  0  0  0  0  0
   40.4250   40.6350   27.0390 H   0  0  0  0  0  0  0  0  0  0  0  0
  1  2  1  0  0  0  0
  2  3  2  0  0  0  0
  3 13  1  0  0  0  0
  4  6  1  0  0  0  0
  4  3  1  0  0  0  0
  5  1  2  0  0  0  0
  5  4  1  0  0  0  0
  6  7  1  0  0  0  0
  7  8  1  0  0  0  0
  8  9  1  0  0  0  0
  9 10  2  0  0  0  0
 10 37  1  0  0  0  0
 11 10  1  0  0  0  0
 12 11  2  0  0  0  0
 13  8  2  0  0  0  0
 13 12  1  0  0  0  0
 14 15  1  0  0  0  0
 15 16  2  0  0  0  0
 17 16  1  0  0  0  0
 17  1  1  0  0  0  0
 18 17  2  0  0  0  0
 19 14  2  0  0  0  0
 19 18  1  0  0  0  0
 21 20  1  6  0  0  0
 21 29  1  0  0  0  0
 21 22  1  0  0  0  0
 23 25  1  6  0  0  0
 23 22  1  0  0  0  0
 23 14  1  0  0  0  0
 24 21  1  0  0  0  0
 24 23  1  0  0  0  0
 25 27  1  0  0  0  0
 26 25  1  0  0  0  0
 28 25  1  0  0  0  0
 30 29  1  0  0  0  0
 31  5  1  0  0  0  0
 32 31  2  0  0  0  0
 33 32  1  0  0  0  0
 34 33  2  0  0  0  0
 34 35  1  0  0  0  0
 35 36  2  0  0  0  0
 36 31  1  0  0  0  0
 37 38  1  0  0  0  0
 37 39  2  0  0  0  0
 38 40  1  0  0  0  0
 41 38  1  0  0  0  0
M  END
>  <minimizedAffinity>
-11.4791327

$$$$

 OpenBabel11232419253D

 41 46  0  0  1  0  0  0  0  0999 V2000
   35.6930   44.8140   17.9070 C   0  0  0  0  0  0  0  0  0  0  0  0
   36.1470   45.7050   16.9490 N   0  0  0  0  0  0  0  0  0  0  0  0
   37.3760   46.0120   17.2970 C   0  0  0  0  0  0  0  0  0  0  0  0
   37.7230   45.3850   18.4570 N   0  0  0  0  0  0  0  0  0  0  0  0
   36.6800   44.5810   18.8620 C   0  0  0  0  0  0  0  0  0  0  0  0
   39.0770   45.4430   18.9790 C   0  0  0  0  0  2  0  0  0  0  0  0
   39.8170   46.6050   18.5470 O   0  0  0  0  0  0  0  0  0  0  0  0
   39.5640   47.0710   17.2810 C   0  0  0  0  0  0  0  0  0  0  0  0
   40.5540   47.8570   16.6870 C   0  0  0  0  0  3  0  0  0  0  0  0
   40.3500   48.3820   15.4050 C   0  0  0  0  0  0  0  0  0  0  0  0
   39.1340   48.1350   14.7470 C   0  0  0  0  0  3  0  0  0  0  0  0
   38.1370   47.3650   15.3530 C   0  0  0  0  0  3  0  0  0  0  0  0
   38.3550   46.8290   16.6200 C   0  0  0  0  0  0  0  0  0  0  0  0
   31.8320   42.8660   17.4130 C   0  0  0  0  0  0  0  0  0  0  0  0
   32.7390   43.0750   16.3510 C   0  0  0  0  0  3  0  0  0  0  0  0
   33.9760   43.7130   16.5310 C   0  0  0  0  0  3  0  0  0  0  0  0
   34.3750   44.1970   17.7810 C   0  0  0  0  0  0  0  0  0  0  0  0
   33.4760   44.0590   18.8340 C   0  0  0  0  0  3  0  0  0  0  0  0
   32.2450   43.4040   18.6520 C   0  0  0  0  0  3  0  0  0  0  0  0
   27.3260   42.4580   15.8370 C   0  0  0  0  0  1  0  0  0  0  0  0
   28.7440   42.9230   16.1390 C   0  0  1  0  0  0  0  0  0  0  0  0
   29.1150   42.8310   17.6410 C   0  0  0  0  0  2  0  0  0  0  0  0
   30.4290   42.0880   17.2600 C   0  0  1  0  0  0  0  0  0  0  0  0
   29.8520   41.8850   15.8310 C   0  0  0  0  0  2  0  0  0  0  0  0
   30.4980   40.7940   17.9900 N   0  0  0  0  0  4  0  0  0  0  0  0
   31.1770   40.1580   17.5550 H   0  0  0  0  0  0  0  0  0  0  0  0
   30.7920   40.9430   18.9650 H   0  0  0  0  0  0  0  0  0  0  0  0
   29.5980   40.3010   18.0170 H   0  0  0  0  0  0  0  0  0  0  0  0
   28.9590   44.2230   15.5630 O   0  0  0  0  0  0  0  0  0  0  0  0
   28.6770   44.1720   14.6300 H   0  0  0  0  0  0  0  0  0  0  0  0
   36.7840   43.6660   19.9900 C   0  0  0  0  0  0  0  0  0  0  0  0
   36.2320   42.3830   19.9150 C   0  0  0  0  0  3  0  0  0  0  0  0
   36.3270   41.5150   21.0040 C   0  0  0  0  0  3  0  0  0  0  0  0
   36.9710   41.9250   22.1710 C   0  0  0  0  0  3  0  0  0  0  0  0
   37.5240   43.2030   22.2510 C   0  0  0  0  0  3  0  0  0  0  0  0
   37.4310   44.0730   21.1640 C   0  0  0  0  0  3  0  0  0  0  0  0
   41.3670   49.2040   14.6870 C   0  0  0  0  0  0  0  0  0  0  0  0
   41.5930   50.4860   15.1030 N   0  0  0  0  0  0  0  0  0  0  0  0
   42.0060   48.7440   13.7480 O   0  0  0  0  0  0  0  0  0  0  0  0
   42.2930   51.0090   14.5930 H   0  0  0  0  0  0  0  0  0  0  0  0
   41.1410   50.9420   15.8790 H   0  0  0  0  0  0  0  0  0  0  0  0
  1  5  2  0  0  0  0
  2  3  2  0  0  0  0
  2  1  1  0  0  0  0
  3  4  1  0  0  0  0
  4  5  1  0  0  0  0
  4  6  1  0  0  0  0
  5 31  1  0  0  0  0
  7  6  1  0  0  0  0
  8  7  1  0  0  0  0
  9  8  1  0  0  0  0
 10  9  2  0  0  0  0
 11 12  2  0  0  0  0
 11 10  1  0  0  0  0
 12 13  1  0  0  0  0
 13  8  2  0  0  0  0
 13  3  1  0  0  0  0
 14 19  1  0  0  0  0
 15 16  1  0  0  0  0
 15 14  2  0  0  0  0
 16 17  2  0  0  0  0
 17  1  1  0  0  0  0
 17 18  1  0  0  0  0
 19 18  2  0  0  0  0
 21 20  1  6  0  0  0
 21 22  1  0  0  0  0
 23 14  1  0  0  0  0
 23 22  1  0  0  0  0
 23 25  1  1  0  0  0
 24 21  1  0  0  0  0
 24 23  1  0  0  0  0
 25 28  1  0  0  0  0
 25 27  1  0  0  0  0
 26 25  1  0  0  0  0
 29 21  1  0  0  0  0
 30 29  1  0  0  0  0
 31 36  1  0  0  0  0
 32 31  2  0  0  0  0
 32 33  1  0  0  0  0
 33 34  2  0  0  0  0
 34 35  1  0  0  0  0
 36 35  2  0  0  0  0
 37 38  1  0  0  0  0
 37 10  1  0  0  0  0
 38 41  1  0  0  0  0
 39 37  2  0  0  0  0
 40 38  1  0  0  0  0
M  END
>  <minimizedAffinity>
-11.4197817

$$$$

 OpenBabel11232419253D

 41 46  0  0  1  0  0  0  0  0999 V2000
   35.5140   44.3950   17.7220 C   0  0  0  0  0  0  0  0  0  0  0  0
   34.4150   44.5110   16.8890 N   0  0  0  0  0  0  0  0  0  0  0  0
   33.4610   43.8040   17.4500 C   0  0  0  0  0  0  0  0  0  0  0  0
   33.9070   43.2090   18.5940 N   0  0  0  0  0  0  0  0  0  0  0  0
   35.2120   43.5910   18.8180 C   0  0  0  0  0  0  0  0  0  0  0  0
   33.0100   42.4900   19.4800 C   0  0  0  0  0  2  0  0  0  0  0  0
   31.8310   41.9780   18.8220 O   0  0  0  0  0  0  0  0  0  0  0  0
   31.3080   42.7320   17.8020 C   0  0  0  0  0  0  0  0  0  0  0  0
   29.9660   42.5170   17.4810 C   0  0  0  0  0  3  0  0  0  0  0  0
   29.3760   43.2380   16.4350 C   0  0  0  0  0  0  0  0  0  0  0  0
   30.1570   44.1470   15.7010 C   0  0  0  0  0  3  0  0  0  0  0  0
   31.5050   44.3430   16.0120 C   0  0  0  0  0  3  0  0  0  0  0  0
   32.0800   43.6380   17.0660 C   0  0  0  0  0  0  0  0  0  0  0  0
   39.0760   46.7390   16.8440 C   0  0  0  0  0  0  0  0  0  0  0  0
   37.8450   46.9150   16.1750 C   0  0  0  0  0  3  0  0  0  0  0  0
   36.7110   46.1420   16.4680 C   0  0  0  0  0  3  0  0  0  0  0  0
   36.7420   45.1340   17.4360 C   0  0  0  0  0  0  0  0  0  0  0  0
   37.9580   44.8990   18.0710 C   0  0  0  0  0  3  0  0  0  0  0  0
   39.0860   45.6870   17.7860 C   0  0  0  0  0  3  0  0  0  0  0  0
   41.7150   49.7640   14.2290 C   0  0  0  0  0  1  0  0  0  0  0  0
   40.6240   48.8490   14.7670 C   0  0  1  0  0  0  0  0  0  0  0  0
   41.1530   47.4690   15.2360 C   0  0  0  0  0  2  0  0  0  0  0  0
   40.3840   47.6430   16.5780 C   0  0  1  0  0  0  0  0  0  0  0  0
   40.1810   49.1420   16.2220 C   0  0  0  0  0  2  0  0  0  0  0  0
   41.3280   47.4930   17.7160 N   0  0  0  0  0  4  0  0  0  0  0  0
   40.9350   47.8850   18.5810 H   0  0  0  0  0  0  0  0  0  0  0  0
   41.5330   46.5000   17.8900 H   0  0  0  0  0  0  0  0  0  0  0  0
   42.2270   47.9640   17.5550 H   0  0  0  0  0  0  0  0  0  0  0  0
   39.5480   48.7680   13.8150 O   0  0  0  0  0  0  0  0  0  0  0  0
   39.3090   49.6840   13.5770 H   0  0  0  0  0  0  0  0  0  0  0  0
   35.9360   43.2430   20.0330 C   0  0  0  0  0  0  0  0  0  0  0  0
   36.5580   44.2370   20.7970 C   0  0  0  0  0  3  0  0  0  0  0  0
   37.2580   43.8950   21.9550 C   0  0  0  0  0  3  0  0  0  0  0  0
   37.3410   42.5600   22.3530 C   0  0  0  0  0  3  0  0  0  0  0  0
   36.7220   41.5660   21.5960 C   0  0  0  0  0  3  0  0  0  0  0  0
   36.0210   41.9050   20.4380 C   0  0  0  0  0  3  0  0  0  0  0  0
   27.9420   43.0930   16.0490 C   0  0  0  0  0  0  0  0  0  0  0  0
   27.3380   44.1110   15.3650 N   0  0  0  0  0  0  0  0  0  0  0  0
   27.3100   42.0800   16.3220 O   0  0  0  0  0  0  0  0  0  0  0  0
   26.3670   43.9730   15.1170 H   0  0  0  0  0  0  0  0  0  0  0  0
   27.7780   44.9670   15.0710 H   0  0  0  0  0  0  0  0  0  0  0  0
  1  5  2  0  0  0  0
  2  3  2  0  0  0  0
  2  1  1  0  0  0  0
  3  4  1  0  0  0  0
  4  5  1  0  0  0  0
  4  6  1  0  0  0  0
  5 31  1  0  0  0  0
  7  6  1  0  0  0  0
  8  7  1  0  0  0  0
  9  8  1  0  0  0  0
 10  9  2  0  0  0  0
 11 12  2  0  0  0  0
 11 10  1  0  0  0  0
 12 13  1  0  0  0  0
 13  3  1  0  0  0  0
 13  8  2  0  0  0  0
 14 19  1  0  0  0  0
 15 16  1  0  0  0  0
 15 14  2  0  0  0  0
 16 17  2  0  0  0  0
 17  1  1  0  0  0  0
 17 18  1  0  0  0  0
 19 18  2  0  0  0  0
 21 20  1  6  0  0  0
 21 22  1  0  0  0  0
 21 24  1  0  0  0  0
 22 23  1  0  0  0  0
 23 14  1  0  0  0  0
 23 25  1  1  0  0  0
 24 23  1  0  0  0  0
 25 27  1  0  0  0  0
 25 26  1  0  0  0  0
 28 25  1  0  0  0  0
 29 21  1  0  0  0  0
 30 29  1  0  0  0  0
 31 36  2  0  0  0  0
 31 32  1  0  0  0  0
 32 33  2  0  0  0  0
 33 34  1  0  0  0  0
 35 34  2  0  0  0  0
 36 35  1  0  0  0  0
 37 39  2  0  0  0  0
 37 10  1  0  0  0  0
 38 37  1  0  0  0  0
 40 38  1  0  0  0  0
 41 38  1  0  0  0  0
M  END
>  <minimizedAffinity>
-11.416461

$$$$

 OpenBabel11232419253D

 41 46  0  0  1  0  0  0  0  0999 V2000
   35.8410   43.6430   19.9400 C   0  0  0  0  0  0  0  0  0  0  0  0
   34.5850   43.0650   19.8650 N   0  0  0  0  0  0  0  0  0  0  0  0
   34.1360   43.3380   18.6620 C   0  0  0  0  0  0  0  0  0  0  0  0
   35.0330   44.0950   17.9680 N   0  0  0  0  0  0  0  0  0  0  0  0
   36.1560   44.2830   18.7450 C   0  0  0  0  0  0  0  0  0  0  0  0
   34.8420   44.4090   16.5630 C   0  0  0  0  0  2  0  0  0  0  0  0
   33.4600   44.3790   16.1450 O   0  0  0  0  0  0  0  0  0  0  0  0
   32.6470   43.4490   16.7430 C   0  0  0  0  0  0  0  0  0  0  0  0
   31.4850   43.0890   16.0550 C   0  0  0  0  0  3  0  0  0  0  0  0
   30.6010   42.1610   16.6200 C   0  0  0  0  0  0  0  0  0  0  0  0
   30.8820   41.6300   17.8900 C   0  0  0  0  0  3  0  0  0  0  0  0
   32.0340   42.0090   18.5840 C   0  0  0  0  0  3  0  0  0  0  0  0
   32.9200   42.9160   18.0080 C   0  0  0  0  0  0  0  0  0  0  0  0
   38.2800   43.2640   23.5270 C   0  0  0  0  0  0  0  0  0  0  0  0
   38.2340   44.4350   22.7370 C   0  0  0  0  0  3  0  0  0  0  0  0
   37.4470   44.5320   21.5800 C   0  0  0  0  0  3  0  0  0  0  0  0
   36.6710   43.4600   21.1300 C   0  0  0  0  0  0  0  0  0  0  0  0
   36.7420   42.2750   21.8540 C   0  0  0  0  0  3  0  0  0  0  0  0
   37.5190   42.1870   23.0230 C   0  0  0  0  0  3  0  0  0  0  0  0
   38.6790   43.0420   28.2960 C   0  0  0  0  0  1  0  0  0  0  0  0
   38.1720   43.1290   26.8630 C   0  0  1  0  0  0  0  0  0  0  0  0
   38.9110   44.1920   26.0110 C   0  0  0  0  0  2  0  0  0  0  0  0
   39.1250   43.1310   24.8920 C   0  0  1  0  0  0  0  0  0  0  0  0
   38.7100   42.0330   25.9100 C   0  0  0  0  0  2  0  0  0  0  0  0
   40.5740   43.0330   24.5700 N   0  0  0  0  0  4  0  0  0  0  0  0
   40.7850   42.1610   24.0690 H   0  0  0  0  0  0  0  0  0  0  0  0
   40.8660   43.8160   23.9700 H   0  0  0  0  0  0  0  0  0  0  0  0
   41.1720   43.0510   25.4050 H   0  0  0  0  0  0  0  0  0  0  0  0
   36.7410   43.2760   26.8650 O   0  0  0  0  0  0  0  0  0  0  0  0
   36.3840   42.5740   27.4410 H   0  0  0  0  0  0  0  0  0  0  0  0
   37.3600   44.9290   18.2430 C   0  0  0  0  0  0  0  0  0  0  0  0
   38.6150   44.5930   18.7630 C   0  0  0  0  0  3  0  0  0  0  0  0
   39.7640   45.2230   18.2840 C   0  0  0  0  0  3  0  0  0  0  0  0
   39.6650   46.1920   17.2860 C   0  0  0  0  0  3  0  0  0  0  0  0
   38.4170   46.5320   16.7630 C   0  0  0  0  0  3  0  0  0  0  0  0
   37.2660   45.9030   17.2410 C   0  0  0  0  0  3  0  0  0  0  0  0
   29.3570   41.6980   15.9390 C   0  0  0  0  0  0  0  0  0  0  0  0
   28.3620   42.6040   15.6980 N   0  0  0  0  0  0  0  0  0  0  0  0
   29.2230   40.5330   15.5850 O   0  0  0  0  0  0  0  0  0  0  0  0
   27.5360   42.2520   15.2300 H   0  0  0  0  0  0  0  0  0  0  0  0
   28.3890   43.5850   15.9240 H   0  0  0  0  0  0  0  0  0  0  0  0
  1 17  1  0  0  0  0
  2  1  1  0  0  0  0
  3  2  2  0  0  0  0
  4  3  1  0  0  0  0
  4  5  1  0  0  0  0
  5  1  2  0  0  0  0
  6  4  1  0  0  0  0
  7  6  1  0  0  0  0
  7  8  1  0  0  0  0
  8 13  1  0  0  0  0
  9 10  1  0  0  0  0
  9  8  2  0  0  0  0
 10 11  2  0  0  0  0
 11 12  1  0  0  0  0
 13 12  2  0  0  0  0
 13  3  1  0  0  0  0
 14 23  1  0  0  0  0
 15 14  2  0  0  0  0
 16 15  1  0  0  0  0
 17 16  2  0  0  0  0
 17 18  1  0  0  0  0
 18 19  2  0  0  0  0
 19 14  1  0  0  0  0
 21 29  1  0  0  0  0
 21 20  1  1  0  0  0
 22 21  1  0  0  0  0
 23 25  1  6  0  0  0
 23 24  1  0  0  0  0
 23 22  1  0  0  0  0
 24 21  1  0  0  0  0
 25 28  1  0  0  0  0
 26 25  1  0  0  0  0
 27 25  1  0  0  0  0
 29 30  1  0  0  0  0
 31  5  1  0  0  0  0
 31 32  1  0  0  0  0
 33 32  2  0  0  0  0
 34 33  1  0  0  0  0
 35 36  1  0  0  0  0
 35 34  2  0  0  0  0
 36 31  2  0  0  0  0
 37 10  1  0  0  0  0
 38 41  1  0  0  0  0
 38 37  1  0  0  0  0
 39 37  2  0  0  0  0
 40 38  1  0  0  0  0
M  END
>  <minimizedAffinity>
-11.1679688

$$$$
