
 OpenBabel11232419253D

 41 46  0  0  1  0  0  0  0  0999 V2000
   36.2410   43.3220   20.2370 C   0  0  0  0  0  0  0  0  0  0  0  0
   36.2230   42.7930   21.5170 N   0  0  0  0  0  0  0  0  0  0  0  0
   37.3620   43.1460   22.0680 C   0  0  0  0  0  0  0  0  0  0  0  0
   38.1290   43.8520   21.1890 N   0  0  0  0  0  0  0  0  0  0  0  0
   37.4290   44.0130   20.0130 C   0  0  0  0  0  0  0  0  0  0  0  0
   39.3720   44.4830   21.5960 C   0  0  0  0  0  2  0  0  0  0  0  0
   39.9910   43.8590   22.7420 O   0  0  0  0  0  0  0  0  0  0  0  0
   39.1540   43.3420   23.6990 C   0  0  0  0  0  0  0  0  0  0  0  0
   39.6870   43.1700   24.9780 C   0  0  0  0  0  3  0  0  0  0  0  0
   38.8930   42.6270   25.9960 C   0  0  0  0  0  0  0  0  0  0  0  0
   37.5770   42.2300   25.7030 C   0  0  0  0  0  3  0  0  0  0  0  0
   37.0550   42.3830   24.4160 C   0  0  0  0  0  3  0  0  0  0  0  0
   37.8430   42.9440   23.4140 C   0  0  0  0  0  0  0  0  0  0  0  0
   32.7190   43.0760   17.6900 C   0  0  0  0  0  0  0  0  0  0  0  0
   32.7050   43.6390   18.9850 C   0  0  0  0  0  3  0  0  0  0  0  0
   33.8510   43.7010   19.7930 C   0  0  0  0  0  3  0  0  0  0  0  0
   35.0780   43.1870   19.3630 C   0  0  0  0  0  0  0  0  0  0  0  0
   35.1090   42.5730   18.1160 C   0  0  0  0  0  3  0  0  0  0  0  0
   33.9620   42.5290   17.3030 C   0  0  0  0  0  3  0  0  0  0  0  0
   29.4520   45.1320   14.8520 C   0  0  0  0  0  1  0  0  0  0  0  0
   30.6240   44.8430   15.7810 C   0  0  1  0  0  0  0  0  0  0  0  0
   30.2400   43.9800   17.0090 C   0  0  0  0  0  2  0  0  0  0  0  0
   31.4410   43.0370   16.7100 C   0  0  1  0  0  0  0  0  0  0  0  0
   31.5660   43.7060   15.3120 C   0  0  0  0  0  2  0  0  0  0  0  0
   30.9560   41.6370   16.5840 N   0  0  0  0  0  4  0  0  0  0  0  0
   31.6460   41.0450   16.1060 H   0  0  0  0  0  0  0  0  0  0  0  0
   30.7850   41.2280   17.5130 H   0  0  0  0  0  0  0  0  0  0  0  0
   30.0780   41.5630   16.0550 H   0  0  0  0  0  0  0  0  0  0  0  0
   31.2880   46.0750   16.1170 O   0  0  0  0  0  0  0  0  0  0  0  0
   31.4650   46.5410   15.2790 H   0  0  0  0  0  0  0  0  0  0  0  0
   37.9110   44.8440   18.9180 C   0  0  0  0  0  0  0  0  0  0  0  0
   37.0460   45.2310   17.8880 C   0  0  0  0  0  3  0  0  0  0  0  0
   37.5170   46.0200   16.8370 C   0  0  0  0  0  3  0  0  0  0  0  0
   38.8520   46.4230   16.8100 C   0  0  0  0  0  3  0  0  0  0  0  0
   39.7180   46.0400   17.8340 C   0  0  0  0  0  3  0  0  0  0  0  0
   39.2500   45.2520   18.8860 C   0  0  0  0  0  3  0  0  0  0  0  0
   39.3730   42.4400   27.3960 C   0  0  0  0  0  0  0  0  0  0  0  0
   40.1330   41.3430   27.6910 N   0  0  0  0  0  0  0  0  0  0  0  0
   39.1090   43.2560   28.2720 O   0  0  0  0  0  0  0  0  0  0  0  0
   40.4430   41.2550   28.6510 H   0  0  0  0  0  0  0  0  0  0  0  0
   40.4250   40.6350   27.0390 H   0  0  0  0  0  0  0  0  0  0  0  0
  1  2  1  0  0  0  0
  2  3  2  0  0  0  0
  3 13  1  0  0  0  0
  4  6  1  0  0  0  0
  4  3  1  0  0  0  0
  5  1  2  0  0  0  0
  5  4  1  0  0  0  0
  6  7  1  0  0  0  0
  7  8  1  0  0  0  0
  8  9  1  0  0  0  0
  9 10  2  0  0  0  0
 10 37  1  0  0  0  0
 11 10  1  0  0  0  0
 12 11  2  0  0  0  0
 13  8  2  0  0  0  0
 13 12  1  0  0  0  0
 14 15  1  0  0  0  0
 15 16  2  0  0  0  0
 17 16  1  0  0  0  0
 17  1  1  0  0  0  0
 18 17  2  0  0  0  0
 19 14  2  0  0  0  0
 19 18  1  0  0  0  0
 21 20  1  6  0  0  0
 21 29  1  0  0  0  0
 21 22  1  0  0  0  0
 23 25  1  6  0  0  0
 23 22  1  0  0  0  0
 23 14  1  0  0  0  0
 24 21  1  0  0  0  0
 24 23  1  0  0  0  0
 25 27  1  0  0  0  0
 26 25  1  0  0  0  0
 28 25  1  0  0  0  0
 30 29  1  0  0  0  0
 31  5  1  0  0  0  0
 32 31  2  0  0  0  0
 33 32  1  0  0  0  0
 34 33  2  0  0  0  0
 34 35  1  0  0  0  0
 35 36  2  0  0  0  0
 36 31  1  0  0  0  0
 37 38  1  0  0  0  0
 37 39  2  0  0  0  0
 38 40  1  0  0  0  0
 41 38  1  0  0  0  0
M  END
>  <minimizedAffinity>
-11.4791327

$$$$
