
 OpenBabel11232419253D

 41 46  0  0  1  0  0  0  0  0999 V2000
   35.5140   44.3950   17.7220 C   0  0  0  0  0  0  0  0  0  0  0  0
   34.4150   44.5110   16.8890 N   0  0  0  0  0  0  0  0  0  0  0  0
   33.4610   43.8040   17.4500 C   0  0  0  0  0  0  0  0  0  0  0  0
   33.9070   43.2090   18.5940 N   0  0  0  0  0  0  0  0  0  0  0  0
   35.2120   43.5910   18.8180 C   0  0  0  0  0  0  0  0  0  0  0  0
   33.0100   42.4900   19.4800 C   0  0  0  0  0  2  0  0  0  0  0  0
   31.8310   41.9780   18.8220 O   0  0  0  0  0  0  0  0  0  0  0  0
   31.3080   42.7320   17.8020 C   0  0  0  0  0  0  0  0  0  0  0  0
   29.9660   42.5170   17.4810 C   0  0  0  0  0  3  0  0  0  0  0  0
   29.3760   43.2380   16.4350 C   0  0  0  0  0  0  0  0  0  0  0  0
   30.1570   44.1470   15.7010 C   0  0  0  0  0  3  0  0  0  0  0  0
   31.5050   44.3430   16.0120 C   0  0  0  0  0  3  0  0  0  0  0  0
   32.0800   43.6380   17.0660 C   0  0  0  0  0  0  0  0  0  0  0  0
   39.0760   46.7390   16.8440 C   0  0  0  0  0  0  0  0  0  0  0  0
   37.8450   46.9150   16.1750 C   0  0  0  0  0  3  0  0  0  0  0  0
   36.7110   46.1420   16.4680 C   0  0  0  0  0  3  0  0  0  0  0  0
   36.7420   45.1340   17.4360 C   0  0  0  0  0  0  0  0  0  0  0  0
   37.9580   44.8990   18.0710 C   0  0  0  0  0  3  0  0  0  0  0  0
   39.0860   45.6870   17.7860 C   0  0  0  0  0  3  0  0  0  0  0  0
   41.7150   49.7640   14.2290 C   0  0  0  0  0  1  0  0  0  0  0  0
   40.6240   48.8490   14.7670 C   0  0  1  0  0  0  0  0  0  0  0  0
   41.1530   47.4690   15.2360 C   0  0  0  0  0  2  0  0  0  0  0  0
   40.3840   47.6430   16.5780 C   0  0  1  0  0  0  0  0  0  0  0  0
   40.1810   49.1420   16.2220 C   0  0  0  0  0  2  0  0  0  0  0  0
   41.3280   47.4930   17.7160 N   0  0  0  0  0  4  0  0  0  0  0  0
   40.9350   47.8850   18.5810 H   0  0  0  0  0  0  0  0  0  0  0  0
   41.5330   46.5000   17.8900 H   0  0  0  0  0  0  0  0  0  0  0  0
   42.2270   47.9640   17.5550 H   0  0  0  0  0  0  0  0  0  0  0  0
   39.5480   48.7680   13.8150 O   0  0  0  0  0  0  0  0  0  0  0  0
   39.3090   49.6840   13.5770 H   0  0  0  0  0  0  0  0  0  0  0  0
   35.9360   43.2430   20.0330 C   0  0  0  0  0  0  0  0  0  0  0  0
   36.5580   44.2370   20.7970 C   0  0  0  0  0  3  0  0  0  0  0  0
   37.2580   43.8950   21.9550 C   0  0  0  0  0  3  0  0  0  0  0  0
   37.3410   42.5600   22.3530 C   0  0  0  0  0  3  0  0  0  0  0  0
   36.7220   41.5660   21.5960 C   0  0  0  0  0  3  0  0  0  0  0  0
   36.0210   41.9050   20.4380 C   0  0  0  0  0  3  0  0  0  0  0  0
   27.9420   43.0930   16.0490 C   0  0  0  0  0  0  0  0  0  0  0  0
   27.3380   44.1110   15.3650 N   0  0  0  0  0  0  0  0  0  0  0  0
   27.3100   42.0800   16.3220 O   0  0  0  0  0  0  0  0  0  0  0  0
   26.3670   43.9730   15.1170 H   0  0  0  0  0  0  0  0  0  0  0  0
   27.7780   44.9670   15.0710 H   0  0  0  0  0  0  0  0  0  0  0  0
  1  5  2  0  0  0  0
  2  3  2  0  0  0  0
  2  1  1  0  0  0  0
  3  4  1  0  0  0  0
  4  5  1  0  0  0  0
  4  6  1  0  0  0  0
  5 31  1  0  0  0  0
  7  6  1  0  0  0  0
  8  7  1  0  0  0  0
  9  8  1  0  0  0  0
 10  9  2  0  0  0  0
 11 12  2  0  0  0  0
 11 10  1  0  0  0  0
 12 13  1  0  0  0  0
 13  3  1  0  0  0  0
 13  8  2  0  0  0  0
 14 19  1  0  0  0  0
 15 16  1  0  0  0  0
 15 14  2  0  0  0  0
 16 17  2  0  0  0  0
 17  1  1  0  0  0  0
 17 18  1  0  0  0  0
 19 18  2  0  0  0  0
 21 20  1  6  0  0  0
 21 22  1  0  0  0  0
 21 24  1  0  0  0  0
 22 23  1  0  0  0  0
 23 14  1  0  0  0  0
 23 25  1  1  0  0  0
 24 23  1  0  0  0  0
 25 27  1  0  0  0  0
 25 26  1  0  0  0  0
 28 25  1  0  0  0  0
 29 21  1  0  0  0  0
 30 29  1  0  0  0  0
 31 36  2  0  0  0  0
 31 32  1  0  0  0  0
 32 33  2  0  0  0  0
 33 34  1  0  0  0  0
 35 34  2  0  0  0  0
 36 35  1  0  0  0  0
 37 39  2  0  0  0  0
 37 10  1  0  0  0  0
 38 37  1  0  0  0  0
 40 38  1  0  0  0  0
 41 38  1  0  0  0  0
M  END
>  <minimizedAffinity>
-11.416461

$$$$
