
 OpenBabel11232419253D

 41 46  0  0  1  0  0  0  0  0999 V2000
   35.6930   44.8140   17.9070 C   0  0  0  0  0  0  0  0  0  0  0  0
   36.1470   45.7050   16.9490 N   0  0  0  0  0  0  0  0  0  0  0  0
   37.3760   46.0120   17.2970 C   0  0  0  0  0  0  0  0  0  0  0  0
   37.7230   45.3850   18.4570 N   0  0  0  0  0  0  0  0  0  0  0  0
   36.6800   44.5810   18.8620 C   0  0  0  0  0  0  0  0  0  0  0  0
   39.0770   45.4430   18.9790 C   0  0  0  0  0  2  0  0  0  0  0  0
   39.8170   46.6050   18.5470 O   0  0  0  0  0  0  0  0  0  0  0  0
   39.5640   47.0710   17.2810 C   0  0  0  0  0  0  0  0  0  0  0  0
   40.5540   47.8570   16.6870 C   0  0  0  0  0  3  0  0  0  0  0  0
   40.3500   48.3820   15.4050 C   0  0  0  0  0  0  0  0  0  0  0  0
   39.1340   48.1350   14.7470 C   0  0  0  0  0  3  0  0  0  0  0  0
   38.1370   47.3650   15.3530 C   0  0  0  0  0  3  0  0  0  0  0  0
   38.3550   46.8290   16.6200 C   0  0  0  0  0  0  0  0  0  0  0  0
   31.8320   42.8660   17.4130 C   0  0  0  0  0  0  0  0  0  0  0  0
   32.7390   43.0750   16.3510 C   0  0  0  0  0  3  0  0  0  0  0  0
   33.9760   43.7130   16.5310 C   0  0  0  0  0  3  0  0  0  0  0  0
   34.3750   44.1970   17.7810 C   0  0  0  0  0  0  0  0  0  0  0  0
   33.4760   44.0590   18.8340 C   0  0  0  0  0  3  0  0  0  0  0  0
   32.2450   43.4040   18.6520 C   0  0  0  0  0  3  0  0  0  0  0  0
   27.3260   42.4580   15.8370 C   0  0  0  0  0  1  0  0  0  0  0  0
   28.7440   42.9230   16.1390 C   0  0  1  0  0  0  0  0  0  0  0  0
   29.1150   42.8310   17.6410 C   0  0  0  0  0  2  0  0  0  0  0  0
   30.4290   42.0880   17.2600 C   0  0  1  0  0  0  0  0  0  0  0  0
   29.8520   41.8850   15.8310 C   0  0  0  0  0  2  0  0  0  0  0  0
   30.4980   40.7940   17.9900 N   0  0  0  0  0  4  0  0  0  0  0  0
   31.1770   40.1580   17.5550 H   0  0  0  0  0  0  0  0  0  0  0  0
   30.7920   40.9430   18.9650 H   0  0  0  0  0  0  0  0  0  0  0  0
   29.5980   40.3010   18.0170 H   0  0  0  0  0  0  0  0  0  0  0  0
   28.9590   44.2230   15.5630 O   0  0  0  0  0  0  0  0  0  0  0  0
   28.6770   44.1720   14.6300 H   0  0  0  0  0  0  0  0  0  0  0  0
   36.7840   43.6660   19.9900 C   0  0  0  0  0  0  0  0  0  0  0  0
   36.2320   42.3830   19.9150 C   0  0  0  0  0  3  0  0  0  0  0  0
   36.3270   41.5150   21.0040 C   0  0  0  0  0  3  0  0  0  0  0  0
   36.9710   41.9250   22.1710 C   0  0  0  0  0  3  0  0  0  0  0  0
   37.5240   43.2030   22.2510 C   0  0  0  0  0  3  0  0  0  0  0  0
   37.4310   44.0730   21.1640 C   0  0  0  0  0  3  0  0  0  0  0  0
   41.3670   49.2040   14.6870 C   0  0  0  0  0  0  0  0  0  0  0  0
   41.5930   50.4860   15.1030 N   0  0  0  0  0  0  0  0  0  0  0  0
   42.0060   48.7440   13.7480 O   0  0  0  0  0  0  0  0  0  0  0  0
   42.2930   51.0090   14.5930 H   0  0  0  0  0  0  0  0  0  0  0  0
   41.1410   50.9420   15.8790 H   0  0  0  0  0  0  0  0  0  0  0  0
  1  5  2  0  0  0  0
  2  3  2  0  0  0  0
  2  1  1  0  0  0  0
  3  4  1  0  0  0  0
  4  5  1  0  0  0  0
  4  6  1  0  0  0  0
  5 31  1  0  0  0  0
  7  6  1  0  0  0  0
  8  7  1  0  0  0  0
  9  8  1  0  0  0  0
 10  9  2  0  0  0  0
 11 12  2  0  0  0  0
 11 10  1  0  0  0  0
 12 13  1  0  0  0  0
 13  8  2  0  0  0  0
 13  3  1  0  0  0  0
 14 19  1  0  0  0  0
 15 16  1  0  0  0  0
 15 14  2  0  0  0  0
 16 17  2  0  0  0  0
 17  1  1  0  0  0  0
 17 18  1  0  0  0  0
 19 18  2  0  0  0  0
 21 20  1  6  0  0  0
 21 22  1  0  0  0  0
 23 14  1  0  0  0  0
 23 22  1  0  0  0  0
 23 25  1  1  0  0  0
 24 21  1  0  0  0  0
 24 23  1  0  0  0  0
 25 28  1  0  0  0  0
 25 27  1  0  0  0  0
 26 25  1  0  0  0  0
 29 21  1  0  0  0  0
 30 29  1  0  0  0  0
 31 36  1  0  0  0  0
 32 31  2  0  0  0  0
 32 33  1  0  0  0  0
 33 34  2  0  0  0  0
 34 35  1  0  0  0  0
 36 35  2  0  0  0  0
 37 38  1  0  0  0  0
 37 10  1  0  0  0  0
 38 41  1  0  0  0  0
 39 37  2  0  0  0  0
 40 38  1  0  0  0  0
M  END
>  <minimizedAffinity>
-11.4197817

$$$$
