
 OpenBabel11232419253D

 41 46  0  0  1  0  0  0  0  0999 V2000
   36.3480   44.2640   18.0300 C   0  0  0  0  0  0  0  0  0  0  0  0
   36.8640   44.0570   19.2980 N   0  0  0  0  0  0  0  0  0  0  0  0
   38.0300   44.6610   19.3150 C   0  0  0  0  0  0  0  0  0  0  0  0
   38.3050   45.2210   18.1010 N   0  0  0  0  0  0  0  0  0  0  0  0
   37.2330   45.0150   17.2600 C   0  0  0  0  0  0  0  0  0  0  0  0
   39.4650   46.0690   17.8980 C   0  0  0  0  0  2  0  0  0  0  0  0
   40.5420   45.8130   18.8250 O   0  0  0  0  0  0  0  0  0  0  0  0
   40.1930   45.4450   20.1000 C   0  0  0  0  0  0  0  0  0  0  0  0
   41.1480   45.6460   21.1000 C   0  0  0  0  0  3  0  0  0  0  0  0
   40.8640   45.2730   22.4190 C   0  0  0  0  0  0  0  0  0  0  0  0
   39.6300   44.6680   22.7120 C   0  0  0  0  0  3  0  0  0  0  0  0
   38.6860   44.4490   21.7050 C   0  0  0  0  0  3  0  0  0  0  0  0
   38.9660   44.8420   20.3990 C   0  0  0  0  0  0  0  0  0  0  0  0
   32.3200   42.8440   17.1850 C   0  0  0  0  0  0  0  0  0  0  0  0
   33.1070   42.3630   18.2560 C   0  0  0  0  0  3  0  0  0  0  0  0
   34.4060   42.8290   18.5050 C   0  0  0  0  0  3  0  0  0  0  0  0
   35.0070   43.7920   17.6900 C   0  0  0  0  0  0  0  0  0  0  0  0
   34.2790   44.2420   16.5930 C   0  0  0  0  0  3  0  0  0  0  0  0
   32.9710   43.7840   16.3570 C   0  0  0  0  0  3  0  0  0  0  0  0
   27.7410   43.6730   16.0470 C   0  0  0  0  0  1  0  0  0  0  0  0
   29.2280   43.7930   16.3520 C   0  0  1  0  0  0  0  0  0  0  0  0
   29.6470   43.0830   17.6640 C   0  0  0  0  0  2  0  0  0  0  0  0
   30.8050   42.3770   16.8990 C   0  0  1  0  0  0  0  0  0  0  0  0
   30.1390   42.8180   15.5660 C   0  0  0  0  0  2  0  0  0  0  0  0
   30.6970   40.9050   17.0820 N   0  0  0  0  0  4  0  0  0  0  0  0
   31.2440   40.4010   16.3730 H   0  0  0  0  0  0  0  0  0  0  0  0
   31.0550   40.6270   18.0060 H   0  0  0  0  0  0  0  0  0  0  0  0
   29.7310   40.5630   17.0160 H   0  0  0  0  0  0  0  0  0  0  0  0
   29.6240   45.1750   16.2840 O   0  0  0  0  0  0  0  0  0  0  0  0
   29.2950   45.5240   15.4340 H   0  0  0  0  0  0  0  0  0  0  0  0
   37.1470   45.6110   15.9350 C   0  0  0  0  0  0  0  0  0  0  0  0
   36.9530   46.9890   15.7880 C   0  0  0  0  0  3  0  0  0  0  0  0
   36.8620   47.5520   14.5140 C   0  0  0  0  0  3  0  0  0  0  0  0
   36.9640   46.7420   13.3830 C   0  0  0  0  0  3  0  0  0  0  0  0
   37.1580   45.3680   13.5230 C   0  0  0  0  0  3  0  0  0  0  0  0
   37.2490   44.8020   14.7960 C   0  0  0  0  0  3  0  0  0  0  0  0
   41.8140   45.4820   23.5510 C   0  0  0  0  0  0  0  0  0  0  0  0
   42.2210   46.7530   23.8430 N   0  0  0  0  0  0  0  0  0  0  0  0
   42.2180   44.5400   24.2220 O   0  0  0  0  0  0  0  0  0  0  0  0
   42.8620   46.8540   24.6200 H   0  0  0  0  0  0  0  0  0  0  0  0
   41.9250   47.5910   23.3690 H   0  0  0  0  0  0  0  0  0  0  0  0
  1  2  1  0  0  0  0
  2  3  2  0  0  0  0
  3 13  1  0  0  0  0
  4  3  1  0  0  0  0
  5  1  2  0  0  0  0
  5  4  1  0  0  0  0
  6  4  1  0  0  0  0
  6  7  1  0  0  0  0
  7  8  1  0  0  0  0
  8 13  2  0  0  0  0
  8  9  1  0  0  0  0
  9 10  2  0  0  0  0
 10 11  1  0  0  0  0
 10 37  1  0  0  0  0
 12 11  2  0  0  0  0
 13 12  1  0  0  0  0
 14 15  1  0  0  0  0
 15 16  2  0  0  0  0
 17  1  1  0  0  0  0
 17 16  1  0  0  0  0
 18 17  2  0  0  0  0
 19 18  1  0  0  0  0
 19 14  2  0  0  0  0
 21 20  1  6  0  0  0
 21 22  1  0  0  0  0
 23 25  1  1  0  0  0
 23 14  1  0  0  0  0
 23 22  1  0  0  0  0
 24 21  1  0  0  0  0
 24 23  1  0  0  0  0
 25 27  1  0  0  0  0
 26 25  1  0  0  0  0
 28 25  1  0  0  0  0
 29 21  1  0  0  0  0
 30 29  1  0  0  0  0
 31  5  1  0  0  0  0
 32 31  1  0  0  0  0
 33 32  2  0  0  0  0
 34 35  2  0  0  0  0
 34 33  1  0  0  0  0
 35 36  1  0  0  0  0
 36 31  2  0  0  0  0
 37 38  1  0  0  0  0
 37 39  2  0  0  0  0
 38 40  1  0  0  0  0
 41 38  1  0  0  0  0
M  END
>  <minimizedAffinity>
-11.5692863

$$$$
