
 OpenBabel11232420043D

 41 46  0  0  1  0  0  0  0  0999 V2000
   -5.6210   -0.9660  -19.7360 C   0  0  0  0  0  0  0  0  0  0  0  0
   -6.2470   -2.1740  -19.4750 N   0  0  0  0  0  0  0  0  0  0  0  0
   -6.6660   -2.6210  -20.6340 C   0  0  0  0  0  0  0  0  0  0  0  0
   -6.3780   -1.7340  -21.6300 N   0  0  0  0  0  0  0  0  0  0  0  0
   -5.6590   -0.6850  -21.1000 C   0  0  0  0  0  0  0  0  0  0  0  0
   -6.6390   -2.0470  -23.0230 C   0  0  0  0  0  2  0  0  0  0  0  0
   -7.7070   -3.0050  -23.2060 O   0  0  0  0  0  0  0  0  0  0  0  0
   -7.7940   -4.0100  -22.2760 C   0  0  0  0  0  0  0  0  0  0  0  0
   -8.4500   -5.1770  -22.6560 C   0  0  0  0  0  3  0  0  0  0  0  0
   -8.5790   -6.2320  -21.7450 C   0  0  0  0  0  3  0  0  0  0  0  0
   -8.0610   -6.1100  -20.4460 C   0  0  0  0  0  0  0  0  0  0  0  0
   -7.4450   -4.9130  -20.0560 C   0  0  0  0  0  3  0  0  0  0  0  0
   -7.3100   -3.8680  -20.9710 C   0  0  0  0  0  0  0  0  0  0  0  0
   -3.7230    1.1240  -16.4200 C   0  0  0  0  0  0  0  0  0  0  0  0
   -4.4250   -0.0920  -16.2750 C   0  0  0  0  0  3  0  0  0  0  0  0
   -5.0320   -0.7460  -17.3580 C   0  0  0  0  0  3  0  0  0  0  0  0
   -4.9850   -0.2200  -18.6530 C   0  0  0  0  0  0  0  0  0  0  0  0
   -4.3360    1.0010  -18.8200 C   0  0  0  0  0  3  0  0  0  0  0  0
   -3.7180    1.6440  -17.7330 C   0  0  0  0  0  3  0  0  0  0  0  0
    0.1090    2.2190  -13.7570 C   0  0  0  0  0  1  0  0  0  0  0  0
   -0.8380    1.6560  -14.8070 C   0  0  1  0  0  0  0  0  0  0  0  0
   -2.1340    1.0500  -14.2090 C   0  0  0  0  0  2  0  0  0  0  0  0
   -2.9780    1.8870  -15.2120 C   0  0  1  0  0  0  0  0  0  0  0  0
   -1.7030    2.7130  -15.5390 C   0  0  0  0  0  2  0  0  0  0  0  0
   -3.9630    2.7170  -14.4670 N   0  0  0  0  0  4  0  0  0  0  0  0
   -4.3380    3.4690  -15.0590 H   0  0  0  0  0  0  0  0  0  0  0  0
   -4.7580    2.1430  -14.1530 H   0  0  0  0  0  0  0  0  0  0  0  0
   -3.5630    3.1620  -13.6330 H   0  0  0  0  0  0  0  0  0  0  0  0
   -0.1210    0.7600  -15.6740 O   0  0  0  0  0  0  0  0  0  0  0  0
    0.6760    1.2340  -15.9770 H   0  0  0  0  0  0  0  0  0  0  0  0
   -5.0480    0.3460  -21.9260 C   0  0  0  0  0  0  0  0  0  0  0  0
   -4.5630    0.0390  -23.2030 C   0  0  0  0  0  3  0  0  0  0  0  0
   -3.9650    1.0320  -23.9810 C   0  0  0  0  0  3  0  0  0  0  0  0
   -3.8480    2.3310  -23.4870 C   0  0  0  0  0  3  0  0  0  0  0  0
   -4.3300    2.6420  -22.2170 C   0  0  0  0  0  3  0  0  0  0  0  0
   -4.9280    1.6520  -21.4370 C   0  0  0  0  0  3  0  0  0  0  0  0
   -8.1490   -7.2060  -19.4440 C   0  0  0  0  0  0  0  0  0  0  0  0
   -6.9940   -7.6110  -18.8400 N   0  0  0  0  0  0  0  0  0  0  0  0
   -9.2240   -7.7070  -19.1380 O   0  0  0  0  0  0  0  0  0  0  0  0
   -7.0700   -8.3490  -18.1500 H   0  0  0  0  0  0  0  0  0  0  0  0
   -6.0920   -7.1800  -18.9730 H   0  0  0  0  0  0  0  0  0  0  0  0
  1  2  1  0  0  0  0
  1 17  1  0  0  0  0
  3  2  2  0  0  0  0
  4  5  1  0  0  0  0
  4  3  1  0  0  0  0
  5  1  2  0  0  0  0
  6  4  1  0  0  0  0
  7  6  1  0  0  0  0
  7  8  1  0  0  0  0
  8 13  1  0  0  0  0
  9  8  2  0  0  0  0
  9 10  1  0  0  0  0
 10 11  2  0  0  0  0
 11 12  1  0  0  0  0
 11 37  1  0  0  0  0
 13  3  1  0  0  0  0
 13 12  2  0  0  0  0
 14 15  1  0  0  0  0
 14 23  1  0  0  0  0
 16 15  2  0  0  0  0
 17 16  1  0  0  0  0
 18 17  2  0  0  0  0
 18 19  1  0  0  0  0
 19 14  2  0  0  0  0
 21 22  1  0  0  0  0
 21 20  1  1  0  0  0
 23 25  1  1  0  0  0
 23 22  1  0  0  0  0
 24 23  1  0  0  0  0
 24 21  1  0  0  0  0
 25 27  1  0  0  0  0
 25 28  1  0  0  0  0
 26 25  1  0  0  0  0
 29 21  1  0  0  0  0
 30 29  1  0  0  0  0
 31 36  1  0  0  0  0
 31  5  1  0  0  0  0
 32 31  2  0  0  0  0
 33 34  2  0  0  0  0
 33 32  1  0  0  0  0
 34 35  1  0  0  0  0
 35 36  2  0  0  0  0
 37 39  2  0  0  0  0
 37 38  1  0  0  0  0
 38 40  1  0  0  0  0
 41 38  1  0  0  0  0
M  END
>  <minimizedAffinity>
30.3839722

$$$$
