
 OpenBabel10152419493D

 38 41  0  0  0  0  0  0  0  0999 V2000
   -1.5370   -9.4050  -22.5640 C   0  0  0  0  0  0  0  0  0  0  0  0
   -1.6330   -8.4340  -21.5670 C   0  0  0  0  0  3  0  0  0  0  0  0
   -1.6070   -7.0850  -21.9070 C   0  0  0  0  0  3  0  0  0  0  0  0
   -1.5210   -6.7080  -23.2450 C   0  0  0  0  0  3  0  0  0  0  0  0
   -1.5370   -7.6640  -24.2740 C   0  0  0  0  0  0  0  0  0  0  0  0
   -1.5520   -9.0190  -23.9110 C   0  0  0  0  0  3  0  0  0  0  0  0
   -0.8850  -11.8310  -22.8010 C   0  0  0  0  0  0  0  0  0  0  0  0
   -0.9880  -12.9590  -22.3270 O   0  0  0  0  0  0  0  0  0  0  0  0
   -1.4130  -10.7410  -22.1430 N   0  0  0  0  0  0  0  0  0  0  0  0
   -1.6470  -10.9510  -21.1790 H   0  0  0  0  0  0  0  0  0  0  0  0
    1.4470  -11.4510  -26.3520 C   0  0  0  0  0  0  0  0  0  0  0  0
    0.0570  -11.3870  -26.4240 C   0  0  0  0  0  3  0  0  0  0  0  0
   -0.7000  -11.4730  -25.2560 C   0  0  0  0  0  0  0  0  0  0  0  0
   -2.0350  -11.4060  -25.3590 F   0  0  0  0  0  0  0  0  0  0  0  0
   -0.0860  -11.6460  -24.0180 C   0  0  0  0  0  0  0  0  0  0  0  0
    1.3010  -11.6520  -23.9430 C   0  0  0  0  0  0  0  0  0  0  0  0
    1.9270  -11.8220  -22.7710 F   0  0  0  0  0  0  0  0  0  0  0  0
    2.0670  -11.5550  -25.1030 C   0  0  0  0  0  3  0  0  0  0  0  0
    3.5920  -11.9840  -27.2170 C   0  0  0  0  0  1  0  0  0  0  0  0
    2.3030  -11.4120  -27.4160 O   0  0  0  0  0  0  0  0  0  0  0  0
   -1.4940   -7.2510  -25.7380 C   0  0  0  0  0  2  0  0  0  0  0  0
   -0.9220   -5.9280  -25.9090 N   0  0  0  0  0  0  0  0  0  0  0  0
   -1.1850   -5.1950  -25.2720 H   0  0  0  0  0  0  0  0  0  0  0  0
    0.1730   -5.7750  -26.7480 C   0  0  0  0  0  0  0  0  0  0  0  0
   -0.0050   -5.0000  -27.8320 N   0  0  0  0  0  0  0  0  0  0  0  0
    0.9140   -5.0850  -28.7910 C   0  0  0  0  0  3  0  0  0  0  0  0
    1.9420   -5.9330  -28.8060 N   0  0  0  0  0  0  0  0  0  0  0  0
    2.1460   -6.6850  -27.7070 C   0  0  0  0  0  0  0  0  0  0  0  0
    3.1800   -7.6260  -27.6490 C   0  0  0  0  0  0  0  0  0  0  0  0
    3.4790   -8.3620  -26.4940 C   0  0  0  0  0  3  0  0  0  0  0  0
    2.6890   -8.2130  -25.3670 C   0  0  0  0  0  3  0  0  0  0  0  0
    1.5930   -7.3570  -25.4220 C   0  0  0  0  0  3  0  0  0  0  0  0
    1.3080   -6.5920  -26.5860 C   0  0  0  0  0  0  0  0  0  0  0  0
    3.9460   -7.9750  -28.8600 C   0  0  0  0  0  0  0  0  0  0  0  0
    4.5560   -6.9250  -29.4890 N   0  0  0  0  0  0  0  0  0  0  0  0
    3.9320   -9.1040  -29.3280 O   0  0  0  0  0  0  0  0  0  0  0  0
    5.0580   -7.1050  -30.3470 H   0  0  0  0  0  0  0  0  0  0  0  0
    4.5480   -5.9860  -29.1150 H   0  0  0  0  0  0  0  0  0  0  0  0
  1  9  1  0  0  0  0
  1  2  1  0  0  0  0
  3  2  2  0  0  0  0
  4  3  1  0  0  0  0
  5  6  1  0  0  0  0
  5  4  2  0  0  0  0
  6  1  2  0  0  0  0
  7  8  2  0  0  0  0
  7  9  1  0  0  0  0
  9 10  1  0  0  0  0
 11 18  1  0  0  0  0
 12 11  2  0  0  0  0
 12 13  1  0  0  0  0
 13 15  2  0  0  0  0
 14 13  1  0  0  0  0
 15 16  1  0  0  0  0
 15  7  1  0  0  0  0
 16 17  1  0  0  0  0
 18 16  2  0  0  0  0
 20 19  1  0  0  0  0
 20 11  1  0  0  0  0
 21  5  1  0  0  0  0
 22 21  1  0  0  0  0
 22 23  1  0  0  0  0
 24 33  1  0  0  0  0
 24 22  1  0  0  0  0
 25 24  2  0  0  0  0
 26 25  1  0  0  0  0
 27 26  2  0  0  0  0
 27 28  1  0  0  0  0
 28 29  2  0  0  0  0
 28 33  1  0  0  0  0
 29 30  1  0  0  0  0
 30 31  2  0  0  0  0
 32 31  1  0  0  0  0
 33 32  2  0  0  0  0
 34 29  1  0  0  0  0
 35 38  1  0  0  0  0
 35 34  1  0  0  0  0
 36 34  2  0  0  0  0
 37 35  1  0  0  0  0
M  END
>  <minimizedAffinity>
-9.19839001

$$$$
