
 OpenBabel10152419493D

 38 41  0  0  0  0  0  0  0  0999 V2000
    1.8770   -6.4950  -28.2780 C   0  0  0  0  0  0  0  0  0  0  0  0
    1.4060   -5.2270  -27.9360 C   0  0  0  0  0  3  0  0  0  0  0  0
    0.4630   -5.0860  -26.9230 C   0  0  0  0  0  3  0  0  0  0  0  0
    0.0170   -6.2090  -26.2290 C   0  0  0  0  0  3  0  0  0  0  0  0
    0.5570   -7.4810  -26.4770 C   0  0  0  0  0  0  0  0  0  0  0  0
    1.4990   -7.6050  -27.5100 C   0  0  0  0  0  3  0  0  0  0  0  0
    3.8000   -7.3920  -29.6430 C   0  0  0  0  0  0  0  0  0  0  0  0
    4.4940   -7.2320  -30.6440 O   0  0  0  0  0  0  0  0  0  0  0  0
    2.7080   -6.5840  -29.4090 N   0  0  0  0  0  0  0  0  0  0  0  0
    2.4340   -6.0600  -30.2330 H   0  0  0  0  0  0  0  0  0  0  0  0
    4.4670  -10.6960  -27.0290 C   0  0  0  0  0  0  0  0  0  0  0  0
    4.0750  -10.9220  -28.3480 C   0  0  0  0  0  3  0  0  0  0  0  0
    3.8960   -9.8400  -29.2090 C   0  0  0  0  0  0  0  0  0  0  0  0
    3.5200  -10.0900  -30.4720 F   0  0  0  0  0  0  0  0  0  0  0  0
    4.0800   -8.5330  -28.7640 C   0  0  0  0  0  0  0  0  0  0  0  0
    4.5260   -8.3150  -27.4670 C   0  0  0  0  0  0  0  0  0  0  0  0
    4.7100   -7.0720  -27.0020 F   0  0  0  0  0  0  0  0  0  0  0  0
    4.7210   -9.3890  -26.6010 C   0  0  0  0  0  3  0  0  0  0  0  0
    3.4680  -12.2720  -25.5620 C   0  0  0  0  0  1  0  0  0  0  0  0
    4.6460  -11.6570  -26.0760 O   0  0  0  0  0  0  0  0  0  0  0  0
    0.1070   -8.7000  -25.6840 C   0  0  0  0  0  2  0  0  0  0  0  0
    0.1260   -8.4500  -24.2540 N   0  0  0  0  0  0  0  0  0  0  0  0
    0.6970   -7.7020  -23.8950 H   0  0  0  0  0  0  0  0  0  0  0  0
   -0.8440   -9.0410  -23.4580 C   0  0  0  0  0  0  0  0  0  0  0  0
   -1.7660   -8.2200  -22.9260 N   0  0  0  0  0  0  0  0  0  0  0  0
   -2.5070   -8.7080  -21.9330 C   0  0  0  0  0  3  0  0  0  0  0  0
   -2.3530   -9.9050  -21.3680 N   0  0  0  0  0  0  0  0  0  0  0  0
   -1.4560  -10.7450  -21.9210 C   0  0  0  0  0  0  0  0  0  0  0  0
   -1.2050  -12.0080  -21.3720 C   0  0  0  0  0  0  0  0  0  0  0  0
   -0.3470  -12.9430  -21.9680 C   0  0  0  0  0  3  0  0  0  0  0  0
    0.3410  -12.6000  -23.1190 C   0  0  0  0  0  3  0  0  0  0  0  0
    0.1890  -11.3170  -23.6380 C   0  0  0  0  0  3  0  0  0  0  0  0
   -0.7020  -10.3800  -23.0450 C   0  0  0  0  0  0  0  0  0  0  0  0
   -1.7550  -12.3760  -20.0540 C   0  0  0  0  0  0  0  0  0  0  0  0
   -3.1010  -12.6180  -20.0290 N   0  0  0  0  0  0  0  0  0  0  0  0
   -1.0720  -12.3480  -19.0400 O   0  0  0  0  0  0  0  0  0  0  0  0
   -3.5340  -12.8330  -19.1410 H   0  0  0  0  0  0  0  0  0  0  0  0
   -3.6710  -12.6180  -20.8640 H   0  0  0  0  0  0  0  0  0  0  0  0
  1  2  2  0  0  0  0
  1  6  1  0  0  0  0
  2  3  1  0  0  0  0
  3  4  2  0  0  0  0
  5  4  1  0  0  0  0
  5 21  1  0  0  0  0
  6  5  2  0  0  0  0
  7  9  1  0  0  0  0
  7 15  1  0  0  0  0
  8  7  2  0  0  0  0
  9  1  1  0  0  0  0
 10  9  1  0  0  0  0
 11 18  1  0  0  0  0
 11 20  1  0  0  0  0
 12 11  2  0  0  0  0
 13 15  2  0  0  0  0
 13 12  1  0  0  0  0
 14 13  1  0  0  0  0
 15 16  1  0  0  0  0
 16 17  1  0  0  0  0
 16 18  2  0  0  0  0
 20 19  1  0  0  0  0
 21 22  1  0  0  0  0
 22 23  1  0  0  0  0
 22 24  1  0  0  0  0
 24 33  2  0  0  0  0
 24 25  1  0  0  0  0
 25 26  2  0  0  0  0
 26 27  1  0  0  0  0
 28 29  1  0  0  0  0
 28 27  2  0  0  0  0
 29 34  1  0  0  0  0
 30 29  2  0  0  0  0
 31 30  1  0  0  0  0
 32 31  2  0  0  0  0
 32 33  1  0  0  0  0
 33 28  1  0  0  0  0
 34 35  1  0  0  0  0
 34 36  2  0  0  0  0
 35 37  1  0  0  0  0
 38 35  1  0  0  0  0
M  END
>  <minimizedAffinity>
-10.2259302

$$$$

 OpenBabel10152419493D

 38 41  0  0  0  0  0  0  0  0999 V2000
    1.8250   -6.3210  -28.5300 C   0  0  0  0  0  0  0  0  0  0  0  0
    1.6620   -5.0390  -28.0050 C   0  0  0  0  0  3  0  0  0  0  0  0
    0.6510   -4.7890  -27.0820 C   0  0  0  0  0  3  0  0  0  0  0  0
   -0.1730   -5.8290  -26.6580 C   0  0  0  0  0  3  0  0  0  0  0  0
    0.0410   -7.1500  -27.0850 C   0  0  0  0  0  0  0  0  0  0  0  0
    1.0580   -7.3790  -28.0250 C   0  0  0  0  0  3  0  0  0  0  0  0
    3.8510   -7.3080  -29.6650 C   0  0  0  0  0  0  0  0  0  0  0  0
    4.6430   -7.2020  -30.5980 O   0  0  0  0  0  0  0  0  0  0  0  0
    2.7610   -6.4700  -29.5700 N   0  0  0  0  0  0  0  0  0  0  0  0
    2.5810   -5.9740  -30.4350 H   0  0  0  0  0  0  0  0  0  0  0  0
    4.4820  -10.5530  -26.9690 C   0  0  0  0  0  0  0  0  0  0  0  0
    4.6320   -9.2410  -26.5240 C   0  0  0  0  0  3  0  0  0  0  0  0
    4.3860   -8.1830  -27.3980 C   0  0  0  0  0  0  0  0  0  0  0  0
    4.5370   -6.9320  -26.9380 F   0  0  0  0  0  0  0  0  0  0  0  0
    4.0170   -8.4190  -28.7200 C   0  0  0  0  0  0  0  0  0  0  0  0
    3.8140   -9.7250  -29.1440 C   0  0  0  0  0  0  0  0  0  0  0  0
    3.4630   -9.9920  -30.4100 F   0  0  0  0  0  0  0  0  0  0  0  0
    4.0440  -10.7900  -28.2760 C   0  0  0  0  0  3  0  0  0  0  0  0
    3.5870  -12.3010  -25.6360 C   0  0  0  0  0  1  0  0  0  0  0  0
    4.7210  -11.6780  -26.2310 O   0  0  0  0  0  0  0  0  0  0  0  0
   -0.8270   -8.2940  -26.5840 C   0  0  0  0  0  2  0  0  0  0  0  0
   -1.1140   -8.1720  -25.1650 N   0  0  0  0  0  0  0  0  0  0  0  0
   -1.7370   -7.4460  -24.8530 H   0  0  0  0  0  0  0  0  0  0  0  0
   -0.7660   -9.2150  -24.3190 C   0  0  0  0  0  0  0  0  0  0  0  0
   -0.2920  -10.3290  -24.9040 N   0  0  0  0  0  0  0  0  0  0  0  0
   -0.2420  -11.4280  -24.1540 C   0  0  0  0  0  3  0  0  0  0  0  0
   -0.7020  -11.5380  -22.9080 N   0  0  0  0  0  0  0  0  0  0  0  0
   -1.1430  -10.4160  -22.3050 C   0  0  0  0  0  0  0  0  0  0  0  0
   -1.6740  -10.4440  -21.0110 C   0  0  0  0  0  0  0  0  0  0  0  0
   -2.0590   -9.2880  -20.3180 C   0  0  0  0  0  3  0  0  0  0  0  0
   -1.9780   -8.0580  -20.9470 C   0  0  0  0  0  3  0  0  0  0  0  0
   -1.5460   -8.0040  -22.2690 C   0  0  0  0  0  3  0  0  0  0  0  0
   -1.1310   -9.1760  -22.9600 C   0  0  0  0  0  0  0  0  0  0  0  0
   -1.9640  -11.7290  -20.3470 C   0  0  0  0  0  0  0  0  0  0  0  0
   -0.8740  -12.3890  -19.8490 N   0  0  0  0  0  0  0  0  0  0  0  0
   -3.0840  -12.2180  -20.3510 O   0  0  0  0  0  0  0  0  0  0  0  0
   -1.0140  -13.2940  -19.4210 H   0  0  0  0  0  0  0  0  0  0  0  0
    0.0570  -11.9950  -19.8660 H   0  0  0  0  0  0  0  0  0  0  0  0
  1  6  2  0  0  0  0
  1  2  1  0  0  0  0
  2  3  2  0  0  0  0
  3  4  1  0  0  0  0
  5  4  2  0  0  0  0
  5 21  1  0  0  0  0
  6  5  1  0  0  0  0
  7  9  1  0  0  0  0
  7 15  1  0  0  0  0
  8  7  2  0  0  0  0
  9  1  1  0  0  0  0
 10  9  1  0  0  0  0
 11 12  1  0  0  0  0
 11 20  1  0  0  0  0
 13 14  1  0  0  0  0
 13 12  2  0  0  0  0
 15 13  1  0  0  0  0
 16 15  2  0  0  0  0
 16 18  1  0  0  0  0
 17 16  1  0  0  0  0
 18 11  2  0  0  0  0
 20 19  1  0  0  0  0
 21 22  1  0  0  0  0
 22 23  1  0  0  0  0
 22 24  1  0  0  0  0
 24 33  1  0  0  0  0
 25 24  2  0  0  0  0
 25 26  1  0  0  0  0
 26 27  2  0  0  0  0
 27 28  1  0  0  0  0
 28 29  1  0  0  0  0
 29 34  1  0  0  0  0
 29 30  2  0  0  0  0
 31 30  1  0  0  0  0
 32 31  2  0  0  0  0
 33 28  2  0  0  0  0
 33 32  1  0  0  0  0
 34 35  1  0  0  0  0
 35 37  1  0  0  0  0
 36 34  2  0  0  0  0
 38 35  1  0  0  0  0
M  END
>  <minimizedAffinity>
-9.36532211

$$$$

 OpenBabel10152419493D

 38 41  0  0  0  0  0  0  0  0999 V2000
   -1.5370   -9.4050  -22.5640 C   0  0  0  0  0  0  0  0  0  0  0  0
   -1.6330   -8.4340  -21.5670 C   0  0  0  0  0  3  0  0  0  0  0  0
   -1.6070   -7.0850  -21.9070 C   0  0  0  0  0  3  0  0  0  0  0  0
   -1.5210   -6.7080  -23.2450 C   0  0  0  0  0  3  0  0  0  0  0  0
   -1.5370   -7.6640  -24.2740 C   0  0  0  0  0  0  0  0  0  0  0  0
   -1.5520   -9.0190  -23.9110 C   0  0  0  0  0  3  0  0  0  0  0  0
   -0.8850  -11.8310  -22.8010 C   0  0  0  0  0  0  0  0  0  0  0  0
   -0.9880  -12.9590  -22.3270 O   0  0  0  0  0  0  0  0  0  0  0  0
   -1.4130  -10.7410  -22.1430 N   0  0  0  0  0  0  0  0  0  0  0  0
   -1.6470  -10.9510  -21.1790 H   0  0  0  0  0  0  0  0  0  0  0  0
    1.4470  -11.4510  -26.3520 C   0  0  0  0  0  0  0  0  0  0  0  0
    0.0570  -11.3870  -26.4240 C   0  0  0  0  0  3  0  0  0  0  0  0
   -0.7000  -11.4730  -25.2560 C   0  0  0  0  0  0  0  0  0  0  0  0
   -2.0350  -11.4060  -25.3590 F   0  0  0  0  0  0  0  0  0  0  0  0
   -0.0860  -11.6460  -24.0180 C   0  0  0  0  0  0  0  0  0  0  0  0
    1.3010  -11.6520  -23.9430 C   0  0  0  0  0  0  0  0  0  0  0  0
    1.9270  -11.8220  -22.7710 F   0  0  0  0  0  0  0  0  0  0  0  0
    2.0670  -11.5550  -25.1030 C   0  0  0  0  0  3  0  0  0  0  0  0
    3.5920  -11.9840  -27.2170 C   0  0  0  0  0  1  0  0  0  0  0  0
    2.3030  -11.4120  -27.4160 O   0  0  0  0  0  0  0  0  0  0  0  0
   -1.4940   -7.2510  -25.7380 C   0  0  0  0  0  2  0  0  0  0  0  0
   -0.9220   -5.9280  -25.9090 N   0  0  0  0  0  0  0  0  0  0  0  0
   -1.1850   -5.1950  -25.2720 H   0  0  0  0  0  0  0  0  0  0  0  0
    0.1730   -5.7750  -26.7480 C   0  0  0  0  0  0  0  0  0  0  0  0
   -0.0050   -5.0000  -27.8320 N   0  0  0  0  0  0  0  0  0  0  0  0
    0.9140   -5.0850  -28.7910 C   0  0  0  0  0  3  0  0  0  0  0  0
    1.9420   -5.9330  -28.8060 N   0  0  0  0  0  0  0  0  0  0  0  0
    2.1460   -6.6850  -27.7070 C   0  0  0  0  0  0  0  0  0  0  0  0
    3.1800   -7.6260  -27.6490 C   0  0  0  0  0  0  0  0  0  0  0  0
    3.4790   -8.3620  -26.4940 C   0  0  0  0  0  3  0  0  0  0  0  0
    2.6890   -8.2130  -25.3670 C   0  0  0  0  0  3  0  0  0  0  0  0
    1.5930   -7.3570  -25.4220 C   0  0  0  0  0  3  0  0  0  0  0  0
    1.3080   -6.5920  -26.5860 C   0  0  0  0  0  0  0  0  0  0  0  0
    3.9460   -7.9750  -28.8600 C   0  0  0  0  0  0  0  0  0  0  0  0
    4.5560   -6.9250  -29.4890 N   0  0  0  0  0  0  0  0  0  0  0  0
    3.9320   -9.1040  -29.3280 O   0  0  0  0  0  0  0  0  0  0  0  0
    5.0580   -7.1050  -30.3470 H   0  0  0  0  0  0  0  0  0  0  0  0
    4.5480   -5.9860  -29.1150 H   0  0  0  0  0  0  0  0  0  0  0  0
  1  9  1  0  0  0  0
  1  2  1  0  0  0  0
  3  2  2  0  0  0  0
  4  3  1  0  0  0  0
  5  6  1  0  0  0  0
  5  4  2  0  0  0  0
  6  1  2  0  0  0  0
  7  8  2  0  0  0  0
  7  9  1  0  0  0  0
  9 10  1  0  0  0  0
 11 18  1  0  0  0  0
 12 11  2  0  0  0  0
 12 13  1  0  0  0  0
 13 15  2  0  0  0  0
 14 13  1  0  0  0  0
 15 16  1  0  0  0  0
 15  7  1  0  0  0  0
 16 17  1  0  0  0  0
 18 16  2  0  0  0  0
 20 19  1  0  0  0  0
 20 11  1  0  0  0  0
 21  5  1  0  0  0  0
 22 21  1  0  0  0  0
 22 23  1  0  0  0  0
 24 33  1  0  0  0  0
 24 22  1  0  0  0  0
 25 24  2  0  0  0  0
 26 25  1  0  0  0  0
 27 26  2  0  0  0  0
 27 28  1  0  0  0  0
 28 29  2  0  0  0  0
 28 33  1  0  0  0  0
 29 30  1  0  0  0  0
 30 31  2  0  0  0  0
 32 31  1  0  0  0  0
 33 32  2  0  0  0  0
 34 29  1  0  0  0  0
 35 38  1  0  0  0  0
 35 34  1  0  0  0  0
 36 34  2  0  0  0  0
 37 35  1  0  0  0  0
M  END
>  <minimizedAffinity>
-9.19839001

$$$$

 OpenBabel10152419493D

 38 41  0  0  0  0  0  0  0  0999 V2000
    1.0840  -11.5960  -25.8940 C   0  0  0  0  0  0  0  0  0  0  0  0
    1.2900  -12.4890  -24.8420 C   0  0  0  0  0  3  0  0  0  0  0  0
    2.5850  -12.8110  -24.4470 C   0  0  0  0  0  3  0  0  0  0  0  0
    3.6720  -12.2140  -25.0810 C   0  0  0  0  0  3  0  0  0  0  0  0
    3.4920  -11.2280  -26.0650 C   0  0  0  0  0  0  0  0  0  0  0  0
    2.1790  -10.9250  -26.4570 C   0  0  0  0  0  3  0  0  0  0  0  0
   -1.3740  -11.0860  -25.6440 C   0  0  0  0  0  0  0  0  0  0  0  0
   -2.4780  -11.1270  -26.1830 O   0  0  0  0  0  0  0  0  0  0  0  0
   -0.2380  -11.4330  -26.3440 N   0  0  0  0  0  0  0  0  0  0  0  0
   -0.4000  -11.4720  -27.3440 H   0  0  0  0  0  0  0  0  0  0  0  0
   -1.2310   -9.5240  -21.6780 C   0  0  0  0  0  0  0  0  0  0  0  0
   -1.0420  -10.8880  -21.8940 C   0  0  0  0  0  3  0  0  0  0  0  0
   -1.0510  -11.3880  -23.1960 C   0  0  0  0  0  0  0  0  0  0  0  0
   -0.8630  -12.7040  -23.3710 F   0  0  0  0  0  0  0  0  0  0  0  0
   -1.2710  -10.5460  -24.2840 C   0  0  0  0  0  0  0  0  0  0  0  0
   -1.4030   -9.1810  -24.0690 C   0  0  0  0  0  0  0  0  0  0  0  0
   -1.6210   -8.3410  -25.0900 F   0  0  0  0  0  0  0  0  0  0  0  0
   -1.3830   -8.6680  -22.7740 C   0  0  0  0  0  3  0  0  0  0  0  0
   -2.3670   -8.0180  -20.2360 C   0  0  0  0  0  1  0  0  0  0  0  0
   -1.2780   -8.9090  -20.4590 O   0  0  0  0  0  0  0  0  0  0  0  0
    4.6780  -10.5380  -26.7210 C   0  0  0  0  0  2  0  0  0  0  0  0
    4.5800   -9.0920  -26.6280 N   0  0  0  0  0  0  0  0  0  0  0  0
    5.2990   -8.5830  -26.1430 H   0  0  0  0  0  0  0  0  0  0  0  0
    3.6730   -8.4290  -27.4430 C   0  0  0  0  0  0  0  0  0  0  0  0
    4.0130   -8.2990  -28.7370 N   0  0  0  0  0  0  0  0  0  0  0  0
    3.3200   -7.4190  -29.4570 C   0  0  0  0  0  3  0  0  0  0  0  0
    2.3830   -6.5980  -28.9830 N   0  0  0  0  0  0  0  0  0  0  0  0
    2.0130   -6.7490  -27.6960 C   0  0  0  0  0  0  0  0  0  0  0  0
    1.0620   -5.9090  -27.1070 C   0  0  0  0  0  0  0  0  0  0  0  0
    0.5870   -6.0900  -25.8010 C   0  0  0  0  0  3  0  0  0  0  0  0
    1.1150   -7.1030  -25.0180 C   0  0  0  0  0  3  0  0  0  0  0  0
    2.1320   -7.8970  -25.5400 C   0  0  0  0  0  3  0  0  0  0  0  0
    2.5930   -7.7270  -26.8750 C   0  0  0  0  0  0  0  0  0  0  0  0
    0.5910   -4.7000  -27.8090 C   0  0  0  0  0  0  0  0  0  0  0  0
    1.5760   -3.8970  -28.3170 N   0  0  0  0  0  0  0  0  0  0  0  0
   -0.5900   -4.3860  -27.8290 O   0  0  0  0  0  0  0  0  0  0  0  0
    1.3060   -3.0360  -28.7710 H   0  0  0  0  0  0  0  0  0  0  0  0
    2.5550   -4.1460  -28.2800 H   0  0  0  0  0  0  0  0  0  0  0  0
  1  2  1  0  0  0  0
  2  3  2  0  0  0  0
  4  3  1  0  0  0  0
  5  4  2  0  0  0  0
  6  5  1  0  0  0  0
  6  1  2  0  0  0  0
  7 15  1  0  0  0  0
  8  7  2  0  0  0  0
  9  1  1  0  0  0  0
  9  7  1  0  0  0  0
 10  9  1  0  0  0  0
 11 20  1  0  0  0  0
 12 11  1  0  0  0  0
 13 12  2  0  0  0  0
 14 13  1  0  0  0  0
 15 16  2  0  0  0  0
 15 13  1  0  0  0  0
 16 18  1  0  0  0  0
 17 16  1  0  0  0  0
 18 11  2  0  0  0  0
 20 19  1  0  0  0  0
 21 22  1  0  0  0  0
 21  5  1  0  0  0  0
 22 23  1  0  0  0  0
 24 33  1  0  0  0  0
 24 22  1  0  0  0  0
 25 24  2  0  0  0  0
 26 27  2  0  0  0  0
 26 25  1  0  0  0  0
 27 28  1  0  0  0  0
 28 29  2  0  0  0  0
 28 33  1  0  0  0  0
 29 30  1  0  0  0  0
 30 31  2  0  0  0  0
 32 31  1  0  0  0  0
 33 32  2  0  0  0  0
 34 29  1  0  0  0  0
 35 38  1  0  0  0  0
 35 34  1  0  0  0  0
 36 34  2  0  0  0  0
 37 35  1  0  0  0  0
M  END
>  <minimizedAffinity>
-8.8454895

$$$$

 OpenBabel10152419493D

 38 41  0  0  0  0  0  0  0  0999 V2000
   -1.2780  -10.3430  -23.4360 C   0  0  0  0  0  0  0  0  0  0  0  0
   -0.8970  -11.0270  -22.2810 C   0  0  0  0  0  3  0  0  0  0  0  0
    0.0310  -12.0610  -22.3590 C   0  0  0  0  0  3  0  0  0  0  0  0
    0.6030  -12.3880  -23.5860 C   0  0  0  0  0  3  0  0  0  0  0  0
    0.3220  -11.6430  -24.7430 C   0  0  0  0  0  0  0  0  0  0  0  0
   -0.6240  -10.6120  -24.6460 C   0  0  0  0  0  3  0  0  0  0  0  0
   -2.3970   -8.0980  -23.7050 C   0  0  0  0  0  0  0  0  0  0  0  0
   -3.3560   -7.3990  -23.3880 O   0  0  0  0  0  0  0  0  0  0  0  0
   -2.3290   -9.4180  -23.3120 N   0  0  0  0  0  0  0  0  0  0  0  0
   -3.2210   -9.7660  -22.9780 H   0  0  0  0  0  0  0  0  0  0  0  0
    0.4340   -6.3810  -26.3930 C   0  0  0  0  0  0  0  0  0  0  0  0
    0.3630   -5.9280  -25.0770 C   0  0  0  0  0  3  0  0  0  0  0  0
   -0.5370   -6.5190  -24.1910 C   0  0  0  0  0  0  0  0  0  0  0  0
   -0.5790   -6.0630  -22.9310 F   0  0  0  0  0  0  0  0  0  0  0  0
   -1.3860   -7.5410  -24.6110 C   0  0  0  0  0  0  0  0  0  0  0  0
   -1.2730   -8.0280  -25.9060 C   0  0  0  0  0  0  0  0  0  0  0  0
   -2.0750   -9.0070  -26.3460 F   0  0  0  0  0  0  0  0  0  0  0  0
   -0.3680   -7.4530  -26.7960 C   0  0  0  0  0  3  0  0  0  0  0  0
    0.8220   -4.6520  -27.9730 C   0  0  0  0  0  1  0  0  0  0  0  0
    1.2430   -5.8710  -27.3690 O   0  0  0  0  0  0  0  0  0  0  0  0
    0.9850  -11.9670  -26.0740 C   0  0  0  0  0  2  0  0  0  0  0  0
    2.4330  -11.8830  -25.9890 N   0  0  0  0  0  0  0  0  0  0  0  0
    2.9640  -12.7250  -25.8420 H   0  0  0  0  0  0  0  0  0  0  0  0
    3.0610  -10.7150  -26.3960 C   0  0  0  0  0  0  0  0  0  0  0  0
    2.9310   -9.6500  -25.5840 N   0  0  0  0  0  0  0  0  0  0  0  0
    3.2570   -8.4630  -26.0910 C   0  0  0  0  0  3  0  0  0  0  0  0
    3.6140   -8.2320  -27.3540 N   0  0  0  0  0  0  0  0  0  0  0  0
    3.7810   -9.2980  -28.1610 C   0  0  0  0  0  0  0  0  0  0  0  0
    4.1210   -9.1460  -29.5100 C   0  0  0  0  0  0  0  0  0  0  0  0
    4.3910  -10.2300  -30.3570 C   0  0  0  0  0  3  0  0  0  0  0  0
    4.2590  -11.5210  -29.8740 C   0  0  0  0  0  3  0  0  0  0  0  0
    3.8280  -11.7090  -28.5640 C   0  0  0  0  0  3  0  0  0  0  0  0
    3.5810  -10.6070  -27.7000 C   0  0  0  0  0  0  0  0  0  0  0  0
    4.1000   -7.8140  -30.1430 C   0  0  0  0  0  0  0  0  0  0  0  0
    3.2400   -6.9120  -29.5790 N   0  0  0  0  0  0  0  0  0  0  0  0
    4.7200   -7.5790  -31.1700 O   0  0  0  0  0  0  0  0  0  0  0  0
    3.1580   -5.9980  -30.0020 H   0  0  0  0  0  0  0  0  0  0  0  0
    2.7080   -7.1140  -28.7430 H   0  0  0  0  0  0  0  0  0  0  0  0
  1  9  1  0  0  0  0
  1  2  1  0  0  0  0
  3  2  2  0  0  0  0
  4  3  1  0  0  0  0
  5  6  1  0  0  0  0
  5  4  2  0  0  0  0
  6  1  2  0  0  0  0
  7  8  2  0  0  0  0
  7  9  1  0  0  0  0
  9 10  1  0  0  0  0
 11 12  1  0  0  0  0
 12 13  2  0  0  0  0
 13 14  1  0  0  0  0
 15 13  1  0  0  0  0
 15  7  1  0  0  0  0
 16 15  2  0  0  0  0
 17 16  1  0  0  0  0
 18 11  2  0  0  0  0
 18 16  1  0  0  0  0
 19 20  1  0  0  0  0
 20 11  1  0  0  0  0
 21 22  1  0  0  0  0
 21  5  1  0  0  0  0
 22 23  1  0  0  0  0
 24 22  1  0  0  0  0
 24 25  1  0  0  0  0
 26 25  2  0  0  0  0
 27 26  1  0  0  0  0
 28 33  1  0  0  0  0
 28 27  2  0  0  0  0
 29 28  1  0  0  0  0
 30 31  1  0  0  0  0
 30 29  2  0  0  0  0
 31 32  2  0  0  0  0
 32 33  1  0  0  0  0
 33 24  2  0  0  0  0
 34 35  1  0  0  0  0
 34 29  1  0  0  0  0
 35 38  1  0  0  0  0
 36 34  2  0  0  0  0
 37 35  1  0  0  0  0
M  END
>  <minimizedAffinity>
-8.66886711

$$$$

 OpenBabel10152419493D

 38 41  0  0  0  0  0  0  0  0999 V2000
    1.9150   -6.2800  -28.7790 C   0  0  0  0  0  0  0  0  0  0  0  0
    1.7130   -4.9680  -28.3490 C   0  0  0  0  0  3  0  0  0  0  0  0
    0.7000   -4.6830  -27.4400 C   0  0  0  0  0  3  0  0  0  0  0  0
   -0.0880   -5.7140  -26.9340 C   0  0  0  0  0  3  0  0  0  0  0  0
    0.1660   -7.0550  -27.2630 C   0  0  0  0  0  0  0  0  0  0  0  0
    1.1850   -7.3220  -28.1910 C   0  0  0  0  0  3  0  0  0  0  0  0
    3.9280   -7.3320  -29.8780 C   0  0  0  0  0  0  0  0  0  0  0  0
    4.7220   -7.2680  -30.8130 O   0  0  0  0  0  0  0  0  0  0  0  0
    2.8490   -6.4760  -29.8120 N   0  0  0  0  0  0  0  0  0  0  0  0
    2.6770   -6.0060  -30.6930 H   0  0  0  0  0  0  0  0  0  0  0  0
    4.2110  -10.4530  -26.9830 C   0  0  0  0  0  0  0  0  0  0  0  0
    3.9080  -10.7600  -28.3080 C   0  0  0  0  0  3  0  0  0  0  0  0
    3.8550   -9.7410  -29.2590 C   0  0  0  0  0  0  0  0  0  0  0  0
    3.5620  -10.0700  -30.5260 F   0  0  0  0  0  0  0  0  0  0  0  0
    4.0770   -8.4140  -28.8970 C   0  0  0  0  0  0  0  0  0  0  0  0
    4.4350   -8.1190  -27.5890 C   0  0  0  0  0  0  0  0  0  0  0  0
    4.6520   -6.8540  -27.2030 F   0  0  0  0  0  0  0  0  0  0  0  0
    4.5030   -9.1300  -26.6340 C   0  0  0  0  0  3  0  0  0  0  0  0
    3.0150  -11.7870  -25.4270 C   0  0  0  0  0  1  0  0  0  0  0  0
    4.2640  -11.3450  -25.9500 O   0  0  0  0  0  0  0  0  0  0  0  0
   -0.6610   -8.1870  -26.6720 C   0  0  0  0  0  2  0  0  0  0  0  0
    0.1450   -9.0720  -25.8500 N   0  0  0  0  0  0  0  0  0  0  0  0
    1.0740   -9.3100  -26.1530 H   0  0  0  0  0  0  0  0  0  0  0  0
   -0.2610   -9.3310  -24.5480 C   0  0  0  0  0  0  0  0  0  0  0  0
   -0.5230  -10.6150  -24.2470 N   0  0  0  0  0  0  0  0  0  0  0  0
   -1.1950  -10.8450  -23.1200 C   0  0  0  0  0  3  0  0  0  0  0  0
   -1.7020   -9.9100  -22.3170 N   0  0  0  0  0  0  0  0  0  0  0  0
   -1.4110   -8.6240  -22.5940 C   0  0  0  0  0  0  0  0  0  0  0  0
   -1.9290   -7.5760  -21.8250 C   0  0  0  0  0  0  0  0  0  0  0  0
   -1.5790   -6.2340  -22.0260 C   0  0  0  0  0  3  0  0  0  0  0  0
   -0.7320   -5.9010  -23.0690 C   0  0  0  0  0  3  0  0  0  0  0  0
   -0.2750   -6.9080  -23.9140 C   0  0  0  0  0  3  0  0  0  0  0  0
   -0.6110   -8.2710  -23.6910 C   0  0  0  0  0  0  0  0  0  0  0  0
   -2.9780   -7.8320  -20.8190 C   0  0  0  0  0  0  0  0  0  0  0  0
   -4.2490   -7.9370  -21.3130 N   0  0  0  0  0  0  0  0  0  0  0  0
   -2.7350   -7.8310  -19.6210 O   0  0  0  0  0  0  0  0  0  0  0  0
   -5.0090   -8.0700  -20.6590 H   0  0  0  0  0  0  0  0  0  0  0  0
   -4.4530   -7.9150  -22.3020 H   0  0  0  0  0  0  0  0  0  0  0  0
  1  2  2  0  0  0  0
  1  6  1  0  0  0  0
  2  3  1  0  0  0  0
  3  4  2  0  0  0  0
  5  4  1  0  0  0  0
  5 21  1  0  0  0  0
  6  5  2  0  0  0  0
  7  9  1  0  0  0  0
  7 15  1  0  0  0  0
  8  7  2  0  0  0  0
  9  1  1  0  0  0  0
 10  9  1  0  0  0  0
 11 18  1  0  0  0  0
 11 20  1  0  0  0  0
 12 11  2  0  0  0  0
 13 15  2  0  0  0  0
 13 12  1  0  0  0  0
 14 13  1  0  0  0  0
 15 16  1  0  0  0  0
 16 17  1  0  0  0  0
 16 18  2  0  0  0  0
 20 19  1  0  0  0  0
 21 22  1  0  0  0  0
 22 24  1  0  0  0  0
 23 22  1  0  0  0  0
 24 25  2  0  0  0  0
 24 33  1  0  0  0  0
 25 26  1  0  0  0  0
 26 27  2  0  0  0  0
 28 27  1  0  0  0  0
 28 29  1  0  0  0  0
 29 34  1  0  0  0  0
 30 29  2  0  0  0  0
 31 30  1  0  0  0  0
 32 33  1  0  0  0  0
 32 31  2  0  0  0  0
 33 28  2  0  0  0  0
 34 36  2  0  0  0  0
 35 34  1  0  0  0  0
 35 37  1  0  0  0  0
 38 35  1  0  0  0  0
M  END
>  <minimizedAffinity>
-8.51994133

$$$$

 OpenBabel10152419493D

 38 41  0  0  0  0  0  0  0  0999 V2000
    1.3560   -6.1330  -27.3470 C   0  0  0  0  0  0  0  0  0  0  0  0
    0.2600   -6.1300  -28.2110 C   0  0  0  0  0  3  0  0  0  0  0  0
   -1.0290   -6.2330  -27.6970 C   0  0  0  0  0  3  0  0  0  0  0  0
   -1.2230   -6.3030  -26.3190 C   0  0  0  0  0  3  0  0  0  0  0  0
   -0.1470   -6.1950  -25.4250 C   0  0  0  0  0  0  0  0  0  0  0  0
    1.1470   -6.1030  -25.9620 C   0  0  0  0  0  3  0  0  0  0  0  0
    3.5940   -7.1690  -27.8810 C   0  0  0  0  0  0  0  0  0  0  0  0
    4.7140   -6.9780  -28.3490 O   0  0  0  0  0  0  0  0  0  0  0  0
    2.6320   -6.1830  -27.9360 N   0  0  0  0  0  0  0  0  0  0  0  0
    2.8760   -5.4450  -28.5870 H   0  0  0  0  0  0  0  0  0  0  0  0
    2.7740  -11.0800  -26.3880 C   0  0  0  0  0  0  0  0  0  0  0  0
    2.7610   -9.9890  -25.5210 C   0  0  0  0  0  3  0  0  0  0  0  0
    2.9920   -8.7070  -26.0210 C   0  0  0  0  0  0  0  0  0  0  0  0
    2.9710   -7.6780  -25.1610 F   0  0  0  0  0  0  0  0  0  0  0  0
    3.2590   -8.5050  -27.3730 C   0  0  0  0  0  0  0  0  0  0  0  0
    3.2140   -9.5860  -28.2420 C   0  0  0  0  0  0  0  0  0  0  0  0
    3.4710   -9.4300  -29.5480 F   0  0  0  0  0  0  0  0  0  0  0  0
    2.9730  -10.8690  -27.7560 C   0  0  0  0  0  3  0  0  0  0  0  0
    3.2250  -12.8040  -24.8200 C   0  0  0  0  0  1  0  0  0  0  0  0
    2.5970  -12.3860  -26.0280 O   0  0  0  0  0  0  0  0  0  0  0  0
   -0.3630   -6.2200  -23.9190 C   0  0  0  0  0  2  0  0  0  0  0  0
   -1.6820   -6.7200  -23.5720 N   0  0  0  0  0  0  0  0  0  0  0  0
   -2.4870   -6.3440  -24.0430 H   0  0  0  0  0  0  0  0  0  0  0  0
   -1.7810   -7.8850  -22.8250 C   0  0  0  0  0  0  0  0  0  0  0  0
   -1.8070   -7.7410  -21.4880 N   0  0  0  0  0  0  0  0  0  0  0  0
   -1.5960   -8.8350  -20.7600 C   0  0  0  0  0  3  0  0  0  0  0  0
   -1.2760  -10.0360  -21.2410 N   0  0  0  0  0  0  0  0  0  0  0  0
   -1.2850  -10.1950  -22.5790 C   0  0  0  0  0  0  0  0  0  0  0  0
   -0.9280  -11.4110  -23.1720 C   0  0  0  0  0  0  0  0  0  0  0  0
   -1.0110  -11.6420  -24.5520 C   0  0  0  0  0  3  0  0  0  0  0  0
   -1.4010  -10.6140  -25.3930 C   0  0  0  0  0  3  0  0  0  0  0  0
   -1.6690   -9.3620  -24.8460 C   0  0  0  0  0  3  0  0  0  0  0  0
   -1.6100   -9.1380  -23.4430 C   0  0  0  0  0  0  0  0  0  0  0  0
   -0.3290  -12.4910  -22.3660 C   0  0  0  0  0  0  0  0  0  0  0  0
   -1.1070  -12.9580  -21.3420 N   0  0  0  0  0  0  0  0  0  0  0  0
    0.8270  -12.8540  -22.5320 O   0  0  0  0  0  0  0  0  0  0  0  0
   -0.7250  -13.6690  -20.7340 H   0  0  0  0  0  0  0  0  0  0  0  0
   -2.0550  -12.6410  -21.1900 H   0  0  0  0  0  0  0  0  0  0  0  0
  1  6  1  0  0  0  0
  2  3  1  0  0  0  0
  2  1  2  0  0  0  0
  3  4  2  0  0  0  0
  4  5  1  0  0  0  0
  5 21  1  0  0  0  0
  6  5  2  0  0  0  0
  7 15  1  0  0  0  0
  8  7  2  0  0  0  0
  9  7  1  0  0  0  0
  9  1  1  0  0  0  0
 10  9  1  0  0  0  0
 11 20  1  0  0  0  0
 11 12  1  0  0  0  0
 13 12  2  0  0  0  0
 13 14  1  0  0  0  0
 15 13  1  0  0  0  0
 16 18  1  0  0  0  0
 16 15  2  0  0  0  0
 17 16  1  0  0  0  0
 18 11  2  0  0  0  0
 20 19  1  0  0  0  0
 21 22  1  0  0  0  0
 22 24  1  0  0  0  0
 23 22  1  0  0  0  0
 24 25  1  0  0  0  0
 25 26  2  0  0  0  0
 27 26  1  0  0  0  0
 28 27  2  0  0  0  0
 29 28  1  0  0  0  0
 29 34  1  0  0  0  0
 30 29  2  0  0  0  0
 31 32  2  0  0  0  0
 31 30  1  0  0  0  0
 32 33  1  0  0  0  0
 33 24  2  0  0  0  0
 33 28  1  0  0  0  0
 34 35  1  0  0  0  0
 35 38  1  0  0  0  0
 35 37  1  0  0  0  0
 36 34  2  0  0  0  0
M  END
>  <minimizedAffinity>
-8.4698267

$$$$

 OpenBabel10152419493D

 38 41  0  0  0  0  0  0  0  0999 V2000
    0.5950  -12.6520  -23.2610 C   0  0  0  0  0  0  0  0  0  0  0  0
    1.7420  -12.9590  -22.5280 C   0  0  0  0  0  3  0  0  0  0  0  0
    2.9920  -12.9030  -23.1360 C   0  0  0  0  0  3  0  0  0  0  0  0
    3.0980  -12.5070  -24.4680 C   0  0  0  0  0  3  0  0  0  0  0  0
    1.9740  -12.0860  -25.1950 C   0  0  0  0  0  0  0  0  0  0  0  0
    0.7210  -12.1590  -24.5680 C   0  0  0  0  0  3  0  0  0  0  0  0
   -1.5700  -11.9740  -22.1580 C   0  0  0  0  0  0  0  0  0  0  0  0
   -2.5410  -12.3570  -21.5100 O   0  0  0  0  0  0  0  0  0  0  0  0
   -0.6430  -12.8760  -22.6340 N   0  0  0  0  0  0  0  0  0  0  0  0
   -0.9820  -13.8310  -22.5980 H   0  0  0  0  0  0  0  0  0  0  0  0
   -1.4620   -7.8410  -23.2060 C   0  0  0  0  0  0  0  0  0  0  0  0
   -1.2550   -8.2270  -21.8830 C   0  0  0  0  0  3  0  0  0  0  0  0
   -1.2530   -9.5820  -21.5520 C   0  0  0  0  0  0  0  0  0  0  0  0
   -1.0490   -9.9220  -20.2710 F   0  0  0  0  0  0  0  0  0  0  0  0
   -1.4790  -10.5550  -22.5230 C   0  0  0  0  0  0  0  0  0  0  0  0
   -1.6280  -10.1700  -23.8480 C   0  0  0  0  0  0  0  0  0  0  0  0
   -1.8520  -11.0770  -24.8080 F   0  0  0  0  0  0  0  0  0  0  0  0
   -1.6190   -8.8200  -24.1920 C   0  0  0  0  0  3  0  0  0  0  0  0
   -0.4710   -5.6840  -23.2480 C   0  0  0  0  0  1  0  0  0  0  0  0
   -1.5210   -6.5540  -23.6600 O   0  0  0  0  0  0  0  0  0  0  0  0
    2.0960  -11.6040  -26.6330 C   0  0  0  0  0  2  0  0  0  0  0  0
    3.1280  -10.5930  -26.7780 N   0  0  0  0  0  0  0  0  0  0  0  0
    3.9690  -10.8220  -27.2820 H   0  0  0  0  0  0  0  0  0  0  0  0
    2.8200   -9.2740  -26.4800 C   0  0  0  0  0  0  0  0  0  0  0  0
    2.2510   -9.0470  -25.2830 N   0  0  0  0  0  0  0  0  0  0  0  0
    1.6780   -7.8590  -25.1050 C   0  0  0  0  0  3  0  0  0  0  0  0
    1.5440   -6.9150  -26.0360 N   0  0  0  0  0  0  0  0  0  0  0  0
    2.1440   -7.1220  -27.2250 C   0  0  0  0  0  0  0  0  0  0  0  0
    2.0270   -6.2010  -28.2720 C   0  0  0  0  0  0  0  0  0  0  0  0
    2.7090   -6.3370  -29.4890 C   0  0  0  0  0  3  0  0  0  0  0  0
    3.4880   -7.4590  -29.7110 C   0  0  0  0  0  3  0  0  0  0  0  0
    3.5490   -8.4430  -28.7290 C   0  0  0  0  0  3  0  0  0  0  0  0
    2.8780   -8.2890  -27.4840 C   0  0  0  0  0  0  0  0  0  0  0  0
    1.0730   -5.0800  -28.1810 C   0  0  0  0  0  0  0  0  0  0  0  0
   -0.2070   -5.4270  -27.8430 N   0  0  0  0  0  0  0  0  0  0  0  0
    1.3840   -3.9420  -28.5020 O   0  0  0  0  0  0  0  0  0  0  0  0
   -0.9080   -4.7000  -27.8080 H   0  0  0  0  0  0  0  0  0  0  0  0
   -0.4690   -6.3720  -27.6000 H   0  0  0  0  0  0  0  0  0  0  0  0
  1  9  1  0  0  0  0
  1  2  1  0  0  0  0
  3  2  2  0  0  0  0
  4  3  1  0  0  0  0
  5  6  1  0  0  0  0
  5  4  2  0  0  0  0
  6  1  2  0  0  0  0
  7  8  2  0  0  0  0
  9 10  1  0  0  0  0
  9  7  1  0  0  0  0
 11 12  1  0  0  0  0
 12 13  2  0  0  0  0
 13 14  1  0  0  0  0
 15  7  1  0  0  0  0
 15 13  1  0  0  0  0
 16 15  2  0  0  0  0
 17 16  1  0  0  0  0
 18 16  1  0  0  0  0
 18 11  2  0  0  0  0
 20 19  1  0  0  0  0
 20 11  1  0  0  0  0
 21  5  1  0  0  0  0
 22 21  1  0  0  0  0
 22 24  1  0  0  0  0
 23 22  1  0  0  0  0
 24 25  1  0  0  0  0
 25 26  2  0  0  0  0
 27 26  1  0  0  0  0
 28 27  2  0  0  0  0
 29 34  1  0  0  0  0
 29 28  1  0  0  0  0
 30 29  2  0  0  0  0
 31 30  1  0  0  0  0
 31 32  2  0  0  0  0
 32 33  1  0  0  0  0
 33 28  1  0  0  0  0
 33 24  2  0  0  0  0
 34 35  1  0  0  0  0
 35 37  1  0  0  0  0
 35 38  1  0  0  0  0
 36 34  2  0  0  0  0
M  END
>  <minimizedAffinity>
-8.40102577

$$$$

 OpenBabel10152419493D

 38 41  0  0  0  0  0  0  0  0999 V2000
    1.0670  -12.6760  -23.7170 C   0  0  0  0  0  0  0  0  0  0  0  0
    2.2070  -12.9590  -22.9640 C   0  0  0  0  0  3  0  0  0  0  0  0
    3.4590  -12.9590  -23.5720 C   0  0  0  0  0  3  0  0  0  0  0  0
    3.5730  -12.6420  -24.9240 C   0  0  0  0  0  3  0  0  0  0  0  0
    2.4570  -12.2440  -25.6770 C   0  0  0  0  0  0  0  0  0  0  0  0
    1.2020  -12.2610  -25.0490 C   0  0  0  0  0  3  0  0  0  0  0  0
   -1.1900  -11.9360  -22.8660 C   0  0  0  0  0  0  0  0  0  0  0  0
   -2.1540  -12.2290  -22.1640 O   0  0  0  0  0  0  0  0  0  0  0  0
   -0.1750  -12.8450  -23.0800 N   0  0  0  0  0  0  0  0  0  0  0  0
   -0.4400  -13.7860  -22.8140 H   0  0  0  0  0  0  0  0  0  0  0  0
   -1.0460   -8.2100  -24.9360 C   0  0  0  0  0  0  0  0  0  0  0  0
   -1.3520   -9.3790  -25.6310 C   0  0  0  0  0  3  0  0  0  0  0  0
   -1.4360  -10.5890  -24.9430 C   0  0  0  0  0  0  0  0  0  0  0  0
   -1.7330  -11.6950  -25.6400 F   0  0  0  0  0  0  0  0  0  0  0  0
   -1.1950  -10.6500  -23.5720 C   0  0  0  0  0  0  0  0  0  0  0  0
   -0.9470   -9.4760  -22.8740 C   0  0  0  0  0  0  0  0  0  0  0  0
   -0.7060   -9.4960  -21.5560 F   0  0  0  0  0  0  0  0  0  0  0  0
   -0.8730   -8.2590  -23.5490 C   0  0  0  0  0  3  0  0  0  0  0  0
   -0.5350   -5.9160  -24.6030 C   0  0  0  0  0  1  0  0  0  0  0  0
   -0.9010   -6.9690  -25.4890 O   0  0  0  0  0  0  0  0  0  0  0  0
    2.5890  -11.8480  -27.1400 C   0  0  0  0  0  2  0  0  0  0  0  0
    3.6350  -10.8610  -27.3390 N   0  0  0  0  0  0  0  0  0  0  0  0
    4.4200  -11.0910  -27.9250 H   0  0  0  0  0  0  0  0  0  0  0  0
    3.3960   -9.5470  -26.9650 C   0  0  0  0  0  0  0  0  0  0  0  0
    3.0510   -9.3410  -25.6810 N   0  0  0  0  0  0  0  0  0  0  0  0
    2.5290   -8.1550  -25.3800 C   0  0  0  0  0  3  0  0  0  0  0  0
    2.2380   -7.1910  -26.2540 N   0  0  0  0  0  0  0  0  0  0  0  0
    2.6150   -7.3770  -27.5340 C   0  0  0  0  0  0  0  0  0  0  0  0
    2.3200   -6.4340  -28.5250 C   0  0  0  0  0  0  0  0  0  0  0  0
    2.7710   -6.5480  -29.8470 C   0  0  0  0  0  3  0  0  0  0  0  0
    3.4900   -7.6680  -30.2270 C   0  0  0  0  0  3  0  0  0  0  0  0
    3.7170   -8.6730  -29.2910 C   0  0  0  0  0  3  0  0  0  0  0  0
    3.2810   -8.5410  -27.9440 C   0  0  0  0  0  0  0  0  0  0  0  0
    1.4060   -5.3110  -28.2430 C   0  0  0  0  0  0  0  0  0  0  0  0
    0.0830   -5.6440  -28.1410 N   0  0  0  0  0  0  0  0  0  0  0  0
    1.7960   -4.1520  -28.2230 O   0  0  0  0  0  0  0  0  0  0  0  0
   -0.5880   -4.9040  -27.9900 H   0  0  0  0  0  0  0  0  0  0  0  0
   -0.2430   -6.6000  -28.1820 H   0  0  0  0  0  0  0  0  0  0  0  0
  1  9  1  0  0  0  0
  1  2  1  0  0  0  0
  3  2  2  0  0  0  0
  4  3  1  0  0  0  0
  5  6  1  0  0  0  0
  5  4  2  0  0  0  0
  6  1  2  0  0  0  0
  7  8  2  0  0  0  0
  9  7  1  0  0  0  0
  9 10  1  0  0  0  0
 11 18  1  0  0  0  0
 12 13  1  0  0  0  0
 12 11  2  0  0  0  0
 13 15  2  0  0  0  0
 14 13  1  0  0  0  0
 15 16  1  0  0  0  0
 15  7  1  0  0  0  0
 16 17  1  0  0  0  0
 18 16  2  0  0  0  0
 20 11  1  0  0  0  0
 20 19  1  0  0  0  0
 21  5  1  0  0  0  0
 22 21  1  0  0  0  0
 22 24  1  0  0  0  0
 23 22  1  0  0  0  0
 24 25  1  0  0  0  0
 25 26  2  0  0  0  0
 27 26  1  0  0  0  0
 28 27  2  0  0  0  0
 29 34  1  0  0  0  0
 29 28  1  0  0  0  0
 30 29  2  0  0  0  0
 31 30  1  0  0  0  0
 31 32  2  0  0  0  0
 32 33  1  0  0  0  0
 33 28  1  0  0  0  0
 33 24  2  0  0  0  0
 34 36  2  0  0  0  0
 34 35  1  0  0  0  0
 35 37  1  0  0  0  0
 38 35  1  0  0  0  0
M  END
>  <minimizedAffinity>
-7.94625616

$$$$
