
 OpenBabel10152419493D

 38 41  0  0  0  0  0  0  0  0999 V2000
    1.0670  -12.6760  -23.7170 C   0  0  0  0  0  0  0  0  0  0  0  0
    2.2070  -12.9590  -22.9640 C   0  0  0  0  0  3  0  0  0  0  0  0
    3.4590  -12.9590  -23.5720 C   0  0  0  0  0  3  0  0  0  0  0  0
    3.5730  -12.6420  -24.9240 C   0  0  0  0  0  3  0  0  0  0  0  0
    2.4570  -12.2440  -25.6770 C   0  0  0  0  0  0  0  0  0  0  0  0
    1.2020  -12.2610  -25.0490 C   0  0  0  0  0  3  0  0  0  0  0  0
   -1.1900  -11.9360  -22.8660 C   0  0  0  0  0  0  0  0  0  0  0  0
   -2.1540  -12.2290  -22.1640 O   0  0  0  0  0  0  0  0  0  0  0  0
   -0.1750  -12.8450  -23.0800 N   0  0  0  0  0  0  0  0  0  0  0  0
   -0.4400  -13.7860  -22.8140 H   0  0  0  0  0  0  0  0  0  0  0  0
   -1.0460   -8.2100  -24.9360 C   0  0  0  0  0  0  0  0  0  0  0  0
   -1.3520   -9.3790  -25.6310 C   0  0  0  0  0  3  0  0  0  0  0  0
   -1.4360  -10.5890  -24.9430 C   0  0  0  0  0  0  0  0  0  0  0  0
   -1.7330  -11.6950  -25.6400 F   0  0  0  0  0  0  0  0  0  0  0  0
   -1.1950  -10.6500  -23.5720 C   0  0  0  0  0  0  0  0  0  0  0  0
   -0.9470   -9.4760  -22.8740 C   0  0  0  0  0  0  0  0  0  0  0  0
   -0.7060   -9.4960  -21.5560 F   0  0  0  0  0  0  0  0  0  0  0  0
   -0.8730   -8.2590  -23.5490 C   0  0  0  0  0  3  0  0  0  0  0  0
   -0.5350   -5.9160  -24.6030 C   0  0  0  0  0  1  0  0  0  0  0  0
   -0.9010   -6.9690  -25.4890 O   0  0  0  0  0  0  0  0  0  0  0  0
    2.5890  -11.8480  -27.1400 C   0  0  0  0  0  2  0  0  0  0  0  0
    3.6350  -10.8610  -27.3390 N   0  0  0  0  0  0  0  0  0  0  0  0
    4.4200  -11.0910  -27.9250 H   0  0  0  0  0  0  0  0  0  0  0  0
    3.3960   -9.5470  -26.9650 C   0  0  0  0  0  0  0  0  0  0  0  0
    3.0510   -9.3410  -25.6810 N   0  0  0  0  0  0  0  0  0  0  0  0
    2.5290   -8.1550  -25.3800 C   0  0  0  0  0  3  0  0  0  0  0  0
    2.2380   -7.1910  -26.2540 N   0  0  0  0  0  0  0  0  0  0  0  0
    2.6150   -7.3770  -27.5340 C   0  0  0  0  0  0  0  0  0  0  0  0
    2.3200   -6.4340  -28.5250 C   0  0  0  0  0  0  0  0  0  0  0  0
    2.7710   -6.5480  -29.8470 C   0  0  0  0  0  3  0  0  0  0  0  0
    3.4900   -7.6680  -30.2270 C   0  0  0  0  0  3  0  0  0  0  0  0
    3.7170   -8.6730  -29.2910 C   0  0  0  0  0  3  0  0  0  0  0  0
    3.2810   -8.5410  -27.9440 C   0  0  0  0  0  0  0  0  0  0  0  0
    1.4060   -5.3110  -28.2430 C   0  0  0  0  0  0  0  0  0  0  0  0
    0.0830   -5.6440  -28.1410 N   0  0  0  0  0  0  0  0  0  0  0  0
    1.7960   -4.1520  -28.2230 O   0  0  0  0  0  0  0  0  0  0  0  0
   -0.5880   -4.9040  -27.9900 H   0  0  0  0  0  0  0  0  0  0  0  0
   -0.2430   -6.6000  -28.1820 H   0  0  0  0  0  0  0  0  0  0  0  0
  1  9  1  0  0  0  0
  1  2  1  0  0  0  0
  3  2  2  0  0  0  0
  4  3  1  0  0  0  0
  5  6  1  0  0  0  0
  5  4  2  0  0  0  0
  6  1  2  0  0  0  0
  7  8  2  0  0  0  0
  9  7  1  0  0  0  0
  9 10  1  0  0  0  0
 11 18  1  0  0  0  0
 12 13  1  0  0  0  0
 12 11  2  0  0  0  0
 13 15  2  0  0  0  0
 14 13  1  0  0  0  0
 15 16  1  0  0  0  0
 15  7  1  0  0  0  0
 16 17  1  0  0  0  0
 18 16  2  0  0  0  0
 20 11  1  0  0  0  0
 20 19  1  0  0  0  0
 21  5  1  0  0  0  0
 22 21  1  0  0  0  0
 22 24  1  0  0  0  0
 23 22  1  0  0  0  0
 24 25  1  0  0  0  0
 25 26  2  0  0  0  0
 27 26  1  0  0  0  0
 28 27  2  0  0  0  0
 29 34  1  0  0  0  0
 29 28  1  0  0  0  0
 30 29  2  0  0  0  0
 31 30  1  0  0  0  0
 31 32  2  0  0  0  0
 32 33  1  0  0  0  0
 33 28  1  0  0  0  0
 33 24  2  0  0  0  0
 34 36  2  0  0  0  0
 34 35  1  0  0  0  0
 35 37  1  0  0  0  0
 38 35  1  0  0  0  0
M  END
>  <minimizedAffinity>
-7.94625616

$$$$
