
 OpenBabel10152419493D

 38 41  0  0  0  0  0  0  0  0999 V2000
   -1.2780  -10.3430  -23.4360 C   0  0  0  0  0  0  0  0  0  0  0  0
   -0.8970  -11.0270  -22.2810 C   0  0  0  0  0  3  0  0  0  0  0  0
    0.0310  -12.0610  -22.3590 C   0  0  0  0  0  3  0  0  0  0  0  0
    0.6030  -12.3880  -23.5860 C   0  0  0  0  0  3  0  0  0  0  0  0
    0.3220  -11.6430  -24.7430 C   0  0  0  0  0  0  0  0  0  0  0  0
   -0.6240  -10.6120  -24.6460 C   0  0  0  0  0  3  0  0  0  0  0  0
   -2.3970   -8.0980  -23.7050 C   0  0  0  0  0  0  0  0  0  0  0  0
   -3.3560   -7.3990  -23.3880 O   0  0  0  0  0  0  0  0  0  0  0  0
   -2.3290   -9.4180  -23.3120 N   0  0  0  0  0  0  0  0  0  0  0  0
   -3.2210   -9.7660  -22.9780 H   0  0  0  0  0  0  0  0  0  0  0  0
    0.4340   -6.3810  -26.3930 C   0  0  0  0  0  0  0  0  0  0  0  0
    0.3630   -5.9280  -25.0770 C   0  0  0  0  0  3  0  0  0  0  0  0
   -0.5370   -6.5190  -24.1910 C   0  0  0  0  0  0  0  0  0  0  0  0
   -0.5790   -6.0630  -22.9310 F   0  0  0  0  0  0  0  0  0  0  0  0
   -1.3860   -7.5410  -24.6110 C   0  0  0  0  0  0  0  0  0  0  0  0
   -1.2730   -8.0280  -25.9060 C   0  0  0  0  0  0  0  0  0  0  0  0
   -2.0750   -9.0070  -26.3460 F   0  0  0  0  0  0  0  0  0  0  0  0
   -0.3680   -7.4530  -26.7960 C   0  0  0  0  0  3  0  0  0  0  0  0
    0.8220   -4.6520  -27.9730 C   0  0  0  0  0  1  0  0  0  0  0  0
    1.2430   -5.8710  -27.3690 O   0  0  0  0  0  0  0  0  0  0  0  0
    0.9850  -11.9670  -26.0740 C   0  0  0  0  0  2  0  0  0  0  0  0
    2.4330  -11.8830  -25.9890 N   0  0  0  0  0  0  0  0  0  0  0  0
    2.9640  -12.7250  -25.8420 H   0  0  0  0  0  0  0  0  0  0  0  0
    3.0610  -10.7150  -26.3960 C   0  0  0  0  0  0  0  0  0  0  0  0
    2.9310   -9.6500  -25.5840 N   0  0  0  0  0  0  0  0  0  0  0  0
    3.2570   -8.4630  -26.0910 C   0  0  0  0  0  3  0  0  0  0  0  0
    3.6140   -8.2320  -27.3540 N   0  0  0  0  0  0  0  0  0  0  0  0
    3.7810   -9.2980  -28.1610 C   0  0  0  0  0  0  0  0  0  0  0  0
    4.1210   -9.1460  -29.5100 C   0  0  0  0  0  0  0  0  0  0  0  0
    4.3910  -10.2300  -30.3570 C   0  0  0  0  0  3  0  0  0  0  0  0
    4.2590  -11.5210  -29.8740 C   0  0  0  0  0  3  0  0  0  0  0  0
    3.8280  -11.7090  -28.5640 C   0  0  0  0  0  3  0  0  0  0  0  0
    3.5810  -10.6070  -27.7000 C   0  0  0  0  0  0  0  0  0  0  0  0
    4.1000   -7.8140  -30.1430 C   0  0  0  0  0  0  0  0  0  0  0  0
    3.2400   -6.9120  -29.5790 N   0  0  0  0  0  0  0  0  0  0  0  0
    4.7200   -7.5790  -31.1700 O   0  0  0  0  0  0  0  0  0  0  0  0
    3.1580   -5.9980  -30.0020 H   0  0  0  0  0  0  0  0  0  0  0  0
    2.7080   -7.1140  -28.7430 H   0  0  0  0  0  0  0  0  0  0  0  0
  1  9  1  0  0  0  0
  1  2  1  0  0  0  0
  3  2  2  0  0  0  0
  4  3  1  0  0  0  0
  5  6  1  0  0  0  0
  5  4  2  0  0  0  0
  6  1  2  0  0  0  0
  7  8  2  0  0  0  0
  7  9  1  0  0  0  0
  9 10  1  0  0  0  0
 11 12  1  0  0  0  0
 12 13  2  0  0  0  0
 13 14  1  0  0  0  0
 15 13  1  0  0  0  0
 15  7  1  0  0  0  0
 16 15  2  0  0  0  0
 17 16  1  0  0  0  0
 18 11  2  0  0  0  0
 18 16  1  0  0  0  0
 19 20  1  0  0  0  0
 20 11  1  0  0  0  0
 21 22  1  0  0  0  0
 21  5  1  0  0  0  0
 22 23  1  0  0  0  0
 24 22  1  0  0  0  0
 24 25  1  0  0  0  0
 26 25  2  0  0  0  0
 27 26  1  0  0  0  0
 28 33  1  0  0  0  0
 28 27  2  0  0  0  0
 29 28  1  0  0  0  0
 30 31  1  0  0  0  0
 30 29  2  0  0  0  0
 31 32  2  0  0  0  0
 32 33  1  0  0  0  0
 33 24  2  0  0  0  0
 34 35  1  0  0  0  0
 34 29  1  0  0  0  0
 35 38  1  0  0  0  0
 36 34  2  0  0  0  0
 37 35  1  0  0  0  0
M  END
>  <minimizedAffinity>
-8.66886711

$$$$
