
 OpenBabel10152419493D

 38 41  0  0  0  0  0  0  0  0999 V2000
    1.9150   -6.2800  -28.7790 C   0  0  0  0  0  0  0  0  0  0  0  0
    1.7130   -4.9680  -28.3490 C   0  0  0  0  0  3  0  0  0  0  0  0
    0.7000   -4.6830  -27.4400 C   0  0  0  0  0  3  0  0  0  0  0  0
   -0.0880   -5.7140  -26.9340 C   0  0  0  0  0  3  0  0  0  0  0  0
    0.1660   -7.0550  -27.2630 C   0  0  0  0  0  0  0  0  0  0  0  0
    1.1850   -7.3220  -28.1910 C   0  0  0  0  0  3  0  0  0  0  0  0
    3.9280   -7.3320  -29.8780 C   0  0  0  0  0  0  0  0  0  0  0  0
    4.7220   -7.2680  -30.8130 O   0  0  0  0  0  0  0  0  0  0  0  0
    2.8490   -6.4760  -29.8120 N   0  0  0  0  0  0  0  0  0  0  0  0
    2.6770   -6.0060  -30.6930 H   0  0  0  0  0  0  0  0  0  0  0  0
    4.2110  -10.4530  -26.9830 C   0  0  0  0  0  0  0  0  0  0  0  0
    3.9080  -10.7600  -28.3080 C   0  0  0  0  0  3  0  0  0  0  0  0
    3.8550   -9.7410  -29.2590 C   0  0  0  0  0  0  0  0  0  0  0  0
    3.5620  -10.0700  -30.5260 F   0  0  0  0  0  0  0  0  0  0  0  0
    4.0770   -8.4140  -28.8970 C   0  0  0  0  0  0  0  0  0  0  0  0
    4.4350   -8.1190  -27.5890 C   0  0  0  0  0  0  0  0  0  0  0  0
    4.6520   -6.8540  -27.2030 F   0  0  0  0  0  0  0  0  0  0  0  0
    4.5030   -9.1300  -26.6340 C   0  0  0  0  0  3  0  0  0  0  0  0
    3.0150  -11.7870  -25.4270 C   0  0  0  0  0  1  0  0  0  0  0  0
    4.2640  -11.3450  -25.9500 O   0  0  0  0  0  0  0  0  0  0  0  0
   -0.6610   -8.1870  -26.6720 C   0  0  0  0  0  2  0  0  0  0  0  0
    0.1450   -9.0720  -25.8500 N   0  0  0  0  0  0  0  0  0  0  0  0
    1.0740   -9.3100  -26.1530 H   0  0  0  0  0  0  0  0  0  0  0  0
   -0.2610   -9.3310  -24.5480 C   0  0  0  0  0  0  0  0  0  0  0  0
   -0.5230  -10.6150  -24.2470 N   0  0  0  0  0  0  0  0  0  0  0  0
   -1.1950  -10.8450  -23.1200 C   0  0  0  0  0  3  0  0  0  0  0  0
   -1.7020   -9.9100  -22.3170 N   0  0  0  0  0  0  0  0  0  0  0  0
   -1.4110   -8.6240  -22.5940 C   0  0  0  0  0  0  0  0  0  0  0  0
   -1.9290   -7.5760  -21.8250 C   0  0  0  0  0  0  0  0  0  0  0  0
   -1.5790   -6.2340  -22.0260 C   0  0  0  0  0  3  0  0  0  0  0  0
   -0.7320   -5.9010  -23.0690 C   0  0  0  0  0  3  0  0  0  0  0  0
   -0.2750   -6.9080  -23.9140 C   0  0  0  0  0  3  0  0  0  0  0  0
   -0.6110   -8.2710  -23.6910 C   0  0  0  0  0  0  0  0  0  0  0  0
   -2.9780   -7.8320  -20.8190 C   0  0  0  0  0  0  0  0  0  0  0  0
   -4.2490   -7.9370  -21.3130 N   0  0  0  0  0  0  0  0  0  0  0  0
   -2.7350   -7.8310  -19.6210 O   0  0  0  0  0  0  0  0  0  0  0  0
   -5.0090   -8.0700  -20.6590 H   0  0  0  0  0  0  0  0  0  0  0  0
   -4.4530   -7.9150  -22.3020 H   0  0  0  0  0  0  0  0  0  0  0  0
  1  2  2  0  0  0  0
  1  6  1  0  0  0  0
  2  3  1  0  0  0  0
  3  4  2  0  0  0  0
  5  4  1  0  0  0  0
  5 21  1  0  0  0  0
  6  5  2  0  0  0  0
  7  9  1  0  0  0  0
  7 15  1  0  0  0  0
  8  7  2  0  0  0  0
  9  1  1  0  0  0  0
 10  9  1  0  0  0  0
 11 18  1  0  0  0  0
 11 20  1  0  0  0  0
 12 11  2  0  0  0  0
 13 15  2  0  0  0  0
 13 12  1  0  0  0  0
 14 13  1  0  0  0  0
 15 16  1  0  0  0  0
 16 17  1  0  0  0  0
 16 18  2  0  0  0  0
 20 19  1  0  0  0  0
 21 22  1  0  0  0  0
 22 24  1  0  0  0  0
 23 22  1  0  0  0  0
 24 25  2  0  0  0  0
 24 33  1  0  0  0  0
 25 26  1  0  0  0  0
 26 27  2  0  0  0  0
 28 27  1  0  0  0  0
 28 29  1  0  0  0  0
 29 34  1  0  0  0  0
 30 29  2  0  0  0  0
 31 30  1  0  0  0  0
 32 33  1  0  0  0  0
 32 31  2  0  0  0  0
 33 28  2  0  0  0  0
 34 36  2  0  0  0  0
 35 34  1  0  0  0  0
 35 37  1  0  0  0  0
 38 35  1  0  0  0  0
M  END
>  <minimizedAffinity>
-8.51994133

$$$$
