
 OpenBabel10152419493D

 38 41  0  0  0  0  0  0  0  0999 V2000
    1.8770   -6.4950  -28.2780 C   0  0  0  0  0  0  0  0  0  0  0  0
    1.4060   -5.2270  -27.9360 C   0  0  0  0  0  3  0  0  0  0  0  0
    0.4630   -5.0860  -26.9230 C   0  0  0  0  0  3  0  0  0  0  0  0
    0.0170   -6.2090  -26.2290 C   0  0  0  0  0  3  0  0  0  0  0  0
    0.5570   -7.4810  -26.4770 C   0  0  0  0  0  0  0  0  0  0  0  0
    1.4990   -7.6050  -27.5100 C   0  0  0  0  0  3  0  0  0  0  0  0
    3.8000   -7.3920  -29.6430 C   0  0  0  0  0  0  0  0  0  0  0  0
    4.4940   -7.2320  -30.6440 O   0  0  0  0  0  0  0  0  0  0  0  0
    2.7080   -6.5840  -29.4090 N   0  0  0  0  0  0  0  0  0  0  0  0
    2.4340   -6.0600  -30.2330 H   0  0  0  0  0  0  0  0  0  0  0  0
    4.4670  -10.6960  -27.0290 C   0  0  0  0  0  0  0  0  0  0  0  0
    4.0750  -10.9220  -28.3480 C   0  0  0  0  0  3  0  0  0  0  0  0
    3.8960   -9.8400  -29.2090 C   0  0  0  0  0  0  0  0  0  0  0  0
    3.5200  -10.0900  -30.4720 F   0  0  0  0  0  0  0  0  0  0  0  0
    4.0800   -8.5330  -28.7640 C   0  0  0  0  0  0  0  0  0  0  0  0
    4.5260   -8.3150  -27.4670 C   0  0  0  0  0  0  0  0  0  0  0  0
    4.7100   -7.0720  -27.0020 F   0  0  0  0  0  0  0  0  0  0  0  0
    4.7210   -9.3890  -26.6010 C   0  0  0  0  0  3  0  0  0  0  0  0
    3.4680  -12.2720  -25.5620 C   0  0  0  0  0  1  0  0  0  0  0  0
    4.6460  -11.6570  -26.0760 O   0  0  0  0  0  0  0  0  0  0  0  0
    0.1070   -8.7000  -25.6840 C   0  0  0  0  0  2  0  0  0  0  0  0
    0.1260   -8.4500  -24.2540 N   0  0  0  0  0  0  0  0  0  0  0  0
    0.6970   -7.7020  -23.8950 H   0  0  0  0  0  0  0  0  0  0  0  0
   -0.8440   -9.0410  -23.4580 C   0  0  0  0  0  0  0  0  0  0  0  0
   -1.7660   -8.2200  -22.9260 N   0  0  0  0  0  0  0  0  0  0  0  0
   -2.5070   -8.7080  -21.9330 C   0  0  0  0  0  3  0  0  0  0  0  0
   -2.3530   -9.9050  -21.3680 N   0  0  0  0  0  0  0  0  0  0  0  0
   -1.4560  -10.7450  -21.9210 C   0  0  0  0  0  0  0  0  0  0  0  0
   -1.2050  -12.0080  -21.3720 C   0  0  0  0  0  0  0  0  0  0  0  0
   -0.3470  -12.9430  -21.9680 C   0  0  0  0  0  3  0  0  0  0  0  0
    0.3410  -12.6000  -23.1190 C   0  0  0  0  0  3  0  0  0  0  0  0
    0.1890  -11.3170  -23.6380 C   0  0  0  0  0  3  0  0  0  0  0  0
   -0.7020  -10.3800  -23.0450 C   0  0  0  0  0  0  0  0  0  0  0  0
   -1.7550  -12.3760  -20.0540 C   0  0  0  0  0  0  0  0  0  0  0  0
   -3.1010  -12.6180  -20.0290 N   0  0  0  0  0  0  0  0  0  0  0  0
   -1.0720  -12.3480  -19.0400 O   0  0  0  0  0  0  0  0  0  0  0  0
   -3.5340  -12.8330  -19.1410 H   0  0  0  0  0  0  0  0  0  0  0  0
   -3.6710  -12.6180  -20.8640 H   0  0  0  0  0  0  0  0  0  0  0  0
  1  2  2  0  0  0  0
  1  6  1  0  0  0  0
  2  3  1  0  0  0  0
  3  4  2  0  0  0  0
  5  4  1  0  0  0  0
  5 21  1  0  0  0  0
  6  5  2  0  0  0  0
  7  9  1  0  0  0  0
  7 15  1  0  0  0  0
  8  7  2  0  0  0  0
  9  1  1  0  0  0  0
 10  9  1  0  0  0  0
 11 18  1  0  0  0  0
 11 20  1  0  0  0  0
 12 11  2  0  0  0  0
 13 15  2  0  0  0  0
 13 12  1  0  0  0  0
 14 13  1  0  0  0  0
 15 16  1  0  0  0  0
 16 17  1  0  0  0  0
 16 18  2  0  0  0  0
 20 19  1  0  0  0  0
 21 22  1  0  0  0  0
 22 23  1  0  0  0  0
 22 24  1  0  0  0  0
 24 33  2  0  0  0  0
 24 25  1  0  0  0  0
 25 26  2  0  0  0  0
 26 27  1  0  0  0  0
 28 29  1  0  0  0  0
 28 27  2  0  0  0  0
 29 34  1  0  0  0  0
 30 29  2  0  0  0  0
 31 30  1  0  0  0  0
 32 31  2  0  0  0  0
 32 33  1  0  0  0  0
 33 28  1  0  0  0  0
 34 35  1  0  0  0  0
 34 36  2  0  0  0  0
 35 37  1  0  0  0  0
 38 35  1  0  0  0  0
M  END
>  <minimizedAffinity>
-10.2259302

$$$$
