
 OpenBabel10152419493D

 38 41  0  0  0  0  0  0  0  0999 V2000
    0.5950  -12.6520  -23.2610 C   0  0  0  0  0  0  0  0  0  0  0  0
    1.7420  -12.9590  -22.5280 C   0  0  0  0  0  3  0  0  0  0  0  0
    2.9920  -12.9030  -23.1360 C   0  0  0  0  0  3  0  0  0  0  0  0
    3.0980  -12.5070  -24.4680 C   0  0  0  0  0  3  0  0  0  0  0  0
    1.9740  -12.0860  -25.1950 C   0  0  0  0  0  0  0  0  0  0  0  0
    0.7210  -12.1590  -24.5680 C   0  0  0  0  0  3  0  0  0  0  0  0
   -1.5700  -11.9740  -22.1580 C   0  0  0  0  0  0  0  0  0  0  0  0
   -2.5410  -12.3570  -21.5100 O   0  0  0  0  0  0  0  0  0  0  0  0
   -0.6430  -12.8760  -22.6340 N   0  0  0  0  0  0  0  0  0  0  0  0
   -0.9820  -13.8310  -22.5980 H   0  0  0  0  0  0  0  0  0  0  0  0
   -1.4620   -7.8410  -23.2060 C   0  0  0  0  0  0  0  0  0  0  0  0
   -1.2550   -8.2270  -21.8830 C   0  0  0  0  0  3  0  0  0  0  0  0
   -1.2530   -9.5820  -21.5520 C   0  0  0  0  0  0  0  0  0  0  0  0
   -1.0490   -9.9220  -20.2710 F   0  0  0  0  0  0  0  0  0  0  0  0
   -1.4790  -10.5550  -22.5230 C   0  0  0  0  0  0  0  0  0  0  0  0
   -1.6280  -10.1700  -23.8480 C   0  0  0  0  0  0  0  0  0  0  0  0
   -1.8520  -11.0770  -24.8080 F   0  0  0  0  0  0  0  0  0  0  0  0
   -1.6190   -8.8200  -24.1920 C   0  0  0  0  0  3  0  0  0  0  0  0
   -0.4710   -5.6840  -23.2480 C   0  0  0  0  0  1  0  0  0  0  0  0
   -1.5210   -6.5540  -23.6600 O   0  0  0  0  0  0  0  0  0  0  0  0
    2.0960  -11.6040  -26.6330 C   0  0  0  0  0  2  0  0  0  0  0  0
    3.1280  -10.5930  -26.7780 N   0  0  0  0  0  0  0  0  0  0  0  0
    3.9690  -10.8220  -27.2820 H   0  0  0  0  0  0  0  0  0  0  0  0
    2.8200   -9.2740  -26.4800 C   0  0  0  0  0  0  0  0  0  0  0  0
    2.2510   -9.0470  -25.2830 N   0  0  0  0  0  0  0  0  0  0  0  0
    1.6780   -7.8590  -25.1050 C   0  0  0  0  0  3  0  0  0  0  0  0
    1.5440   -6.9150  -26.0360 N   0  0  0  0  0  0  0  0  0  0  0  0
    2.1440   -7.1220  -27.2250 C   0  0  0  0  0  0  0  0  0  0  0  0
    2.0270   -6.2010  -28.2720 C   0  0  0  0  0  0  0  0  0  0  0  0
    2.7090   -6.3370  -29.4890 C   0  0  0  0  0  3  0  0  0  0  0  0
    3.4880   -7.4590  -29.7110 C   0  0  0  0  0  3  0  0  0  0  0  0
    3.5490   -8.4430  -28.7290 C   0  0  0  0  0  3  0  0  0  0  0  0
    2.8780   -8.2890  -27.4840 C   0  0  0  0  0  0  0  0  0  0  0  0
    1.0730   -5.0800  -28.1810 C   0  0  0  0  0  0  0  0  0  0  0  0
   -0.2070   -5.4270  -27.8430 N   0  0  0  0  0  0  0  0  0  0  0  0
    1.3840   -3.9420  -28.5020 O   0  0  0  0  0  0  0  0  0  0  0  0
   -0.9080   -4.7000  -27.8080 H   0  0  0  0  0  0  0  0  0  0  0  0
   -0.4690   -6.3720  -27.6000 H   0  0  0  0  0  0  0  0  0  0  0  0
  1  9  1  0  0  0  0
  1  2  1  0  0  0  0
  3  2  2  0  0  0  0
  4  3  1  0  0  0  0
  5  6  1  0  0  0  0
  5  4  2  0  0  0  0
  6  1  2  0  0  0  0
  7  8  2  0  0  0  0
  9 10  1  0  0  0  0
  9  7  1  0  0  0  0
 11 12  1  0  0  0  0
 12 13  2  0  0  0  0
 13 14  1  0  0  0  0
 15  7  1  0  0  0  0
 15 13  1  0  0  0  0
 16 15  2  0  0  0  0
 17 16  1  0  0  0  0
 18 16  1  0  0  0  0
 18 11  2  0  0  0  0
 20 19  1  0  0  0  0
 20 11  1  0  0  0  0
 21  5  1  0  0  0  0
 22 21  1  0  0  0  0
 22 24  1  0  0  0  0
 23 22  1  0  0  0  0
 24 25  1  0  0  0  0
 25 26  2  0  0  0  0
 27 26  1  0  0  0  0
 28 27  2  0  0  0  0
 29 34  1  0  0  0  0
 29 28  1  0  0  0  0
 30 29  2  0  0  0  0
 31 30  1  0  0  0  0
 31 32  2  0  0  0  0
 32 33  1  0  0  0  0
 33 28  1  0  0  0  0
 33 24  2  0  0  0  0
 34 35  1  0  0  0  0
 35 37  1  0  0  0  0
 35 38  1  0  0  0  0
 36 34  2  0  0  0  0
M  END
>  <minimizedAffinity>
-8.40102577

$$$$
