
 OpenBabel10152419493D

 38 41  0  0  0  0  0  0  0  0999 V2000
    1.0840  -11.5960  -25.8940 C   0  0  0  0  0  0  0  0  0  0  0  0
    1.2900  -12.4890  -24.8420 C   0  0  0  0  0  3  0  0  0  0  0  0
    2.5850  -12.8110  -24.4470 C   0  0  0  0  0  3  0  0  0  0  0  0
    3.6720  -12.2140  -25.0810 C   0  0  0  0  0  3  0  0  0  0  0  0
    3.4920  -11.2280  -26.0650 C   0  0  0  0  0  0  0  0  0  0  0  0
    2.1790  -10.9250  -26.4570 C   0  0  0  0  0  3  0  0  0  0  0  0
   -1.3740  -11.0860  -25.6440 C   0  0  0  0  0  0  0  0  0  0  0  0
   -2.4780  -11.1270  -26.1830 O   0  0  0  0  0  0  0  0  0  0  0  0
   -0.2380  -11.4330  -26.3440 N   0  0  0  0  0  0  0  0  0  0  0  0
   -0.4000  -11.4720  -27.3440 H   0  0  0  0  0  0  0  0  0  0  0  0
   -1.2310   -9.5240  -21.6780 C   0  0  0  0  0  0  0  0  0  0  0  0
   -1.0420  -10.8880  -21.8940 C   0  0  0  0  0  3  0  0  0  0  0  0
   -1.0510  -11.3880  -23.1960 C   0  0  0  0  0  0  0  0  0  0  0  0
   -0.8630  -12.7040  -23.3710 F   0  0  0  0  0  0  0  0  0  0  0  0
   -1.2710  -10.5460  -24.2840 C   0  0  0  0  0  0  0  0  0  0  0  0
   -1.4030   -9.1810  -24.0690 C   0  0  0  0  0  0  0  0  0  0  0  0
   -1.6210   -8.3410  -25.0900 F   0  0  0  0  0  0  0  0  0  0  0  0
   -1.3830   -8.6680  -22.7740 C   0  0  0  0  0  3  0  0  0  0  0  0
   -2.3670   -8.0180  -20.2360 C   0  0  0  0  0  1  0  0  0  0  0  0
   -1.2780   -8.9090  -20.4590 O   0  0  0  0  0  0  0  0  0  0  0  0
    4.6780  -10.5380  -26.7210 C   0  0  0  0  0  2  0  0  0  0  0  0
    4.5800   -9.0920  -26.6280 N   0  0  0  0  0  0  0  0  0  0  0  0
    5.2990   -8.5830  -26.1430 H   0  0  0  0  0  0  0  0  0  0  0  0
    3.6730   -8.4290  -27.4430 C   0  0  0  0  0  0  0  0  0  0  0  0
    4.0130   -8.2990  -28.7370 N   0  0  0  0  0  0  0  0  0  0  0  0
    3.3200   -7.4190  -29.4570 C   0  0  0  0  0  3  0  0  0  0  0  0
    2.3830   -6.5980  -28.9830 N   0  0  0  0  0  0  0  0  0  0  0  0
    2.0130   -6.7490  -27.6960 C   0  0  0  0  0  0  0  0  0  0  0  0
    1.0620   -5.9090  -27.1070 C   0  0  0  0  0  0  0  0  0  0  0  0
    0.5870   -6.0900  -25.8010 C   0  0  0  0  0  3  0  0  0  0  0  0
    1.1150   -7.1030  -25.0180 C   0  0  0  0  0  3  0  0  0  0  0  0
    2.1320   -7.8970  -25.5400 C   0  0  0  0  0  3  0  0  0  0  0  0
    2.5930   -7.7270  -26.8750 C   0  0  0  0  0  0  0  0  0  0  0  0
    0.5910   -4.7000  -27.8090 C   0  0  0  0  0  0  0  0  0  0  0  0
    1.5760   -3.8970  -28.3170 N   0  0  0  0  0  0  0  0  0  0  0  0
   -0.5900   -4.3860  -27.8290 O   0  0  0  0  0  0  0  0  0  0  0  0
    1.3060   -3.0360  -28.7710 H   0  0  0  0  0  0  0  0  0  0  0  0
    2.5550   -4.1460  -28.2800 H   0  0  0  0  0  0  0  0  0  0  0  0
  1  2  1  0  0  0  0
  2  3  2  0  0  0  0
  4  3  1  0  0  0  0
  5  4  2  0  0  0  0
  6  5  1  0  0  0  0
  6  1  2  0  0  0  0
  7 15  1  0  0  0  0
  8  7  2  0  0  0  0
  9  1  1  0  0  0  0
  9  7  1  0  0  0  0
 10  9  1  0  0  0  0
 11 20  1  0  0  0  0
 12 11  1  0  0  0  0
 13 12  2  0  0  0  0
 14 13  1  0  0  0  0
 15 16  2  0  0  0  0
 15 13  1  0  0  0  0
 16 18  1  0  0  0  0
 17 16  1  0  0  0  0
 18 11  2  0  0  0  0
 20 19  1  0  0  0  0
 21 22  1  0  0  0  0
 21  5  1  0  0  0  0
 22 23  1  0  0  0  0
 24 33  1  0  0  0  0
 24 22  1  0  0  0  0
 25 24  2  0  0  0  0
 26 27  2  0  0  0  0
 26 25  1  0  0  0  0
 27 28  1  0  0  0  0
 28 29  2  0  0  0  0
 28 33  1  0  0  0  0
 29 30  1  0  0  0  0
 30 31  2  0  0  0  0
 32 31  1  0  0  0  0
 33 32  2  0  0  0  0
 34 29  1  0  0  0  0
 35 38  1  0  0  0  0
 35 34  1  0  0  0  0
 36 34  2  0  0  0  0
 37 35  1  0  0  0  0
M  END
>  <minimizedAffinity>
-8.8454895

$$$$
