
 OpenBabel10152419513D

 37 40  0  0  0  0  0  0  0  0999 V2000
    1.6350   -6.3150  -28.2550 C   0  0  0  0  0  0  0  0  0  0  0  0
    1.3480   -4.9850  -27.9460 C   0  0  0  0  0  3  0  0  0  0  0  0
    0.4130   -4.6920  -26.9600 C   0  0  0  0  0  3  0  0  0  0  0  0
   -0.2070   -5.7280  -26.2610 C   0  0  0  0  0  3  0  0  0  0  0  0
    0.1460   -7.0700  -26.4710 C   0  0  0  0  0  0  0  0  0  0  0  0
    1.0920   -7.3440  -27.4700 C   0  0  0  0  0  3  0  0  0  0  0  0
    3.6540   -7.2340  -29.4560 C   0  0  0  0  0  0  0  0  0  0  0  0
    4.3680   -7.0380  -30.4400 O   0  0  0  0  0  0  0  0  0  0  0  0
    2.4570   -6.5550  -29.3680 N   0  0  0  0  0  0  0  0  0  0  0  0
    2.1370   -6.2140  -30.2670 H   0  0  0  0  0  0  0  0  0  0  0  0
    4.3380   -9.9470  -27.0960 C   0  0  0  0  0  0  0  0  0  0  0  0
    3.9810   -9.5830  -28.4170 C   0  0  0  0  0  3  0  0  0  0  0  0
    4.0120   -8.2020  -28.4510 C   0  0  0  0  0  0  0  0  0  0  0  0
    4.5660   -7.8450  -27.2540 N   0  0  0  0  0  0  0  0  0  0  0  0
    4.7220   -8.8700  -26.3990 N   0  0  0  0  0  0  0  0  0  0  0  0
    4.8170   -6.9090  -26.9510 H   0  0  0  0  0  0  0  0  0  0  0  0
    3.0330  -11.5870  -25.6960 C   0  0  0  0  0  1  0  0  0  0  0  0
    4.3350  -11.3170  -26.4620 C   0  0  0  0  0  3  0  0  0  0  0  0
    4.5470  -12.4460  -27.4770 C   0  0  0  0  0  1  0  0  0  0  0  0
   -0.5280   -8.2070  -25.7130 C   0  0  0  0  0  2  0  0  0  0  0  0
   -0.3540   -8.0980  -24.2750 N   0  0  0  0  0  0  0  0  0  0  0  0
    0.2520   -7.3810  -23.9120 H   0  0  0  0  0  0  0  0  0  0  0  0
   -1.2480   -8.7580  -23.4430 C   0  0  0  0  0  0  0  0  0  0  0  0
   -2.0930   -7.9880  -22.7340 N   0  0  0  0  0  0  0  0  0  0  0  0
   -2.6780   -8.5510  -21.6790 C   0  0  0  0  0  3  0  0  0  0  0  0
   -2.4180   -9.7720  -21.2130 N   0  0  0  0  0  0  0  0  0  0  0  0
   -1.6140  -10.5610  -21.9510 C   0  0  0  0  0  0  0  0  0  0  0  0
   -1.2450  -11.8400  -21.5200 C   0  0  0  0  0  0  0  0  0  0  0  0
   -0.5070  -12.7340  -22.3090 C   0  0  0  0  0  3  0  0  0  0  0  0
   -0.0550  -12.3270  -23.5530 C   0  0  0  0  0  3  0  0  0  0  0  0
   -0.2970  -11.0180  -23.9600 C   0  0  0  0  0  3  0  0  0  0  0  0
   -1.0610  -10.1240  -23.1620 C   0  0  0  0  0  0  0  0  0  0  0  0
   -1.4790  -12.2410  -20.1230 C   0  0  0  0  0  0  0  0  0  0  0  0
   -2.7930  -12.4480  -19.7980 N   0  0  0  0  0  0  0  0  0  0  0  0
   -0.5800  -12.2680  -19.2950 O   0  0  0  0  0  0  0  0  0  0  0  0
   -3.0220  -12.6860  -18.8430 H   0  0  0  0  0  0  0  0  0  0  0  0
   -3.5380  -12.3870  -20.4780 H   0  0  0  0  0  0  0  0  0  0  0  0
  1  2  2  0  0  0  0
  1  6  1  0  0  0  0
  2  3  1  0  0  0  0
  3  4  2  0  0  0  0
  5  4  1  0  0  0  0
  5 20  1  0  0  0  0
  6  5  2  0  0  0  0
  7  9  1  0  0  0  0
  7 13  1  0  0  0  0
  8  7  2  0  0  0  0
  9  1  1  0  0  0  0
 10  9  1  0  0  0  0
 11 18  1  0  0  0  0
 11 15  2  0  0  0  0
 12 11  1  0  0  0  0
 13 12  2  0  0  0  0
 13 14  1  0  0  0  0
 14 16  1  0  0  0  0
 14 15  1  0  0  0  0
 18 17  1  0  0  0  0
 19 18  1  0  0  0  0
 20 21  1  0  0  0  0
 21 22  1  0  0  0  0
 21 23  1  0  0  0  0
 23 32  2  0  0  0  0
 23 24  1  0  0  0  0
 24 25  2  0  0  0  0
 25 26  1  0  0  0  0
 27 28  1  0  0  0  0
 27 26  2  0  0  0  0
 28 33  1  0  0  0  0
 29 28  2  0  0  0  0
 30 29  1  0  0  0  0
 31 30  2  0  0  0  0
 31 32  1  0  0  0  0
 32 27  1  0  0  0  0
 33 34  1  0  0  0  0
 33 35  2  0  0  0  0
 34 36  1  0  0  0  0
 37 34  1  0  0  0  0
M  END
>  <minimizedAffinity>
-9.86884022

$$$$

 OpenBabel10152419513D

 37 40  0  0  0  0  0  0  0  0999 V2000
   -1.5360  -10.8200  -21.4810 C   0  0  0  0  0  0  0  0  0  0  0  0
   -1.1530  -11.9330  -20.7330 C   0  0  0  0  0  3  0  0  0  0  0  0
   -0.4340  -12.9570  -21.3390 C   0  0  0  0  0  3  0  0  0  0  0  0
   -0.0700  -12.8510  -22.6820 C   0  0  0  0  0  3  0  0  0  0  0  0
   -0.3420  -11.6930  -23.4270 C   0  0  0  0  0  0  0  0  0  0  0  0
   -1.0670  -10.6710  -22.7960 C   0  0  0  0  0  3  0  0  0  0  0  0
   -2.5250   -8.5380  -21.0590 C   0  0  0  0  0  0  0  0  0  0  0  0
   -3.0940   -7.8750  -20.1930 O   0  0  0  0  0  0  0  0  0  0  0  0
   -2.4000   -9.8980  -20.8690 N   0  0  0  0  0  0  0  0  0  0  0  0
   -3.0670  -10.2590  -20.1970 H   0  0  0  0  0  0  0  0  0  0  0  0
   -1.5550   -7.2790  -24.3570 C   0  0  0  0  0  0  0  0  0  0  0  0
   -2.5150   -7.9800  -23.5880 C   0  0  0  0  0  3  0  0  0  0  0  0
   -2.0630   -7.9340  -22.2830 C   0  0  0  0  0  0  0  0  0  0  0  0
   -1.0100   -7.0650  -22.3190 N   0  0  0  0  0  0  0  0  0  0  0  0
   -0.6480   -6.6980  -23.5600 N   0  0  0  0  0  0  0  0  0  0  0  0
   -0.4720   -6.7230  -21.5290 H   0  0  0  0  0  0  0  0  0  0  0  0
   -0.5630   -5.9650  -26.2670 C   0  0  0  0  0  1  0  0  0  0  0  0
   -1.4720   -7.1320  -25.8570 C   0  0  0  0  0  3  0  0  0  0  0  0
   -0.9770   -8.4050  -26.5550 C   0  0  0  0  0  1  0  0  0  0  0  0
    0.0500  -11.5710  -24.8940 C   0  0  0  0  0  2  0  0  0  0  0  0
    1.4860  -11.6560  -25.0950 N   0  0  0  0  0  0  0  0  0  0  0  0
    1.8970  -12.5530  -25.2930 H   0  0  0  0  0  0  0  0  0  0  0  0
    2.1990  -10.4860  -25.3190 C   0  0  0  0  0  0  0  0  0  0  0  0
    1.8400   -9.4130  -24.5910 N   0  0  0  0  0  0  0  0  0  0  0  0
    2.2310   -8.2220  -25.0410 C   0  0  0  0  0  3  0  0  0  0  0  0
    2.8560   -8.0020  -26.1980 N   0  0  0  0  0  0  0  0  0  0  0  0
    3.2620   -9.0780  -26.9000 C   0  0  0  0  0  0  0  0  0  0  0  0
    3.8810   -8.9490  -28.1470 C   0  0  0  0  0  0  0  0  0  0  0  0
    4.4210  -10.0320  -28.8540 C   0  0  0  0  0  3  0  0  0  0  0  0
    4.2870  -11.3110  -28.3410 C   0  0  0  0  0  3  0  0  0  0  0  0
    3.5650  -11.4900  -27.1640 C   0  0  0  0  0  3  0  0  0  0  0  0
    3.0370  -10.3840  -26.4450 C   0  0  0  0  0  0  0  0  0  0  0  0
    3.8390   -7.6610  -28.8600 C   0  0  0  0  0  0  0  0  0  0  0  0
    4.4230   -6.6170  -28.1930 N   0  0  0  0  0  0  0  0  0  0  0  0
    3.2240   -7.5160  -29.9060 O   0  0  0  0  0  0  0  0  0  0  0  0
    4.3900   -5.6980  -28.6120 H   0  0  0  0  0  0  0  0  0  0  0  0
    4.8980   -6.7330  -27.3080 H   0  0  0  0  0  0  0  0  0  0  0  0
  1  9  1  0  0  0  0
  1  2  1  0  0  0  0
  3  2  2  0  0  0  0
  4  3  1  0  0  0  0
  5  6  1  0  0  0  0
  5  4  2  0  0  0  0
  6  1  2  0  0  0  0
  7  9  1  0  0  0  0
  7  8  2  0  0  0  0
  9 10  1  0  0  0  0
 11 12  1  0  0  0  0
 11 15  2  0  0  0  0
 12 13  2  0  0  0  0
 13  7  1  0  0  0  0
 14 13  1  0  0  0  0
 14 16  1  0  0  0  0
 15 14  1  0  0  0  0
 17 18  1  0  0  0  0
 18 11  1  0  0  0  0
 19 18  1  0  0  0  0
 20  5  1  0  0  0  0
 21 20  1  0  0  0  0
 22 21  1  0  0  0  0
 23 21  1  0  0  0  0
 23 24  1  0  0  0  0
 25 24  2  0  0  0  0
 26 25  1  0  0  0  0
 27 32  1  0  0  0  0
 27 26  2  0  0  0  0
 28 27  1  0  0  0  0
 29 30  1  0  0  0  0
 29 28  2  0  0  0  0
 30 31  2  0  0  0  0
 31 32  1  0  0  0  0
 32 23  2  0  0  0  0
 33 34  1  0  0  0  0
 33 28  1  0  0  0  0
 34 37  1  0  0  0  0
 35 33  2  0  0  0  0
 36 34  1  0  0  0  0
M  END
>  <minimizedAffinity>
-9.57029819

$$$$

 OpenBabel10152419513D

 37 40  0  0  0  0  0  0  0  0999 V2000
    0.3750  -12.6000  -23.5980 C   0  0  0  0  0  0  0  0  0  0  0  0
   -0.5480  -12.8920  -24.6030 C   0  0  0  0  0  3  0  0  0  0  0  0
   -0.3370  -12.4160  -25.8920 C   0  0  0  0  0  3  0  0  0  0  0  0
    0.8120  -11.6790  -26.1820 C   0  0  0  0  0  3  0  0  0  0  0  0
    1.8120  -11.4690  -25.2190 C   0  0  0  0  0  0  0  0  0  0  0  0
    1.5800  -11.9580  -23.9250 C   0  0  0  0  0  3  0  0  0  0  0  0
   -0.5180  -12.2000  -21.2730 C   0  0  0  0  0  0  0  0  0  0  0  0
   -0.4230  -12.6080  -20.1160 O   0  0  0  0  0  0  0  0  0  0  0  0
    0.0320  -12.9590  -22.2840 N   0  0  0  0  0  0  0  0  0  0  0  0
    0.1720  -13.9250  -22.0130 H   0  0  0  0  0  0  0  0  0  0  0  0
   -2.0890   -9.0660  -22.3270 C   0  0  0  0  0  0  0  0  0  0  0  0
   -1.2350  -10.1410  -22.6710 C   0  0  0  0  0  3  0  0  0  0  0  0
   -1.2480  -10.9980  -21.5860 C   0  0  0  0  0  0  0  0  0  0  0  0
   -2.2320  -10.5060  -20.7770 N   0  0  0  0  0  0  0  0  0  0  0  0
   -2.7160   -9.3150  -21.1700 N   0  0  0  0  0  0  0  0  0  0  0  0
   -2.5800  -10.9190  -19.9170 H   0  0  0  0  0  0  0  0  0  0  0  0
   -3.8310   -7.5860  -23.3900 C   0  0  0  0  0  1  0  0  0  0  0  0
   -2.3410   -7.7830  -23.0810 C   0  0  0  0  0  3  0  0  0  0  0  0
   -1.8290   -6.5430  -22.3370 C   0  0  0  0  0  1  0  0  0  0  0  0
    3.0680  -10.6640  -25.5280 C   0  0  0  0  0  2  0  0  0  0  0  0
    2.8800   -9.2390  -25.3200 N   0  0  0  0  0  0  0  0  0  0  0  0
    3.1350   -8.8390  -24.4330 H   0  0  0  0  0  0  0  0  0  0  0  0
    2.6590   -8.4280  -26.4260 C   0  0  0  0  0  0  0  0  0  0  0  0
    3.7340   -8.1260  -27.1760 N   0  0  0  0  0  0  0  0  0  0  0  0
    3.6250   -7.0760  -27.9880 C   0  0  0  0  0  3  0  0  0  0  0  0
    2.5820   -6.2470  -28.0420 N   0  0  0  0  0  0  0  0  0  0  0  0
    1.4870   -6.5790  -27.3310 C   0  0  0  0  0  0  0  0  0  0  0  0
    0.3630   -5.7480  -27.2860 C   0  0  0  0  0  0  0  0  0  0  0  0
   -0.8360   -6.1100  -26.6550 C   0  0  0  0  0  3  0  0  0  0  0  0
   -0.9100   -7.3170  -25.9810 C   0  0  0  0  0  3  0  0  0  0  0  0
    0.2300   -8.1120  -25.8990 C   0  0  0  0  0  3  0  0  0  0  0  0
    1.4360   -7.7460  -26.5560 C   0  0  0  0  0  0  0  0  0  0  0  0
    0.4550   -4.3590  -27.7660 C   0  0  0  0  0  0  0  0  0  0  0  0
    1.2720   -4.1800  -28.8500 N   0  0  0  0  0  0  0  0  0  0  0  0
   -0.0630   -3.4290  -27.1660 O   0  0  0  0  0  0  0  0  0  0  0  0
    1.4090   -3.2430  -29.2020 H   0  0  0  0  0  0  0  0  0  0  0  0
    1.7290   -4.9500  -29.3210 H   0  0  0  0  0  0  0  0  0  0  0  0
  1  9  1  0  0  0  0
  2  1  2  0  0  0  0
  3  2  1  0  0  0  0
  4  3  2  0  0  0  0
  4  5  1  0  0  0  0
  5  6  2  0  0  0  0
  6  1  1  0  0  0  0
  7  8  2  0  0  0  0
  9 10  1  0  0  0  0
  9  7  1  0  0  0  0
 11 15  2  0  0  0  0
 12 11  1  0  0  0  0
 12 13  2  0  0  0  0
 13  7  1  0  0  0  0
 13 14  1  0  0  0  0
 14 16  1  0  0  0  0
 15 14  1  0  0  0  0
 17 18  1  0  0  0  0
 18 19  1  0  0  0  0
 18 11  1  0  0  0  0
 20 21  1  0  0  0  0
 20  5  1  0  0  0  0
 21 22  1  0  0  0  0
 23 21  1  0  0  0  0
 24 23  2  0  0  0  0
 25 24  1  0  0  0  0
 26 25  2  0  0  0  0
 26 27  1  0  0  0  0
 27 28  2  0  0  0  0
 27 32  1  0  0  0  0
 28 29  1  0  0  0  0
 29 30  2  0  0  0  0
 30 31  1  0  0  0  0
 32 23  1  0  0  0  0
 32 31  2  0  0  0  0
 33 28  1  0  0  0  0
 33 35  2  0  0  0  0
 34 33  1  0  0  0  0
 36 34  1  0  0  0  0
 37 34  1  0  0  0  0
M  END
>  <minimizedAffinity>
-9.39983654

$$$$

 OpenBabel10152419513D

 37 40  0  0  0  0  0  0  0  0999 V2000
    3.3380   -8.8830  -27.0320 C   0  0  0  0  0  0  0  0  0  0  0  0
    3.0680   -8.0260  -25.9660 C   0  0  0  0  0  3  0  0  0  0  0  0
    2.4700   -8.5250  -24.8140 C   0  0  0  0  0  3  0  0  0  0  0  0
    2.1760   -9.8850  -24.7170 C   0  0  0  0  0  3  0  0  0  0  0  0
    2.5410  -10.7890  -25.7270 C   0  0  0  0  0  0  0  0  0  0  0  0
    3.1440  -10.2650  -26.8800 C   0  0  0  0  0  3  0  0  0  0  0  0
    3.1860   -7.3530  -29.0320 C   0  0  0  0  0  0  0  0  0  0  0  0
    3.5790   -7.2340  -30.1920 O   0  0  0  0  0  0  0  0  0  0  0  0
    3.7850   -8.3010  -28.2300 N   0  0  0  0  0  0  0  0  0  0  0  0
    4.6970   -8.5790  -28.5720 H   0  0  0  0  0  0  0  0  0  0  0  0
    0.4090   -5.4530  -27.5890 C   0  0  0  0  0  0  0  0  0  0  0  0
    1.0980   -6.6890  -27.6520 C   0  0  0  0  0  3  0  0  0  0  0  0
    2.1780   -6.4790  -28.4880 C   0  0  0  0  0  0  0  0  0  0  0  0
    2.1860   -5.1290  -28.7000 N   0  0  0  0  0  0  0  0  0  0  0  0
    1.1030   -4.4950  -28.2170 N   0  0  0  0  0  0  0  0  0  0  0  0
    2.8830   -4.5940  -29.2080 H   0  0  0  0  0  0  0  0  0  0  0  0
   -1.2780   -6.1840  -25.8640 C   0  0  0  0  0  1  0  0  0  0  0  0
   -0.9140   -5.1430  -26.9310 C   0  0  0  0  0  3  0  0  0  0  0  0
   -0.9480   -3.7510  -26.2870 C   0  0  0  0  0  1  0  0  0  0  0  0
    2.2210  -12.2750  -25.6300 C   0  0  0  0  0  2  0  0  0  0  0  0
    0.9200  -12.6030  -26.1880 N   0  0  0  0  0  0  0  0  0  0  0  0
    0.8130  -13.4630  -26.6990 H   0  0  0  0  0  0  0  0  0  0  0  0
   -0.1910  -11.8980  -25.7450 C   0  0  0  0  0  0  0  0  0  0  0  0
   -0.7090  -10.9930  -26.5940 N   0  0  0  0  0  0  0  0  0  0  0  0
   -1.5070  -10.0640  -26.0720 C   0  0  0  0  0  3  0  0  0  0  0  0
   -1.7500   -9.9000  -24.7710 N   0  0  0  0  0  0  0  0  0  0  0  0
   -1.2770  -10.8370  -23.9270 C   0  0  0  0  0  0  0  0  0  0  0  0
   -1.4390  -10.7240  -22.5420 C   0  0  0  0  0  0  0  0  0  0  0  0
   -1.0650  -11.7300  -21.6400 C   0  0  0  0  0  3  0  0  0  0  0  0
   -0.4410  -12.8710  -22.1170 C   0  0  0  0  0  3  0  0  0  0  0  0
   -0.1500  -12.9590  -23.4750 C   0  0  0  0  0  3  0  0  0  0  0  0
   -0.5490  -11.9430  -24.3850 C   0  0  0  0  0  0  0  0  0  0  0  0
   -1.8660   -9.4440  -21.9520 C   0  0  0  0  0  0  0  0  0  0  0  0
   -1.1040   -8.3650  -22.3120 N   0  0  0  0  0  0  0  0  0  0  0  0
   -2.7540   -9.3780  -21.1160 O   0  0  0  0  0  0  0  0  0  0  0  0
   -1.3210   -7.4650  -21.9080 H   0  0  0  0  0  0  0  0  0  0  0  0
   -0.3440   -8.4320  -22.9760 H   0  0  0  0  0  0  0  0  0  0  0  0
  1  6  2  0  0  0  0
  1  2  1  0  0  0  0
  2  3  2  0  0  0  0
  3  4  1  0  0  0  0
  5 20  1  0  0  0  0
  5  4  2  0  0  0  0
  6  5  1  0  0  0  0
  7 13  1  0  0  0  0
  7  9  1  0  0  0  0
  8  7  2  0  0  0  0
  9  1  1  0  0  0  0
 10  9  1  0  0  0  0
 11 18  1  0  0  0  0
 12 11  1  0  0  0  0
 13 12  2  0  0  0  0
 14 13  1  0  0  0  0
 14 15  1  0  0  0  0
 15 11  2  0  0  0  0
 16 14  1  0  0  0  0
 18 19  1  0  0  0  0
 18 17  1  0  0  0  0
 21 23  1  0  0  0  0
 21 20  1  0  0  0  0
 22 21  1  0  0  0  0
 23 32  1  0  0  0  0
 24 25  1  0  0  0  0
 24 23  2  0  0  0  0
 25 26  2  0  0  0  0
 26 27  1  0  0  0  0
 27 28  1  0  0  0  0
 28 33  1  0  0  0  0
 28 29  2  0  0  0  0
 30 29  1  0  0  0  0
 31 30  2  0  0  0  0
 32 27  2  0  0  0  0
 32 31  1  0  0  0  0
 33 35  2  0  0  0  0
 34 33  1  0  0  0  0
 34 36  1  0  0  0  0
 37 34  1  0  0  0  0
M  END
>  <minimizedAffinity>
-8.97473145

$$$$

 OpenBabel10152419513D

 37 40  0  0  0  0  0  0  0  0999 V2000
   -1.6880   -7.2390  -22.9750 C   0  0  0  0  0  0  0  0  0  0  0  0
   -2.7360   -7.7650  -23.7310 C   0  0  0  0  0  3  0  0  0  0  0  0
   -2.7170   -7.6410  -25.1150 C   0  0  0  0  0  3  0  0  0  0  0  0
   -1.6360   -7.0210  -25.7430 C   0  0  0  0  0  3  0  0  0  0  0  0
   -0.5160   -6.5850  -25.0170 C   0  0  0  0  0  0  0  0  0  0  0  0
   -0.5550   -6.7210  -23.6210 C   0  0  0  0  0  3  0  0  0  0  0  0
   -2.0660   -8.2910  -20.7130 C   0  0  0  0  0  0  0  0  0  0  0  0
   -2.4980   -8.0400  -19.5880 O   0  0  0  0  0  0  0  0  0  0  0  0
   -1.8370   -7.2420  -21.5780 N   0  0  0  0  0  0  0  0  0  0  0  0
   -1.7400   -6.3560  -21.0960 H   0  0  0  0  0  0  0  0  0  0  0  0
   -1.1130  -11.5610  -22.0550 C   0  0  0  0  0  0  0  0  0  0  0  0
   -0.9280  -10.1580  -22.1010 C   0  0  0  0  0  3  0  0  0  0  0  0
   -1.7330   -9.6370  -21.1050 C   0  0  0  0  0  0  0  0  0  0  0  0
   -2.1720  -10.7310  -20.4160 N   0  0  0  0  0  0  0  0  0  0  0  0
   -1.8610  -11.9020  -20.9970 N   0  0  0  0  0  0  0  0  0  0  0  0
   -2.7290  -10.7360  -19.5670 H   0  0  0  0  0  0  0  0  0  0  0  0
   -0.7450  -12.1930  -24.4680 C   0  0  0  0  0  1  0  0  0  0  0  0
   -0.5860  -12.6130  -23.0000 C   0  0  0  0  0  3  0  0  0  0  0  0
    0.8870  -12.9590  -22.7480 C   0  0  0  0  0  1  0  0  0  0  0  0
    0.6670   -5.9060  -25.6950 C   0  0  0  0  0  2  0  0  0  0  0  0
    0.9880   -6.5010  -26.9800 N   0  0  0  0  0  0  0  0  0  0  0  0
    0.4350   -6.2530  -27.7840 H   0  0  0  0  0  0  0  0  0  0  0  0
    2.2140   -7.1340  -27.1340 C   0  0  0  0  0  0  0  0  0  0  0  0
    3.0210   -6.6590  -28.0990 N   0  0  0  0  0  0  0  0  0  0  0  0
    4.0020   -7.4590  -28.5110 C   0  0  0  0  0  3  0  0  0  0  0  0
    4.1840   -8.7210  -28.1210 N   0  0  0  0  0  0  0  0  0  0  0  0
    3.4110   -9.1790  -27.1170 C   0  0  0  0  0  0  0  0  0  0  0  0
    3.4950  -10.5020  -26.6720 C   0  0  0  0  0  0  0  0  0  0  0  0
    2.7930  -10.9840  -25.5580 C   0  0  0  0  0  3  0  0  0  0  0  0
    1.9180  -10.1440  -24.8920 C   0  0  0  0  0  3  0  0  0  0  0  0
    1.7150   -8.8580  -25.3840 C   0  0  0  0  0  3  0  0  0  0  0  0
    2.4440   -8.3710  -26.5030 C   0  0  0  0  0  0  0  0  0  0  0  0
    4.2100  -11.5050  -27.4780 C   0  0  0  0  0  0  0  0  0  0  0  0
    4.1400  -11.3100  -28.8310 N   0  0  0  0  0  0  0  0  0  0  0  0
    4.7210  -12.4970  -26.9780 O   0  0  0  0  0  0  0  0  0  0  0  0
    4.5770  -11.9880  -29.4400 H   0  0  0  0  0  0  0  0  0  0  0  0
    3.6830  -10.5070  -29.2430 H   0  0  0  0  0  0  0  0  0  0  0  0
  1  9  1  0  0  0  0
  2  1  2  0  0  0  0
  3  2  1  0  0  0  0
  4  3  2  0  0  0  0
  4  5  1  0  0  0  0
  5  6  2  0  0  0  0
  6  1  1  0  0  0  0
  7  8  2  0  0  0  0
  9 10  1  0  0  0  0
  9  7  1  0  0  0  0
 11 15  2  0  0  0  0
 12 11  1  0  0  0  0
 12 13  2  0  0  0  0
 13  7  1  0  0  0  0
 13 14  1  0  0  0  0
 14 16  1  0  0  0  0
 15 14  1  0  0  0  0
 17 18  1  0  0  0  0
 18 19  1  0  0  0  0
 18 11  1  0  0  0  0
 20  5  1  0  0  0  0
 21 20  1  0  0  0  0
 22 21  1  0  0  0  0
 23 21  1  0  0  0  0
 23 32  1  0  0  0  0
 24 23  2  0  0  0  0
 25 26  2  0  0  0  0
 25 24  1  0  0  0  0
 26 27  1  0  0  0  0
 27 28  2  0  0  0  0
 27 32  1  0  0  0  0
 28 29  1  0  0  0  0
 29 30  2  0  0  0  0
 31 30  1  0  0  0  0
 32 31  2  0  0  0  0
 33 35  2  0  0  0  0
 33 28  1  0  0  0  0
 34 33  1  0  0  0  0
 36 34  1  0  0  0  0
 37 34  1  0  0  0  0
M  END
>  <minimizedAffinity>
-8.42417145

$$$$

 OpenBabel10152419513D

 37 40  0  0  0  0  0  0  0  0999 V2000
    1.2980   -6.0290  -28.0160 C   0  0  0  0  0  0  0  0  0  0  0  0
    1.0660   -4.6680  -27.8150 C   0  0  0  0  0  3  0  0  0  0  0  0
    0.0070   -4.2600  -27.0110 C   0  0  0  0  0  3  0  0  0  0  0  0
   -0.7950   -5.2130  -26.3820 C   0  0  0  0  0  3  0  0  0  0  0  0
   -0.5150   -6.5850  -26.4740 C   0  0  0  0  0  0  0  0  0  0  0  0
    0.5580   -6.9750  -27.2900 C   0  0  0  0  0  3  0  0  0  0  0  0
    3.3360   -7.2510  -28.8610 C   0  0  0  0  0  0  0  0  0  0  0  0
    4.2490   -7.1600  -29.6830 O   0  0  0  0  0  0  0  0  0  0  0  0
    2.2700   -6.3830  -28.9660 N   0  0  0  0  0  0  0  0  0  0  0  0
    2.1880   -5.9770  -29.8900 H   0  0  0  0  0  0  0  0  0  0  0  0
    3.2240  -10.1200  -26.5910 C   0  0  0  0  0  0  0  0  0  0  0  0
    3.4060   -9.6610  -27.9180 C   0  0  0  0  0  3  0  0  0  0  0  0
    3.3340   -8.2820  -27.8560 C   0  0  0  0  0  0  0  0  0  0  0  0
    3.3210   -8.0030  -26.5190 N   0  0  0  0  0  0  0  0  0  0  0  0
    3.2000   -9.0890  -25.7360 N   0  0  0  0  0  0  0  0  0  0  0  0
    3.3480   -7.0850  -26.0860 H   0  0  0  0  0  0  0  0  0  0  0  0
    2.7000  -12.5030  -27.2280 C   0  0  0  0  0  1  0  0  0  0  0  0
    3.0770  -11.5380  -26.0950 C   0  0  0  0  0  3  0  0  0  0  0  0
    4.3420  -12.0640  -25.4060 C   0  0  0  0  0  1  0  0  0  0  0  0
   -1.3880   -7.6320  -25.7930 C   0  0  0  0  0  2  0  0  0  0  0  0
   -0.9870   -8.9890  -26.1190 N   0  0  0  0  0  0  0  0  0  0  0  0
   -0.8040   -9.2250  -27.0800 H   0  0  0  0  0  0  0  0  0  0  0  0
   -0.5660   -9.8250  -25.0930 C   0  0  0  0  0  0  0  0  0  0  0  0
   -0.1190  -11.0410  -25.4520 N   0  0  0  0  0  0  0  0  0  0  0  0
   -0.0730  -11.9710  -24.5000 C   0  0  0  0  0  3  0  0  0  0  0  0
   -0.5280  -11.8230  -23.2550 N   0  0  0  0  0  0  0  0  0  0  0  0
   -0.9260  -10.5910  -22.8810 C   0  0  0  0  0  0  0  0  0  0  0  0
   -1.4630  -10.3490  -21.6120 C   0  0  0  0  0  0  0  0  0  0  0  0
   -1.7800   -9.0660  -21.1440 C   0  0  0  0  0  3  0  0  0  0  0  0
   -1.6240   -7.9790  -21.9870 C   0  0  0  0  0  3  0  0  0  0  0  0
   -1.2110   -8.1990  -23.2980 C   0  0  0  0  0  3  0  0  0  0  0  0
   -0.8750   -9.5010  -23.7590 C   0  0  0  0  0  0  0  0  0  0  0  0
   -1.8830  -11.4760  -20.7630 C   0  0  0  0  0  0  0  0  0  0  0  0
   -0.8640  -12.1020  -20.0960 N   0  0  0  0  0  0  0  0  0  0  0  0
   -3.0330  -11.8900  -20.7540 O   0  0  0  0  0  0  0  0  0  0  0  0
   -1.0830  -12.9090  -19.5280 H   0  0  0  0  0  0  0  0  0  0  0  0
    0.0930  -11.7790  -20.1370 H   0  0  0  0  0  0  0  0  0  0  0  0
  1  2  2  0  0  0  0
  1  6  1  0  0  0  0
  2  3  1  0  0  0  0
  3  4  2  0  0  0  0
  5  4  1  0  0  0  0
  5 20  1  0  0  0  0
  6  5  2  0  0  0  0
  7 13  1  0  0  0  0
  8  7  2  0  0  0  0
  9  7  1  0  0  0  0
  9  1  1  0  0  0  0
 10  9  1  0  0  0  0
 11 18  1  0  0  0  0
 11 15  2  0  0  0  0
 12 13  2  0  0  0  0
 12 11  1  0  0  0  0
 13 14  1  0  0  0  0
 14 16  1  0  0  0  0
 14 15  1  0  0  0  0
 17 18  1  0  0  0  0
 18 19  1  0  0  0  0
 21 20  1  0  0  0  0
 21 23  1  0  0  0  0
 22 21  1  0  0  0  0
 23 32  1  0  0  0  0
 24 23  2  0  0  0  0
 24 25  1  0  0  0  0
 25 26  2  0  0  0  0
 26 27  1  0  0  0  0
 27 28  1  0  0  0  0
 28 29  2  0  0  0  0
 28 33  1  0  0  0  0
 30 29  1  0  0  0  0
 31 30  2  0  0  0  0
 32 31  1  0  0  0  0
 32 27  2  0  0  0  0
 33 35  2  0  0  0  0
 33 34  1  0  0  0  0
 34 36  1  0  0  0  0
 37 34  1  0  0  0  0
M  END
>  <minimizedAffinity>
-8.32272243

$$$$

 OpenBabel10152419513D

 37 40  0  0  0  0  0  0  0  0999 V2000
   -1.6630   -9.0940  -21.8980 C   0  0  0  0  0  0  0  0  0  0  0  0
   -3.0450   -8.9190  -21.9560 C   0  0  0  0  0  3  0  0  0  0  0  0
   -3.5790   -7.8930  -22.7260 C   0  0  0  0  0  3  0  0  0  0  0  0
   -2.7320   -7.0650  -23.4640 C   0  0  0  0  0  3  0  0  0  0  0  0
   -1.3470   -7.2890  -23.5150 C   0  0  0  0  0  0  0  0  0  0  0  0
   -0.8300   -8.3310  -22.7310 C   0  0  0  0  0  3  0  0  0  0  0  0
   -0.7740  -11.3400  -21.1700 C   0  0  0  0  0  0  0  0  0  0  0  0
   -0.7000  -12.0810  -20.1900 O   0  0  0  0  0  0  0  0  0  0  0  0
   -1.1700  -10.0330  -20.9770 N   0  0  0  0  0  0  0  0  0  0  0  0
   -1.0480   -9.7280  -20.0190 H   0  0  0  0  0  0  0  0  0  0  0  0
    0.5600  -12.3260  -24.4330 C   0  0  0  0  0  0  0  0  0  0  0  0
    0.8400  -12.0060  -23.0830 C   0  0  0  0  0  3  0  0  0  0  0  0
   -0.3860  -11.7920  -22.4820 C   0  0  0  0  0  0  0  0  0  0  0  0
   -1.2980  -12.1850  -23.4210 N   0  0  0  0  0  0  0  0  0  0  0  0
   -0.7590  -12.4590  -24.6210 N   0  0  0  0  0  0  0  0  0  0  0  0
   -2.3050  -12.2420  -23.3090 H   0  0  0  0  0  0  0  0  0  0  0  0
    1.2070  -11.5970  -26.7580 C   0  0  0  0  0  1  0  0  0  0  0  0
    1.5270  -12.5220  -25.5760 C   0  0  0  0  0  3  0  0  0  0  0  0
    2.9890  -12.3030  -25.1660 C   0  0  0  0  0  1  0  0  0  0  0  0
   -0.4160   -6.3880  -24.3160 C   0  0  0  0  0  2  0  0  0  0  0  0
   -0.5540   -6.5790  -25.7490 N   0  0  0  0  0  0  0  0  0  0  0  0
   -1.4660   -6.7720  -26.1290 H   0  0  0  0  0  0  0  0  0  0  0  0
    0.4890   -6.1860  -26.5780 C   0  0  0  0  0  0  0  0  0  0  0  0
    0.2270   -5.1950  -27.4480 N   0  0  0  0  0  0  0  0  0  0  0  0
    1.0590   -5.0640  -28.4790 C   0  0  0  0  0  3  0  0  0  0  0  0
    2.0600   -5.8940  -28.7730 N   0  0  0  0  0  0  0  0  0  0  0  0
    2.3550   -6.8540  -27.8740 C   0  0  0  0  0  0  0  0  0  0  0  0
    3.3570   -7.8000  -28.1160 C   0  0  0  0  0  0  0  0  0  0  0  0
    3.7720   -8.7400  -27.1620 C   0  0  0  0  0  3  0  0  0  0  0  0
    3.1270   -8.7940  -25.9380 C   0  0  0  0  0  3  0  0  0  0  0  0
    2.0430   -7.9510  -25.7120 C   0  0  0  0  0  3  0  0  0  0  0  0
    1.6400   -6.9890  -26.6770 C   0  0  0  0  0  0  0  0  0  0  0  0
    3.9080   -7.9580  -29.4720 C   0  0  0  0  0  0  0  0  0  0  0  0
    4.5350   -6.8470  -29.9690 N   0  0  0  0  0  0  0  0  0  0  0  0
    3.7130   -8.9630  -30.1400 O   0  0  0  0  0  0  0  0  0  0  0  0
    4.8990   -6.8790  -30.9110 H   0  0  0  0  0  0  0  0  0  0  0  0
    4.6610   -6.0040  -29.4260 H   0  0  0  0  0  0  0  0  0  0  0  0
  1  9  1  0  0  0  0
  2  1  1  0  0  0  0
  3  2  2  0  0  0  0
  4  3  1  0  0  0  0
  5  4  2  0  0  0  0
  5  6  1  0  0  0  0
  6  1  2  0  0  0  0
  7  9  1  0  0  0  0
  7  8  2  0  0  0  0
  9 10  1  0  0  0  0
 11 12  1  0  0  0  0
 12 13  2  0  0  0  0
 13  7  1  0  0  0  0
 14 16  1  0  0  0  0
 14 13  1  0  0  0  0
 15 11  2  0  0  0  0
 15 14  1  0  0  0  0
 17 18  1  0  0  0  0
 18 19  1  0  0  0  0
 18 11  1  0  0  0  0
 20  5  1  0  0  0  0
 21 20  1  0  0  0  0
 22 21  1  0  0  0  0
 23 21  1  0  0  0  0
 24 23  2  0  0  0  0
 25 24  1  0  0  0  0
 26 25  2  0  0  0  0
 26 27  1  0  0  0  0
 27 32  1  0  0  0  0
 28 27  2  0  0  0  0
 28 29  1  0  0  0  0
 29 30  2  0  0  0  0
 30 31  1  0  0  0  0
 32 23  1  0  0  0  0
 32 31  2  0  0  0  0
 33 28  1  0  0  0  0
 34 33  1  0  0  0  0
 34 37  1  0  0  0  0
 35 33  2  0  0  0  0
 36 34  1  0  0  0  0
M  END
>  <minimizedAffinity>
-8.22014809

$$$$

 OpenBabel10152419513D

 37 40  0  0  0  0  0  0  0  0999 V2000
   -0.1880  -12.3300  -24.2890 C   0  0  0  0  0  0  0  0  0  0  0  0
   -1.3030  -11.7920  -24.9330 C   0  0  0  0  0  3  0  0  0  0  0  0
   -1.1420  -11.1010  -26.1280 C   0  0  0  0  0  3  0  0  0  0  0  0
    0.1270  -10.9780  -26.6950 C   0  0  0  0  0  3  0  0  0  0  0  0
    1.2480  -11.6070  -26.1290 C   0  0  0  0  0  0  0  0  0  0  0  0
    1.0630  -12.3000  -24.9240 C   0  0  0  0  0  3  0  0  0  0  0  0
   -0.7340  -12.2460  -21.8270 C   0  0  0  0  0  0  0  0  0  0  0  0
   -0.5200  -12.8350  -20.7670 O   0  0  0  0  0  0  0  0  0  0  0  0
   -0.3830  -12.8690  -23.0060 N   0  0  0  0  0  0  0  0  0  0  0  0
   -0.2840  -13.8710  -22.9020 H   0  0  0  0  0  0  0  0  0  0  0  0
   -2.1930   -8.9090  -22.1910 C   0  0  0  0  0  0  0  0  0  0  0  0
   -1.5100   -9.9810  -22.8140 C   0  0  0  0  0  3  0  0  0  0  0  0
   -1.4020  -10.9700  -21.8540 C   0  0  0  0  0  0  0  0  0  0  0  0
   -2.1790  -10.5270  -20.8220 N   0  0  0  0  0  0  0  0  0  0  0  0
   -2.6220   -9.2680  -20.9740 N   0  0  0  0  0  0  0  0  0  0  0  0
   -2.4030  -11.0270  -19.9670 H   0  0  0  0  0  0  0  0  0  0  0  0
   -1.4800   -6.4910  -22.1650 C   0  0  0  0  0  1  0  0  0  0  0  0
   -2.4650   -7.5250  -22.7290 C   0  0  0  0  0  3  0  0  0  0  0  0
   -2.4180   -7.4580  -24.2600 C   0  0  0  0  0  1  0  0  0  0  0  0
    2.6370  -11.4760  -26.7410 C   0  0  0  0  0  2  0  0  0  0  0  0
    3.4750  -10.5320  -26.0230 N   0  0  0  0  0  0  0  0  0  0  0  0
    4.4460  -10.7550  -25.8780 H   0  0  0  0  0  0  0  0  0  0  0  0
    3.0100   -9.2370  -25.8350 C   0  0  0  0  0  0  0  0  0  0  0  0
    2.3080   -9.0060  -24.7120 N   0  0  0  0  0  0  0  0  0  0  0  0
    1.5490   -7.9120  -24.6910 C   0  0  0  0  0  3  0  0  0  0  0  0
    1.3520   -7.0900  -25.7220 N   0  0  0  0  0  0  0  0  0  0  0  0
    2.0950   -7.2910  -26.8280 C   0  0  0  0  0  0  0  0  0  0  0  0
    1.9250   -6.5110  -27.9770 C   0  0  0  0  0  0  0  0  0  0  0  0
    2.7540   -6.6110  -29.1030 C   0  0  0  0  0  3  0  0  0  0  0  0
    3.7550   -7.5680  -29.1260 C   0  0  0  0  0  3  0  0  0  0  0  0
    3.8710   -8.4440  -28.0510 C   0  0  0  0  0  3  0  0  0  0  0  0
    3.0380   -8.3240  -26.9060 C   0  0  0  0  0  0  0  0  0  0  0  0
    0.7360   -5.6540  -28.1150 C   0  0  0  0  0  0  0  0  0  0  0  0
   -0.4480   -6.2580  -27.7840 N   0  0  0  0  0  0  0  0  0  0  0  0
    0.7950   -4.5340  -28.6020 O   0  0  0  0  0  0  0  0  0  0  0  0
   -1.3050   -5.7340  -27.8960 H   0  0  0  0  0  0  0  0  0  0  0  0
   -0.4960   -7.1990  -27.4170 H   0  0  0  0  0  0  0  0  0  0  0  0
  1  9  1  0  0  0  0
  2  1  2  0  0  0  0
  3  2  1  0  0  0  0
  4  5  1  0  0  0  0
  4  3  2  0  0  0  0
  5  6  2  0  0  0  0
  6  1  1  0  0  0  0
  7  8  2  0  0  0  0
  9 10  1  0  0  0  0
  9  7  1  0  0  0  0
 11 15  2  0  0  0  0
 12 11  1  0  0  0  0
 12 13  2  0  0  0  0
 13  7  1  0  0  0  0
 13 14  1  0  0  0  0
 14 16  1  0  0  0  0
 15 14  1  0  0  0  0
 18 11  1  0  0  0  0
 18 17  1  0  0  0  0
 19 18  1  0  0  0  0
 20  5  1  0  0  0  0
 20 21  1  0  0  0  0
 21 22  1  0  0  0  0
 21 23  1  0  0  0  0
 23 24  1  0  0  0  0
 24 25  2  0  0  0  0
 26 25  1  0  0  0  0
 27 26  2  0  0  0  0
 28 27  1  0  0  0  0
 29 28  2  0  0  0  0
 30 29  1  0  0  0  0
 30 31  2  0  0  0  0
 31 32  1  0  0  0  0
 32 27  1  0  0  0  0
 32 23  2  0  0  0  0
 33 28  1  0  0  0  0
 33 34  1  0  0  0  0
 34 37  1  0  0  0  0
 35 33  2  0  0  0  0
 36 34  1  0  0  0  0
M  END
>  <minimizedAffinity>
-8.02733803

$$$$

 OpenBabel10152419513D

 37 40  0  0  0  0  0  0  0  0999 V2000
    2.9360   -8.9580  -27.0080 C   0  0  0  0  0  0  0  0  0  0  0  0
    3.1470   -8.2040  -25.8540 C   0  0  0  0  0  3  0  0  0  0  0  0
    2.5930   -8.6190  -24.6480 C   0  0  0  0  0  3  0  0  0  0  0  0
    1.8590   -9.8040  -24.5920 C   0  0  0  0  0  3  0  0  0  0  0  0
    1.7270  -10.6410  -25.7110 C   0  0  0  0  0  0  0  0  0  0  0  0
    2.2950  -10.2040  -26.9180 C   0  0  0  0  0  3  0  0  0  0  0  0
    2.8520   -7.3690  -28.9650 C   0  0  0  0  0  0  0  0  0  0  0  0
    3.1750   -7.2720  -30.1490 O   0  0  0  0  0  0  0  0  0  0  0  0
    3.3720   -8.4100  -28.2250 N   0  0  0  0  0  0  0  0  0  0  0  0
    4.2120   -8.7980  -28.6370 H   0  0  0  0  0  0  0  0  0  0  0  0
    0.5050   -5.1630  -27.2270 C   0  0  0  0  0  0  0  0  0  0  0  0
    1.1130   -6.4390  -27.2860 C   0  0  0  0  0  3  0  0  0  0  0  0
    2.0120   -6.3830  -28.3350 C   0  0  0  0  0  0  0  0  0  0  0  0
    2.0350   -5.0640  -28.6910 N   0  0  0  0  0  0  0  0  0  0  0  0
    1.1000   -4.3180  -28.0790 N   0  0  0  0  0  0  0  0  0  0  0  0
    2.6390   -4.6280  -29.3810 H   0  0  0  0  0  0  0  0  0  0  0  0
   -0.3630   -4.9350  -24.8710 C   0  0  0  0  0  1  0  0  0  0  0  0
   -0.6440   -4.7050  -26.3620 C   0  0  0  0  0  3  0  0  0  0  0  0
   -0.9970   -3.2260  -26.5700 C   0  0  0  0  0  1  0  0  0  0  0  0
    0.9260  -11.9350  -25.6580 C   0  0  0  0  0  2  0  0  0  0  0  0
   -0.4420  -11.7250  -25.2180 N   0  0  0  0  0  0  0  0  0  0  0  0
   -1.1790  -12.2580  -25.6480 H   0  0  0  0  0  0  0  0  0  0  0  0
   -0.6620  -11.0460  -24.0260 C   0  0  0  0  0  0  0  0  0  0  0  0
   -0.5500  -11.7640  -22.8940 N   0  0  0  0  0  0  0  0  0  0  0  0
   -1.1120  -11.2540  -21.8000 C   0  0  0  0  0  3  0  0  0  0  0  0
   -1.8580  -10.1490  -21.7590 N   0  0  0  0  0  0  0  0  0  0  0  0
   -1.9260   -9.4040  -22.8790 C   0  0  0  0  0  0  0  0  0  0  0  0
   -2.7210   -8.2550  -22.9480 C   0  0  0  0  0  0  0  0  0  0  0  0
   -2.7300   -7.3910  -24.0510 C   0  0  0  0  0  3  0  0  0  0  0  0
   -1.9700   -7.7050  -25.1650 C   0  0  0  0  0  3  0  0  0  0  0  0
   -1.2650   -8.9050  -25.1800 C   0  0  0  0  0  3  0  0  0  0  0  0
   -1.2480   -9.7670  -24.0500 C   0  0  0  0  0  0  0  0  0  0  0  0
   -3.7310   -7.9970  -21.9070 C   0  0  0  0  0  0  0  0  0  0  0  0
   -3.2330   -7.9080  -20.6350 N   0  0  0  0  0  0  0  0  0  0  0  0
   -4.9280   -7.9850  -22.1520 O   0  0  0  0  0  0  0  0  0  0  0  0
   -3.8810   -7.7710  -19.8720 H   0  0  0  0  0  0  0  0  0  0  0  0
   -2.2440   -7.9570  -20.4320 H   0  0  0  0  0  0  0  0  0  0  0  0
  1  6  2  0  0  0  0
  1  2  1  0  0  0  0
  2  3  2  0  0  0  0
  3  4  1  0  0  0  0
  5 20  1  0  0  0  0
  5  4  2  0  0  0  0
  6  5  1  0  0  0  0
  7 13  1  0  0  0  0
  7  9  1  0  0  0  0
  8  7  2  0  0  0  0
  9  1  1  0  0  0  0
 10  9  1  0  0  0  0
 11 18  1  0  0  0  0
 12 11  1  0  0  0  0
 13 12  2  0  0  0  0
 14 13  1  0  0  0  0
 14 15  1  0  0  0  0
 15 11  2  0  0  0  0
 16 14  1  0  0  0  0
 18 17  1  0  0  0  0
 19 18  1  0  0  0  0
 20 21  1  0  0  0  0
 21 23  1  0  0  0  0
 22 21  1  0  0  0  0
 23 24  1  0  0  0  0
 24 25  2  0  0  0  0
 25 26  1  0  0  0  0
 27 26  2  0  0  0  0
 28 27  1  0  0  0  0
 28 33  1  0  0  0  0
 29 28  2  0  0  0  0
 30 29  1  0  0  0  0
 31 30  2  0  0  0  0
 31 32  1  0  0  0  0
 32 23  2  0  0  0  0
 32 27  1  0  0  0  0
 33 34  1  0  0  0  0
 34 37  1  0  0  0  0
 34 36  1  0  0  0  0
 35 33  2  0  0  0  0
M  END
>  <minimizedAffinity>
-7.92081451

$$$$
