
 OpenBabel10152419513D

 37 40  0  0  0  0  0  0  0  0999 V2000
   -1.6880   -7.2390  -22.9750 C   0  0  0  0  0  0  0  0  0  0  0  0
   -2.7360   -7.7650  -23.7310 C   0  0  0  0  0  3  0  0  0  0  0  0
   -2.7170   -7.6410  -25.1150 C   0  0  0  0  0  3  0  0  0  0  0  0
   -1.6360   -7.0210  -25.7430 C   0  0  0  0  0  3  0  0  0  0  0  0
   -0.5160   -6.5850  -25.0170 C   0  0  0  0  0  0  0  0  0  0  0  0
   -0.5550   -6.7210  -23.6210 C   0  0  0  0  0  3  0  0  0  0  0  0
   -2.0660   -8.2910  -20.7130 C   0  0  0  0  0  0  0  0  0  0  0  0
   -2.4980   -8.0400  -19.5880 O   0  0  0  0  0  0  0  0  0  0  0  0
   -1.8370   -7.2420  -21.5780 N   0  0  0  0  0  0  0  0  0  0  0  0
   -1.7400   -6.3560  -21.0960 H   0  0  0  0  0  0  0  0  0  0  0  0
   -1.1130  -11.5610  -22.0550 C   0  0  0  0  0  0  0  0  0  0  0  0
   -0.9280  -10.1580  -22.1010 C   0  0  0  0  0  3  0  0  0  0  0  0
   -1.7330   -9.6370  -21.1050 C   0  0  0  0  0  0  0  0  0  0  0  0
   -2.1720  -10.7310  -20.4160 N   0  0  0  0  0  0  0  0  0  0  0  0
   -1.8610  -11.9020  -20.9970 N   0  0  0  0  0  0  0  0  0  0  0  0
   -2.7290  -10.7360  -19.5670 H   0  0  0  0  0  0  0  0  0  0  0  0
   -0.7450  -12.1930  -24.4680 C   0  0  0  0  0  1  0  0  0  0  0  0
   -0.5860  -12.6130  -23.0000 C   0  0  0  0  0  3  0  0  0  0  0  0
    0.8870  -12.9590  -22.7480 C   0  0  0  0  0  1  0  0  0  0  0  0
    0.6670   -5.9060  -25.6950 C   0  0  0  0  0  2  0  0  0  0  0  0
    0.9880   -6.5010  -26.9800 N   0  0  0  0  0  0  0  0  0  0  0  0
    0.4350   -6.2530  -27.7840 H   0  0  0  0  0  0  0  0  0  0  0  0
    2.2140   -7.1340  -27.1340 C   0  0  0  0  0  0  0  0  0  0  0  0
    3.0210   -6.6590  -28.0990 N   0  0  0  0  0  0  0  0  0  0  0  0
    4.0020   -7.4590  -28.5110 C   0  0  0  0  0  3  0  0  0  0  0  0
    4.1840   -8.7210  -28.1210 N   0  0  0  0  0  0  0  0  0  0  0  0
    3.4110   -9.1790  -27.1170 C   0  0  0  0  0  0  0  0  0  0  0  0
    3.4950  -10.5020  -26.6720 C   0  0  0  0  0  0  0  0  0  0  0  0
    2.7930  -10.9840  -25.5580 C   0  0  0  0  0  3  0  0  0  0  0  0
    1.9180  -10.1440  -24.8920 C   0  0  0  0  0  3  0  0  0  0  0  0
    1.7150   -8.8580  -25.3840 C   0  0  0  0  0  3  0  0  0  0  0  0
    2.4440   -8.3710  -26.5030 C   0  0  0  0  0  0  0  0  0  0  0  0
    4.2100  -11.5050  -27.4780 C   0  0  0  0  0  0  0  0  0  0  0  0
    4.1400  -11.3100  -28.8310 N   0  0  0  0  0  0  0  0  0  0  0  0
    4.7210  -12.4970  -26.9780 O   0  0  0  0  0  0  0  0  0  0  0  0
    4.5770  -11.9880  -29.4400 H   0  0  0  0  0  0  0  0  0  0  0  0
    3.6830  -10.5070  -29.2430 H   0  0  0  0  0  0  0  0  0  0  0  0
  1  9  1  0  0  0  0
  2  1  2  0  0  0  0
  3  2  1  0  0  0  0
  4  3  2  0  0  0  0
  4  5  1  0  0  0  0
  5  6  2  0  0  0  0
  6  1  1  0  0  0  0
  7  8  2  0  0  0  0
  9 10  1  0  0  0  0
  9  7  1  0  0  0  0
 11 15  2  0  0  0  0
 12 11  1  0  0  0  0
 12 13  2  0  0  0  0
 13  7  1  0  0  0  0
 13 14  1  0  0  0  0
 14 16  1  0  0  0  0
 15 14  1  0  0  0  0
 17 18  1  0  0  0  0
 18 19  1  0  0  0  0
 18 11  1  0  0  0  0
 20  5  1  0  0  0  0
 21 20  1  0  0  0  0
 22 21  1  0  0  0  0
 23 21  1  0  0  0  0
 23 32  1  0  0  0  0
 24 23  2  0  0  0  0
 25 26  2  0  0  0  0
 25 24  1  0  0  0  0
 26 27  1  0  0  0  0
 27 28  2  0  0  0  0
 27 32  1  0  0  0  0
 28 29  1  0  0  0  0
 29 30  2  0  0  0  0
 31 30  1  0  0  0  0
 32 31  2  0  0  0  0
 33 35  2  0  0  0  0
 33 28  1  0  0  0  0
 34 33  1  0  0  0  0
 36 34  1  0  0  0  0
 37 34  1  0  0  0  0
M  END
>  <minimizedAffinity>
-8.42417145

$$$$
