
 OpenBabel10152419513D

 37 40  0  0  0  0  0  0  0  0999 V2000
   -1.6630   -9.0940  -21.8980 C   0  0  0  0  0  0  0  0  0  0  0  0
   -3.0450   -8.9190  -21.9560 C   0  0  0  0  0  3  0  0  0  0  0  0
   -3.5790   -7.8930  -22.7260 C   0  0  0  0  0  3  0  0  0  0  0  0
   -2.7320   -7.0650  -23.4640 C   0  0  0  0  0  3  0  0  0  0  0  0
   -1.3470   -7.2890  -23.5150 C   0  0  0  0  0  0  0  0  0  0  0  0
   -0.8300   -8.3310  -22.7310 C   0  0  0  0  0  3  0  0  0  0  0  0
   -0.7740  -11.3400  -21.1700 C   0  0  0  0  0  0  0  0  0  0  0  0
   -0.7000  -12.0810  -20.1900 O   0  0  0  0  0  0  0  0  0  0  0  0
   -1.1700  -10.0330  -20.9770 N   0  0  0  0  0  0  0  0  0  0  0  0
   -1.0480   -9.7280  -20.0190 H   0  0  0  0  0  0  0  0  0  0  0  0
    0.5600  -12.3260  -24.4330 C   0  0  0  0  0  0  0  0  0  0  0  0
    0.8400  -12.0060  -23.0830 C   0  0  0  0  0  3  0  0  0  0  0  0
   -0.3860  -11.7920  -22.4820 C   0  0  0  0  0  0  0  0  0  0  0  0
   -1.2980  -12.1850  -23.4210 N   0  0  0  0  0  0  0  0  0  0  0  0
   -0.7590  -12.4590  -24.6210 N   0  0  0  0  0  0  0  0  0  0  0  0
   -2.3050  -12.2420  -23.3090 H   0  0  0  0  0  0  0  0  0  0  0  0
    1.2070  -11.5970  -26.7580 C   0  0  0  0  0  1  0  0  0  0  0  0
    1.5270  -12.5220  -25.5760 C   0  0  0  0  0  3  0  0  0  0  0  0
    2.9890  -12.3030  -25.1660 C   0  0  0  0  0  1  0  0  0  0  0  0
   -0.4160   -6.3880  -24.3160 C   0  0  0  0  0  2  0  0  0  0  0  0
   -0.5540   -6.5790  -25.7490 N   0  0  0  0  0  0  0  0  0  0  0  0
   -1.4660   -6.7720  -26.1290 H   0  0  0  0  0  0  0  0  0  0  0  0
    0.4890   -6.1860  -26.5780 C   0  0  0  0  0  0  0  0  0  0  0  0
    0.2270   -5.1950  -27.4480 N   0  0  0  0  0  0  0  0  0  0  0  0
    1.0590   -5.0640  -28.4790 C   0  0  0  0  0  3  0  0  0  0  0  0
    2.0600   -5.8940  -28.7730 N   0  0  0  0  0  0  0  0  0  0  0  0
    2.3550   -6.8540  -27.8740 C   0  0  0  0  0  0  0  0  0  0  0  0
    3.3570   -7.8000  -28.1160 C   0  0  0  0  0  0  0  0  0  0  0  0
    3.7720   -8.7400  -27.1620 C   0  0  0  0  0  3  0  0  0  0  0  0
    3.1270   -8.7940  -25.9380 C   0  0  0  0  0  3  0  0  0  0  0  0
    2.0430   -7.9510  -25.7120 C   0  0  0  0  0  3  0  0  0  0  0  0
    1.6400   -6.9890  -26.6770 C   0  0  0  0  0  0  0  0  0  0  0  0
    3.9080   -7.9580  -29.4720 C   0  0  0  0  0  0  0  0  0  0  0  0
    4.5350   -6.8470  -29.9690 N   0  0  0  0  0  0  0  0  0  0  0  0
    3.7130   -8.9630  -30.1400 O   0  0  0  0  0  0  0  0  0  0  0  0
    4.8990   -6.8790  -30.9110 H   0  0  0  0  0  0  0  0  0  0  0  0
    4.6610   -6.0040  -29.4260 H   0  0  0  0  0  0  0  0  0  0  0  0
  1  9  1  0  0  0  0
  2  1  1  0  0  0  0
  3  2  2  0  0  0  0
  4  3  1  0  0  0  0
  5  4  2  0  0  0  0
  5  6  1  0  0  0  0
  6  1  2  0  0  0  0
  7  9  1  0  0  0  0
  7  8  2  0  0  0  0
  9 10  1  0  0  0  0
 11 12  1  0  0  0  0
 12 13  2  0  0  0  0
 13  7  1  0  0  0  0
 14 16  1  0  0  0  0
 14 13  1  0  0  0  0
 15 11  2  0  0  0  0
 15 14  1  0  0  0  0
 17 18  1  0  0  0  0
 18 19  1  0  0  0  0
 18 11  1  0  0  0  0
 20  5  1  0  0  0  0
 21 20  1  0  0  0  0
 22 21  1  0  0  0  0
 23 21  1  0  0  0  0
 24 23  2  0  0  0  0
 25 24  1  0  0  0  0
 26 25  2  0  0  0  0
 26 27  1  0  0  0  0
 27 32  1  0  0  0  0
 28 27  2  0  0  0  0
 28 29  1  0  0  0  0
 29 30  2  0  0  0  0
 30 31  1  0  0  0  0
 32 23  1  0  0  0  0
 32 31  2  0  0  0  0
 33 28  1  0  0  0  0
 34 33  1  0  0  0  0
 34 37  1  0  0  0  0
 35 33  2  0  0  0  0
 36 34  1  0  0  0  0
M  END
>  <minimizedAffinity>
-8.22014809

$$$$
