
 OpenBabel10152419113D

 38 41  0  0  0  0  0  0  0  0999 V2000
    8.0400  -10.2200   13.0850 C   0  0  0  0  0  0  0  0  0  0  0  0
    8.8190   -9.3830   13.8860 C   0  0  0  0  0  3  0  0  0  0  0  0
   10.1930   -9.3220   13.6940 C   0  0  0  0  0  3  0  0  0  0  0  0
   10.7860  -10.0680   12.6750 C   0  0  0  0  0  3  0  0  0  0  0  0
   10.0150  -10.8270   11.7810 C   0  0  0  0  0  0  0  0  0  0  0  0
    8.6300  -10.8850   12.0000 C   0  0  0  0  0  3  0  0  0  0  0  0
    5.5540  -10.2490   12.6610 C   0  0  0  0  0  0  0  0  0  0  0  0
    4.4390  -10.2780   13.1740 O   0  0  0  0  0  0  0  0  0  0  0  0
    6.6880  -10.3640   13.4390 N   0  0  0  0  0  0  0  0  0  0  0  0
    6.4820  -10.7050   14.3710 H   0  0  0  0  0  0  0  0  0  0  0  0
    5.9710  -10.2640    8.4170 C   0  0  0  0  0  0  0  0  0  0  0  0
    4.9350  -10.9810    9.0150 C   0  0  0  0  0  3  0  0  0  0  0  0
    4.7790  -10.9400   10.4000 C   0  0  0  0  0  0  0  0  0  0  0  0
    3.7710  -11.6380   10.9460 F   0  0  0  0  0  0  0  0  0  0  0  0
    5.6590  -10.2120   11.1980 C   0  0  0  0  0  0  0  0  0  0  0  0
    6.6540   -9.4560   10.5940 C   0  0  0  0  0  0  0  0  0  0  0  0
    7.5220   -8.7470   11.3290 F   0  0  0  0  0  0  0  0  0  0  0  0
    6.8120   -9.4780    9.2110 C   0  0  0  0  0  3  0  0  0  0  0  0
    6.6410   -8.9870    6.5300 C   0  0  0  0  0  1  0  0  0  0  0  0
    6.2570  -10.2440    7.0800 O   0  0  0  0  0  0  0  0  0  0  0  0
   10.6560  -11.6120   10.6450 C   0  0  0  0  0  2  0  0  0  0  0  0
   10.4600  -13.0440   10.7880 N   0  0  0  0  0  0  0  0  0  0  0  0
   11.1680  -13.5890   11.2520 H   0  0  0  0  0  0  0  0  0  0  0  0
    9.1900  -13.5670   10.5860 C   0  0  0  0  0  0  0  0  0  0  0  0
    8.5910  -13.2540    9.4220 N   0  0  0  0  0  0  0  0  0  0  0  0
    7.2750  -13.4480    9.3520 C   0  0  0  0  0  3  0  0  0  0  0  0
    6.4940  -13.8340   10.3620 N   0  0  0  0  0  0  0  0  0  0  0  0
    7.0960  -14.1900   11.5130 C   0  0  0  0  0  0  0  0  0  0  0  0
    6.3560  -14.5640   12.6400 C   0  0  0  0  0  0  0  0  0  0  0  0
    6.9420  -15.0270   13.8260 C   0  0  0  0  0  3  0  0  0  0  0  0
    8.3220  -15.0720   13.9270 C   0  0  0  0  0  3  0  0  0  0  0  0
    9.0910  -14.6060   12.8650 C   0  0  0  0  0  3  0  0  0  0  0  0
    8.4900  -14.1510   11.6590 C   0  0  0  0  0  0  0  0  0  0  0  0
    4.9010  -14.3400   12.6720 C   0  0  0  0  0  0  0  0  0  0  0  0
    4.3000  -14.6570   13.8620 N   0  0  0  0  0  0  0  0  0  0  0  0
    4.2740  -14.0050   11.6820 O   0  0  0  0  0  0  0  0  0  0  0  0
    3.2970  -14.5570   13.9340 H   0  0  0  0  0  0  0  0  0  0  0  0
    4.8190  -14.9690   14.6710 H   0  0  0  0  0  0  0  0  0  0  0  0
  1  9  1  0  0  0  0
  1  2  1  0  0  0  0
  3  2  2  0  0  0  0
  4  3  1  0  0  0  0
  5  6  1  0  0  0  0
  5  4  2  0  0  0  0
  6  1  2  0  0  0  0
  7  8  2  0  0  0  0
  7  9  1  0  0  0  0
  9 10  1  0  0  0  0
 11 12  2  0  0  0  0
 11 18  1  0  0  0  0
 12 13  1  0  0  0  0
 13 14  1  0  0  0  0
 13 15  2  0  0  0  0
 15  7  1  0  0  0  0
 16 15  1  0  0  0  0
 16 17  1  0  0  0  0
 18 16  2  0  0  0  0
 19 20  1  0  0  0  0
 20 11  1  0  0  0  0
 21 22  1  0  0  0  0
 21  5  1  0  0  0  0
 22 23  1  0  0  0  0
 24 22  1  0  0  0  0
 24 33  1  0  0  0  0
 25 24  2  0  0  0  0
 26 25  1  0  0  0  0
 26 27  2  0  0  0  0
 27 28  1  0  0  0  0
 28 33  2  0  0  0  0
 28 29  1  0  0  0  0
 29 34  1  0  0  0  0
 29 30  2  0  0  0  0
 30 31  1  0  0  0  0
 32 31  2  0  0  0  0
 33 32  1  0  0  0  0
 34 35  1  0  0  0  0
 35 37  1  0  0  0  0
 35 38  1  0  0  0  0
 36 34  2  0  0  0  0
M  END
>  <minimizedAffinity>
8.1975708

$$$$
