
 OpenBabel10152419523D

 40 43  0  0  0  0  0  0  0  0999 V2000
    3.6010  -10.9290  -26.6000 C   0  0  0  0  0  0  0  0  0  0  0  0
    4.2660  -11.7440  -25.6850 C   0  0  0  0  0  3  0  0  0  0  0  0
    3.5290  -12.5750  -24.8500 C   0  0  0  0  0  3  0  0  0  0  0  0
    2.1410  -12.6240  -24.9650 C   0  0  0  0  0  3  0  0  0  0  0  0
    1.4580  -11.9160  -25.9670 C   0  0  0  0  0  0  0  0  0  0  0  0
    2.2160  -11.0630  -26.7830 C   0  0  0  0  0  3  0  0  0  0  0  0
    4.0230   -8.6680  -27.6230 C   0  0  0  0  0  0  0  0  0  0  0  0
    4.7220   -8.0390  -28.4150 O   0  0  0  0  0  0  0  0  0  0  0  0
    4.3640   -9.9560  -27.2660 N   0  0  0  0  0  0  0  0  0  0  0  0
    5.3290  -10.1810  -27.4750 H   0  0  0  0  0  0  0  0  0  0  0  0
    0.7710   -6.6530  -25.6990 C   0  0  0  0  0  0  0  0  0  0  0  0
    1.5380   -7.5960  -25.0040 C   0  0  0  0  0  3  0  0  0  0  0  0
    2.5860   -8.2600  -25.6400 C   0  0  0  0  0  3  0  0  0  0  0  0
    2.8730   -7.9770  -26.9770 C   0  0  0  0  0  0  0  0  0  0  0  0
    2.0690   -7.0660  -27.6810 C   0  0  0  0  0  3  0  0  0  0  0  0
    1.0500   -6.3440  -27.0340 C   0  0  0  0  0  0  0  0  0  0  0  0
    0.3060   -5.2740  -27.7880 C   0  0  0  0  0  0  0  0  0  0  0  0
   -0.9870   -5.6180  -28.0580 F   0  0  0  0  0  0  0  0  0  0  0  0
    0.2320   -4.1060  -27.0920 F   0  0  0  0  0  0  0  0  0  0  0  0
    0.8510   -4.9620  -28.9960 F   0  0  0  0  0  0  0  0  0  0  0  0
    0.1830   -5.8420  -23.6140 C   0  0  0  0  0  1  0  0  0  0  0  0
   -0.1940   -5.9990  -24.9840 O   0  0  0  0  0  0  0  0  0  0  0  0
   -0.0580  -11.9500  -26.1150 C   0  0  0  0  0  2  0  0  0  0  0  0
   -0.7270  -12.4810  -24.9390 N   0  0  0  0  0  0  0  0  0  0  0  0
   -1.0280  -13.4410  -24.9420 H   0  0  0  0  0  0  0  0  0  0  0  0
   -0.7370  -11.7330  -23.7730 C   0  0  0  0  0  0  0  0  0  0  0  0
   -0.4730  -12.3950  -22.6340 N   0  0  0  0  0  0  0  0  0  0  0  0
   -0.8010  -11.7930  -21.4960 C   0  0  0  0  0  3  0  0  0  0  0  0
   -1.4510  -10.6320  -21.3930 N   0  0  0  0  0  0  0  0  0  0  0  0
   -1.6910   -9.9440  -22.5280 C   0  0  0  0  0  0  0  0  0  0  0  0
   -2.4210   -8.7480  -22.5180 C   0  0  0  0  0  0  0  0  0  0  0  0
   -2.6120   -7.9740  -23.6750 C   0  0  0  0  0  3  0  0  0  0  0  0
   -2.1300   -8.4240  -24.8930 C   0  0  0  0  0  3  0  0  0  0  0  0
   -1.4900   -9.6570  -24.9500 C   0  0  0  0  0  3  0  0  0  0  0  0
   -1.2700  -10.4280  -23.7770 C   0  0  0  0  0  0  0  0  0  0  0  0
   -3.1410   -8.2790  -21.3050 C   0  0  0  0  0  0  0  0  0  0  0  0
   -2.3980   -8.1730  -20.1580 N   0  0  0  0  0  0  0  0  0  0  0  0
   -4.3450   -8.1000  -21.3040 O   0  0  0  0  0  0  0  0  0  0  0  0
   -2.8640   -7.9030  -19.3050 H   0  0  0  0  0  0  0  0  0  0  0  0
   -1.3910   -8.2700  -20.1610 H   0  0  0  0  0  0  0  0  0  0  0  0
  1  2  1  0  0  0  0
  2  3  2  0  0  0  0
  4  3  1  0  0  0  0
  5  4  2  0  0  0  0
  6  1  2  0  0  0  0
  6  5  1  0  0  0  0
  7  9  1  0  0  0  0
  7 14  1  0  0  0  0
  8  7  2  0  0  0  0
  9  1  1  0  0  0  0
 10  9  1  0  0  0  0
 11 12  1  0  0  0  0
 11 22  1  0  0  0  0
 13 12  2  0  0  0  0
 14 13  1  0  0  0  0
 15 16  1  0  0  0  0
 15 14  2  0  0  0  0
 16 11  2  0  0  0  0
 17 19  1  0  0  0  0
 17 16  1  0  0  0  0
 18 17  1  0  0  0  0
 20 17  1  0  0  0  0
 22 21  1  0  0  0  0
 23  5  1  0  0  0  0
 23 24  1  0  0  0  0
 24 26  1  0  0  0  0
 25 24  1  0  0  0  0
 26 27  1  0  0  0  0
 27 28  2  0  0  0  0
 28 29  1  0  0  0  0
 30 31  1  0  0  0  0
 30 29  2  0  0  0  0
 31 36  1  0  0  0  0
 32 31  2  0  0  0  0
 33 32  1  0  0  0  0
 34 33  2  0  0  0  0
 34 35  1  0  0  0  0
 35 26  2  0  0  0  0
 35 30  1  0  0  0  0
 36 38  2  0  0  0  0
 36 37  1  0  0  0  0
 37 39  1  0  0  0  0
 40 37  1  0  0  0  0
M  END
>  <minimizedAffinity>
-10.0033264

$$$$

 OpenBabel10152419523D

 40 43  0  0  0  0  0  0  0  0999 V2000
    3.7070  -10.3890  -27.2230 C   0  0  0  0  0  0  0  0  0  0  0  0
    3.6060  -11.2960  -28.2750 C   0  0  0  0  0  3  0  0  0  0  0  0
    3.0820  -12.5610  -28.0390 C   0  0  0  0  0  3  0  0  0  0  0  0
    2.6170  -12.8950  -26.7670 C   0  0  0  0  0  3  0  0  0  0  0  0
    2.5820  -11.9560  -25.7250 C   0  0  0  0  0  0  0  0  0  0  0  0
    3.1410  -10.6940  -25.9760 C   0  0  0  0  0  3  0  0  0  0  0  0
    4.0100   -7.8990  -27.4440 C   0  0  0  0  0  0  0  0  0  0  0  0
    4.7220   -7.0120  -27.9120 O   0  0  0  0  0  0  0  0  0  0  0  0
    4.4360   -9.2110  -27.4580 N   0  0  0  0  0  0  0  0  0  0  0  0
    5.4350   -9.3010  -27.6020 H   0  0  0  0  0  0  0  0  0  0  0  0
    0.4030   -6.7710  -25.4310 C   0  0  0  0  0  0  0  0  0  0  0  0
    1.3140   -7.6450  -24.8270 C   0  0  0  0  0  3  0  0  0  0  0  0
    2.4800   -8.0210  -25.4930 C   0  0  0  0  0  3  0  0  0  0  0  0
    2.7390   -7.5180  -26.7690 C   0  0  0  0  0  0  0  0  0  0  0  0
    1.7980   -6.6800  -27.3890 C   0  0  0  0  0  3  0  0  0  0  0  0
    0.6500   -6.2430  -26.7020 C   0  0  0  0  0  0  0  0  0  0  0  0
   -0.2610   -5.2330  -27.3490 C   0  0  0  0  0  0  0  0  0  0  0  0
    0.0970   -4.9430  -28.6340 F   0  0  0  0  0  0  0  0  0  0  0  0
   -1.5490   -5.6700  -27.4230 F   0  0  0  0  0  0  0  0  0  0  0  0
   -0.3030   -4.0320  -26.7110 F   0  0  0  0  0  0  0  0  0  0  0  0
   -0.2890   -5.6990  -23.5020 C   0  0  0  0  0  1  0  0  0  0  0  0
   -0.6810   -6.4020  -24.6840 O   0  0  0  0  0  0  0  0  0  0  0  0
    2.0820  -12.2940  -24.3250 C   0  0  0  0  0  2  0  0  0  0  0  0
    1.4300  -11.1710  -23.6740 N   0  0  0  0  0  0  0  0  0  0  0  0
    1.9820  -10.5480  -23.1090 H   0  0  0  0  0  0  0  0  0  0  0  0
    0.1260  -10.8550  -24.0210 C   0  0  0  0  0  0  0  0  0  0  0  0
   -0.1620  -10.8580  -25.3330 N   0  0  0  0  0  0  0  0  0  0  0  0
   -1.2810  -10.2450  -25.7060 C   0  0  0  0  0  3  0  0  0  0  0  0
   -2.0890   -9.5510  -24.9020 N   0  0  0  0  0  0  0  0  0  0  0  0
   -1.8260   -9.5690  -23.5790 C   0  0  0  0  0  0  0  0  0  0  0  0
   -2.5860   -8.8180  -22.6720 C   0  0  0  0  0  0  0  0  0  0  0  0
   -2.3810   -8.8850  -21.2840 C   0  0  0  0  0  3  0  0  0  0  0  0
   -1.3530   -9.6620  -20.7750 C   0  0  0  0  0  3  0  0  0  0  0  0
   -0.5200  -10.3380  -21.6590 C   0  0  0  0  0  3  0  0  0  0  0  0
   -0.7410  -10.2950  -23.0620 C   0  0  0  0  0  0  0  0  0  0  0  0
   -3.5810   -7.8120  -23.1280 C   0  0  0  0  0  0  0  0  0  0  0  0
   -4.6820   -7.6400  -22.3310 N   0  0  0  0  0  0  0  0  0  0  0  0
   -3.4750   -7.2480  -24.2020 O   0  0  0  0  0  0  0  0  0  0  0  0
   -5.4010   -6.9980  -22.6340 H   0  0  0  0  0  0  0  0  0  0  0  0
   -4.7540   -8.0640  -21.4160 H   0  0  0  0  0  0  0  0  0  0  0  0
  1  6  1  0  0  0  0
  2  3  1  0  0  0  0
  2  1  2  0  0  0  0
  3  4  2  0  0  0  0
  4  5  1  0  0  0  0
  5 23  1  0  0  0  0
  6  5  2  0  0  0  0
  7 14  1  0  0  0  0
  8  7  2  0  0  0  0
  9  7  1  0  0  0  0
  9  1  1  0  0  0  0
 10  9  1  0  0  0  0
 11 12  1  0  0  0  0
 11 22  1  0  0  0  0
 13 12  2  0  0  0  0
 14 13  1  0  0  0  0
 15 14  2  0  0  0  0
 15 16  1  0  0  0  0
 16 11  2  0  0  0  0
 17 20  1  0  0  0  0
 17 16  1  0  0  0  0
 18 17  1  0  0  0  0
 19 17  1  0  0  0  0
 22 21  1  0  0  0  0
 23 24  1  0  0  0  0
 24 25  1  0  0  0  0
 26 24  1  0  0  0  0
 26 35  1  0  0  0  0
 27 26  2  0  0  0  0
 28 27  1  0  0  0  0
 28 29  2  0  0  0  0
 29 30  1  0  0  0  0
 30 35  2  0  0  0  0
 30 31  1  0  0  0  0
 31 32  2  0  0  0  0
 32 33  1  0  0  0  0
 34 33  2  0  0  0  0
 35 34  1  0  0  0  0
 36 31  1  0  0  0  0
 36 37  1  0  0  0  0
 37 40  1  0  0  0  0
 38 36  2  0  0  0  0
 39 37  1  0  0  0  0
M  END
>  <minimizedAffinity>
-9.55310535

$$$$

 OpenBabel10152419523D

 40 43  0  0  0  0  0  0  0  0999 V2000
    3.2260   -8.8340  -27.0410 C   0  0  0  0  0  0  0  0  0  0  0  0
    3.0430   -8.0190  -25.9260 C   0  0  0  0  0  3  0  0  0  0  0  0
    2.5170   -8.5630  -24.7610 C   0  0  0  0  0  3  0  0  0  0  0  0
    2.2240   -9.9250  -24.7010 C   0  0  0  0  0  3  0  0  0  0  0  0
    2.5240  -10.7920  -25.7620 C   0  0  0  0  0  0  0  0  0  0  0  0
    3.0290  -10.2190  -26.9390 C   0  0  0  0  0  3  0  0  0  0  0  0
    2.8930   -7.1880  -28.9170 C   0  0  0  0  0  0  0  0  0  0  0  0
    3.1800   -6.9230  -30.0830 O   0  0  0  0  0  0  0  0  0  0  0  0
    3.5530   -8.2010  -28.2520 N   0  0  0  0  0  0  0  0  0  0  0  0
    4.4250   -8.4610  -28.6960 H   0  0  0  0  0  0  0  0  0  0  0  0
    0.0080   -4.7020  -26.9600 C   0  0  0  0  0  0  0  0  0  0  0  0
    0.7620   -4.2110  -28.0320 C   0  0  0  0  0  3  0  0  0  0  0  0
    1.7110   -5.0210  -28.6560 C   0  0  0  0  0  3  0  0  0  0  0  0
    1.9050   -6.3280  -28.2090 C   0  0  0  0  0  0  0  0  0  0  0  0
    1.1790   -6.7980  -27.1020 C   0  0  0  0  0  3  0  0  0  0  0  0
    0.1750   -6.0130  -26.5050 C   0  0  0  0  0  0  0  0  0  0  0  0
   -0.6760   -6.6050  -25.4130 C   0  0  0  0  0  0  0  0  0  0  0  0
   -0.2250   -7.8220  -24.9900 F   0  0  0  0  0  0  0  0  0  0  0  0
   -0.7060   -5.8230  -24.2990 F   0  0  0  0  0  0  0  0  0  0  0  0
   -1.9740   -6.8100  -25.7680 F   0  0  0  0  0  0  0  0  0  0  0  0
   -0.6300   -2.4950  -26.6940 C   0  0  0  0  0  1  0  0  0  0  0  0
   -0.9460   -3.8670  -26.4480 O   0  0  0  0  0  0  0  0  0  0  0  0
    2.2120  -12.2830  -25.7250 C   0  0  0  0  0  2  0  0  0  0  0  0
    0.8910  -12.5950  -26.2430 N   0  0  0  0  0  0  0  0  0  0  0  0
    0.7830  -13.3830  -26.8600 H   0  0  0  0  0  0  0  0  0  0  0  0
   -0.2130  -11.9480  -25.7100 C   0  0  0  0  0  0  0  0  0  0  0  0
   -0.8430  -11.0780  -26.5170 N   0  0  0  0  0  0  0  0  0  0  0  0
   -1.6740  -10.2150  -25.9410 C   0  0  0  0  0  3  0  0  0  0  0  0
   -1.8620  -10.0800  -24.6260 N   0  0  0  0  0  0  0  0  0  0  0  0
   -1.2590  -10.9690  -23.8110 C   0  0  0  0  0  0  0  0  0  0  0  0
   -1.3510  -10.8640  -22.4170 C   0  0  0  0  0  0  0  0  0  0  0  0
   -0.8000  -11.8240  -21.5520 C   0  0  0  0  0  3  0  0  0  0  0  0
   -0.0760  -12.8850  -22.0710 C   0  0  0  0  0  3  0  0  0  0  0  0
    0.1180  -12.9590  -23.4450 C   0  0  0  0  0  3  0  0  0  0  0  0
   -0.4610  -12.0050  -24.3250 C   0  0  0  0  0  0  0  0  0  0  0  0
   -1.9390   -9.6680  -21.7590 C   0  0  0  0  0  0  0  0  0  0  0  0
   -1.3440   -8.4650  -22.0370 N   0  0  0  0  0  0  0  0  0  0  0  0
   -2.8320   -9.7630  -20.9370 O   0  0  0  0  0  0  0  0  0  0  0  0
   -1.6880   -7.6380  -21.5710 H   0  0  0  0  0  0  0  0  0  0  0  0
   -0.6380   -8.3690  -22.7540 H   0  0  0  0  0  0  0  0  0  0  0  0
  1  6  2  0  0  0  0
  1  2  1  0  0  0  0
  2  3  2  0  0  0  0
  3  4  1  0  0  0  0
  5 23  1  0  0  0  0
  5  4  2  0  0  0  0
  6  5  1  0  0  0  0
  7  9  1  0  0  0  0
  7 14  1  0  0  0  0
  8  7  2  0  0  0  0
  9  1  1  0  0  0  0
 10  9  1  0  0  0  0
 11 16  1  0  0  0  0
 11 22  1  0  0  0  0
 12 11  2  0  0  0  0
 13 14  2  0  0  0  0
 13 12  1  0  0  0  0
 14 15  1  0  0  0  0
 15 16  2  0  0  0  0
 16 17  1  0  0  0  0
 17 18  1  0  0  0  0
 17 19  1  0  0  0  0
 20 17  1  0  0  0  0
 21 22  1  0  0  0  0
 24 23  1  0  0  0  0
 24 26  1  0  0  0  0
 25 24  1  0  0  0  0
 26 35  1  0  0  0  0
 27 28  1  0  0  0  0
 27 26  2  0  0  0  0
 28 29  2  0  0  0  0
 29 30  1  0  0  0  0
 30 31  1  0  0  0  0
 31 36  1  0  0  0  0
 31 32  2  0  0  0  0
 33 32  1  0  0  0  0
 34 33  2  0  0  0  0
 35 30  2  0  0  0  0
 35 34  1  0  0  0  0
 36 38  2  0  0  0  0
 37 36  1  0  0  0  0
 37 39  1  0  0  0  0
 40 37  1  0  0  0  0
M  END
>  <minimizedAffinity>
-9.39804268

$$$$

 OpenBabel10152419523D

 40 43  0  0  0  0  0  0  0  0999 V2000
   -0.3890   -4.5900  -25.2770 C   0  0  0  0  0  0  0  0  0  0  0  0
   -0.8730   -3.4260  -25.8690 C   0  0  0  0  0  3  0  0  0  0  0  0
   -0.5630   -3.1540  -27.1960 C   0  0  0  0  0  3  0  0  0  0  0  0
    0.1860   -4.0680  -27.9370 C   0  0  0  0  0  3  0  0  0  0  0  0
    0.5700   -5.3090  -27.4060 C   0  0  0  0  0  0  0  0  0  0  0  0
    0.2710   -5.5530  -26.0570 C   0  0  0  0  0  3  0  0  0  0  0  0
   -1.1150   -5.7370  -23.1570 C   0  0  0  0  0  0  0  0  0  0  0  0
   -1.3870   -5.5730  -21.9690 O   0  0  0  0  0  0  0  0  0  0  0  0
   -0.5430   -4.7160  -23.8870 N   0  0  0  0  0  0  0  0  0  0  0  0
   -0.1320   -3.9960  -23.3040 H   0  0  0  0  0  0  0  0  0  0  0  0
   -1.6160   -9.5940  -24.9470 C   0  0  0  0  0  0  0  0  0  0  0  0
   -1.7640   -8.4290  -25.7090 C   0  0  0  0  0  3  0  0  0  0  0  0
   -1.6140   -7.1750  -25.1170 C   0  0  0  0  0  3  0  0  0  0  0  0
   -1.3120   -7.0850  -23.7580 C   0  0  0  0  0  0  0  0  0  0  0  0
   -1.2130   -8.2570  -22.9900 C   0  0  0  0  0  3  0  0  0  0  0  0
   -1.2980   -9.5280  -23.5870 C   0  0  0  0  0  0  0  0  0  0  0  0
   -1.0450  -10.7570  -22.7550 C   0  0  0  0  0  0  0  0  0  0  0  0
   -0.1120  -11.5870  -23.3070 F   0  0  0  0  0  0  0  0  0  0  0  0
   -0.5700  -10.4530  -21.5160 F   0  0  0  0  0  0  0  0  0  0  0  0
   -2.1440  -11.5350  -22.5620 F   0  0  0  0  0  0  0  0  0  0  0  0
   -0.6150  -10.9700  -26.5140 C   0  0  0  0  0  1  0  0  0  0  0  0
   -1.7130  -10.7820  -25.6180 O   0  0  0  0  0  0  0  0  0  0  0  0
    1.3900   -6.3250  -28.1910 C   0  0  0  0  0  2  0  0  0  0  0  0
    2.8050   -6.2840  -27.8600 N   0  0  0  0  0  0  0  0  0  0  0  0
    3.2030   -5.4200  -27.5340 H   0  0  0  0  0  0  0  0  0  0  0  0
    3.5160   -7.4710  -27.7870 C   0  0  0  0  0  0  0  0  0  0  0  0
    4.3030   -7.7620  -28.8370 N   0  0  0  0  0  0  0  0  0  0  0  0
    4.7220   -9.0180  -28.9460 C   0  0  0  0  0  3  0  0  0  0  0  0
    4.3520  -10.0300  -28.1570 N   0  0  0  0  0  0  0  0  0  0  0  0
    3.5900   -9.7420  -27.0830 C   0  0  0  0  0  0  0  0  0  0  0  0
    3.1060  -10.7490  -26.2380 C   0  0  0  0  0  0  0  0  0  0  0  0
    2.3790  -10.4660  -25.0700 C   0  0  0  0  0  3  0  0  0  0  0  0
    2.0580   -9.1550  -24.7580 C   0  0  0  0  0  3  0  0  0  0  0  0
    2.4380   -8.1440  -25.6320 C   0  0  0  0  0  3  0  0  0  0  0  0
    3.1970   -8.4240  -26.7990 C   0  0  0  0  0  0  0  0  0  0  0  0
    3.2300  -12.1900  -26.5840 C   0  0  0  0  0  0  0  0  0  0  0  0
    2.4750  -12.6300  -27.6390 N   0  0  0  0  0  0  0  0  0  0  0  0
    3.8860  -12.9580  -25.9040 O   0  0  0  0  0  0  0  0  0  0  0  0
    2.4990  -13.6120  -27.8730 H   0  0  0  0  0  0  0  0  0  0  0  0
    1.9680  -11.9930  -28.2390 H   0  0  0  0  0  0  0  0  0  0  0  0
  1  9  1  0  0  0  0
  2  1  1  0  0  0  0
  3  2  2  0  0  0  0
  4  5  2  0  0  0  0
  4  3  1  0  0  0  0
  5  6  1  0  0  0  0
  6  1  2  0  0  0  0
  7  8  2  0  0  0  0
  9 10  1  0  0  0  0
  9  7  1  0  0  0  0
 11 16  1  0  0  0  0
 12 13  1  0  0  0  0
 12 11  2  0  0  0  0
 13 14  2  0  0  0  0
 14  7  1  0  0  0  0
 14 15  1  0  0  0  0
 16 15  2  0  0  0  0
 16 17  1  0  0  0  0
 17 20  1  0  0  0  0
 17 19  1  0  0  0  0
 18 17  1  0  0  0  0
 21 22  1  0  0  0  0
 22 11  1  0  0  0  0
 23 24  1  0  0  0  0
 23  5  1  0  0  0  0
 24 26  1  0  0  0  0
 24 25  1  0  0  0  0
 26 35  1  0  0  0  0
 27 26  2  0  0  0  0
 28 27  1  0  0  0  0
 28 29  2  0  0  0  0
 29 30  1  0  0  0  0
 30 35  2  0  0  0  0
 30 31  1  0  0  0  0
 31 32  2  0  0  0  0
 32 33  1  0  0  0  0
 34 33  2  0  0  0  0
 35 34  1  0  0  0  0
 36 31  1  0  0  0  0
 36 38  2  0  0  0  0
 37 36  1  0  0  0  0
 39 37  1  0  0  0  0
 40 37  1  0  0  0  0
M  END
>  <minimizedAffinity>
-8.54674816

$$$$

 OpenBabel10152419523D

 40 43  0  0  0  0  0  0  0  0999 V2000
    1.1250  -11.3820  -26.2700 C   0  0  0  0  0  0  0  0  0  0  0  0
    1.3050  -12.5370  -25.5130 C   0  0  0  0  0  3  0  0  0  0  0  0
    2.5930  -12.9590  -25.2070 C   0  0  0  0  0  3  0  0  0  0  0  0
    3.6890  -12.2010  -25.6170 C   0  0  0  0  0  3  0  0  0  0  0  0
    3.5310  -10.9650  -26.2630 C   0  0  0  0  0  0  0  0  0  0  0  0
    2.2240  -10.5700  -26.5870 C   0  0  0  0  0  3  0  0  0  0  0  0
   -1.3420  -10.9440  -26.0220 C   0  0  0  0  0  0  0  0  0  0  0  0
   -2.4280  -10.9630  -26.5980 O   0  0  0  0  0  0  0  0  0  0  0  0
   -0.1740  -11.1160  -26.7350 N   0  0  0  0  0  0  0  0  0  0  0  0
   -0.2930  -10.9620  -27.7300 H   0  0  0  0  0  0  0  0  0  0  0  0
   -1.1520  -10.0470  -21.8390 C   0  0  0  0  0  0  0  0  0  0  0  0
   -0.7490  -11.2990  -22.3200 C   0  0  0  0  0  3  0  0  0  0  0  0
   -0.8270  -11.5900  -23.6810 C   0  0  0  0  0  3  0  0  0  0  0  0
   -1.3070  -10.6250  -24.5680 C   0  0  0  0  0  0  0  0  0  0  0  0
   -1.7550   -9.3900  -24.0730 C   0  0  0  0  0  3  0  0  0  0  0  0
   -1.6220   -9.0600  -22.7110 C   0  0  0  0  0  0  0  0  0  0  0  0
   -1.9820   -7.6750  -22.2450 C   0  0  0  0  0  0  0  0  0  0  0  0
   -2.5430   -7.6630  -21.0000 F   0  0  0  0  0  0  0  0  0  0  0  0
   -0.8940   -6.8590  -22.1580 F   0  0  0  0  0  0  0  0  0  0  0  0
   -2.8760   -7.0320  -23.0440 F   0  0  0  0  0  0  0  0  0  0  0  0
   -0.9910  -11.0380  -19.7560 C   0  0  0  0  0  1  0  0  0  0  0  0
   -0.9800   -9.8190  -20.5020 O   0  0  0  0  0  0  0  0  0  0  0  0
    4.7110  -10.1170  -26.7240 C   0  0  0  0  0  2  0  0  0  0  0  0
    4.4670   -8.6910  -26.5850 N   0  0  0  0  0  0  0  0  0  0  0  0
    5.1250   -8.1330  -26.0700 H   0  0  0  0  0  0  0  0  0  0  0  0
    3.4660   -8.1010  -27.3420 C   0  0  0  0  0  0  0  0  0  0  0  0
    3.7510   -7.8710  -28.6340 N   0  0  0  0  0  0  0  0  0  0  0  0
    2.9620   -7.0220  -29.2840 C   0  0  0  0  0  3  0  0  0  0  0  0
    1.9720   -6.3110  -28.7370 N   0  0  0  0  0  0  0  0  0  0  0  0
    1.6580   -6.5590  -27.4490 C   0  0  0  0  0  0  0  0  0  0  0  0
    0.6760   -5.8170  -26.7790 C   0  0  0  0  0  0  0  0  0  0  0  0
    0.2770   -6.1110  -25.4650 C   0  0  0  0  0  3  0  0  0  0  0  0
    0.9110   -7.1230  -24.7620 C   0  0  0  0  0  3  0  0  0  0  0  0
    1.9570   -7.8090  -25.3670 C   0  0  0  0  0  3  0  0  0  0  0  0
    2.3450   -7.5330  -26.7060 C   0  0  0  0  0  0  0  0  0  0  0  0
    0.0750   -4.5950  -27.3760 C   0  0  0  0  0  0  0  0  0  0  0  0
    0.9310   -3.7580  -28.0420 N   0  0  0  0  0  0  0  0  0  0  0  0
   -1.0920   -4.3010  -27.1920 O   0  0  0  0  0  0  0  0  0  0  0  0
    0.5650   -2.8960  -28.4200 H   0  0  0  0  0  0  0  0  0  0  0  0
    1.8870   -4.0170  -28.2430 H   0  0  0  0  0  0  0  0  0  0  0  0
  1  2  1  0  0  0  0
  2  3  2  0  0  0  0
  4  3  1  0  0  0  0
  5  4  2  0  0  0  0
  6  1  2  0  0  0  0
  6  5  1  0  0  0  0
  7 14  1  0  0  0  0
  8  7  2  0  0  0  0
  9  1  1  0  0  0  0
  9  7  1  0  0  0  0
 10  9  1  0  0  0  0
 11 22  1  0  0  0  0
 12 11  1  0  0  0  0
 13 12  2  0  0  0  0
 14 15  2  0  0  0  0
 14 13  1  0  0  0  0
 15 16  1  0  0  0  0
 16 17  1  0  0  0  0
 16 11  2  0  0  0  0
 17 19  1  0  0  0  0
 17 18  1  0  0  0  0
 20 17  1  0  0  0  0
 22 21  1  0  0  0  0
 23 24  1  0  0  0  0
 23  5  1  0  0  0  0
 24 25  1  0  0  0  0
 26 35  1  0  0  0  0
 26 24  1  0  0  0  0
 27 26  2  0  0  0  0
 28 29  2  0  0  0  0
 28 27  1  0  0  0  0
 29 30  1  0  0  0  0
 30 31  2  0  0  0  0
 30 35  1  0  0  0  0
 31 32  1  0  0  0  0
 32 33  2  0  0  0  0
 34 33  1  0  0  0  0
 35 34  2  0  0  0  0
 36 38  2  0  0  0  0
 36 31  1  0  0  0  0
 37 36  1  0  0  0  0
 39 37  1  0  0  0  0
 40 37  1  0  0  0  0
M  END
>  <minimizedAffinity>
-8.26949406

$$$$

 OpenBabel10152419523D

 40 43  0  0  0  0  0  0  0  0999 V2000
   -0.6850   -5.6000  -25.8000 C   0  0  0  0  0  0  0  0  0  0  0  0
   -0.1460   -5.0850  -24.6230 C   0  0  0  0  0  3  0  0  0  0  0  0
   -0.4310   -5.7050  -23.4120 C   0  0  0  0  0  3  0  0  0  0  0  0
   -1.2110   -6.8610  -23.3900 C   0  0  0  0  0  3  0  0  0  0  0  0
   -1.6520   -7.4760  -24.5720 C   0  0  0  0  0  0  0  0  0  0  0  0
   -1.3770   -6.8200  -25.7810 C   0  0  0  0  0  3  0  0  0  0  0  0
    0.4800   -4.7880  -27.8790 C   0  0  0  0  0  0  0  0  0  0  0  0
    0.5490   -3.8760  -28.7000 O   0  0  0  0  0  0  0  0  0  0  0  0
   -0.5490   -4.8220  -26.9620 N   0  0  0  0  0  0  0  0  0  0  0  0
   -1.3310   -4.2330  -27.2240 H   0  0  0  0  0  0  0  0  0  0  0  0
    3.3630   -7.9430  -28.1480 C   0  0  0  0  0  0  0  0  0  0  0  0
    3.1690   -7.0600  -29.2170 C   0  0  0  0  0  3  0  0  0  0  0  0
    2.2180   -6.0440  -29.1300 C   0  0  0  0  0  3  0  0  0  0  0  0
    1.4600   -5.9070  -27.9660 C   0  0  0  0  0  0  0  0  0  0  0  0
    1.6260   -6.8250  -26.9170 C   0  0  0  0  0  3  0  0  0  0  0  0
    2.6250   -7.8140  -26.9680 C   0  0  0  0  0  0  0  0  0  0  0  0
    2.8660   -8.6870  -25.7640 C   0  0  0  0  0  0  0  0  0  0  0  0
    3.5870   -9.8080  -26.0590 F   0  0  0  0  0  0  0  0  0  0  0  0
    3.5750   -8.0460  -24.7940 F   0  0  0  0  0  0  0  0  0  0  0  0
    1.7300   -9.1400  -25.1690 F   0  0  0  0  0  0  0  0  0  0  0  0
    4.2490   -9.5760  -29.5260 C   0  0  0  0  0  1  0  0  0  0  0  0
    4.3600   -8.8680  -28.2890 O   0  0  0  0  0  0  0  0  0  0  0  0
   -2.5070   -8.7380  -24.5770 C   0  0  0  0  0  2  0  0  0  0  0  0
   -1.8770   -9.8410  -25.2820 N   0  0  0  0  0  0  0  0  0  0  0  0
   -1.8260   -9.8120  -26.2860 H   0  0  0  0  0  0  0  0  0  0  0  0
   -1.1700  -10.7890  -24.5580 C   0  0  0  0  0  0  0  0  0  0  0  0
   -1.3980  -10.8230  -23.2350 N   0  0  0  0  0  0  0  0  0  0  0  0
   -0.5120  -11.4700  -22.4860 C   0  0  0  0  0  3  0  0  0  0  0  0
    0.6290  -12.0070  -22.9260 N   0  0  0  0  0  0  0  0  0  0  0  0
    0.8510  -12.0060  -24.2570 C   0  0  0  0  0  0  0  0  0  0  0  0
    2.0490  -12.4910  -24.7990 C   0  0  0  0  0  0  0  0  0  0  0  0
    2.2680  -12.5750  -26.1840 C   0  0  0  0  0  3  0  0  0  0  0  0
    1.3070  -12.1030  -27.0640 C   0  0  0  0  0  3  0  0  0  0  0  0
    0.1520  -11.5230  -26.5510 C   0  0  0  0  0  3  0  0  0  0  0  0
   -0.0850  -11.4630  -25.1520 C   0  0  0  0  0  0  0  0  0  0  0  0
    3.2120  -12.8410  -23.9420 C   0  0  0  0  0  0  0  0  0  0  0  0
    2.9660  -12.9580  -22.5990 N   0  0  0  0  0  0  0  0  0  0  0  0
    4.3400  -12.9150  -24.3930 O   0  0  0  0  0  0  0  0  0  0  0  0
    3.7420  -13.1490  -21.9820 H   0  0  0  0  0  0  0  0  0  0  0  0
    2.0280  -12.9490  -22.2230 H   0  0  0  0  0  0  0  0  0  0  0  0
  1  6  2  0  0  0  0
  1  2  1  0  0  0  0
  2  3  2  0  0  0  0
  3  4  1  0  0  0  0
  5  4  2  0  0  0  0
  6  5  1  0  0  0  0
  7  9  1  0  0  0  0
  8  7  2  0  0  0  0
  9  1  1  0  0  0  0
 10  9  1  0  0  0  0
 11 16  1  0  0  0  0
 12 13  1  0  0  0  0
 12 11  2  0  0  0  0
 13 14  2  0  0  0  0
 14  7  1  0  0  0  0
 14 15  1  0  0  0  0
 16 15  2  0  0  0  0
 16 17  1  0  0  0  0
 17 20  1  0  0  0  0
 17 19  1  0  0  0  0
 18 17  1  0  0  0  0
 21 22  1  0  0  0  0
 22 11  1  0  0  0  0
 23  5  1  0  0  0  0
 24 23  1  0  0  0  0
 24 26  1  0  0  0  0
 25 24  1  0  0  0  0
 26 27  1  0  0  0  0
 27 28  2  0  0  0  0
 29 28  1  0  0  0  0
 30 29  2  0  0  0  0
 31 30  1  0  0  0  0
 31 36  1  0  0  0  0
 32 31  2  0  0  0  0
 33 34  2  0  0  0  0
 33 32  1  0  0  0  0
 34 35  1  0  0  0  0
 35 26  2  0  0  0  0
 35 30  1  0  0  0  0
 36 37  1  0  0  0  0
 37 40  1  0  0  0  0
 37 39  1  0  0  0  0
 38 36  2  0  0  0  0
M  END
>  <minimizedAffinity>
-8.20397854

$$$$

 OpenBabel10152419523D

 40 43  0  0  0  0  0  0  0  0999 V2000
    3.1470   -8.8900  -26.8520 C   0  0  0  0  0  0  0  0  0  0  0  0
    3.0080   -8.0870  -25.7220 C   0  0  0  0  0  3  0  0  0  0  0  0
    2.4560   -8.6240  -24.5660 C   0  0  0  0  0  3  0  0  0  0  0  0
    2.0920   -9.9700  -24.5290 C   0  0  0  0  0  3  0  0  0  0  0  0
    2.3450  -10.8320  -25.6070 C   0  0  0  0  0  0  0  0  0  0  0  0
    2.8780  -10.2650  -26.7750 C   0  0  0  0  0  3  0  0  0  0  0  0
    2.8150   -7.3040  -28.7800 C   0  0  0  0  0  0  0  0  0  0  0  0
    3.1580   -7.0360  -29.9290 O   0  0  0  0  0  0  0  0  0  0  0  0
    3.5040   -8.2530  -28.0520 N   0  0  0  0  0  0  0  0  0  0  0  0
    4.4210   -8.4530  -28.4330 H   0  0  0  0  0  0  0  0  0  0  0  0
   -0.3120   -5.0610  -26.9010 C   0  0  0  0  0  0  0  0  0  0  0  0
   -0.2410   -6.4520  -26.7510 C   0  0  0  0  0  3  0  0  0  0  0  0
    0.7710   -7.1790  -27.3780 C   0  0  0  0  0  3  0  0  0  0  0  0
    1.7190   -6.5130  -28.1550 C   0  0  0  0  0  0  0  0  0  0  0  0
    1.6140   -5.1250  -28.3410 C   0  0  0  0  0  3  0  0  0  0  0  0
    0.6370   -4.3730  -27.6630 C   0  0  0  0  0  0  0  0  0  0  0  0
    0.6460   -2.8710  -27.7770 C   0  0  0  0  0  0  0  0  0  0  0  0
    0.1830   -2.4280  -28.9830 F   0  0  0  0  0  0  0  0  0  0  0  0
   -0.1480   -2.2770  -26.8440 F   0  0  0  0  0  0  0  0  0  0  0  0
    1.8780   -2.3100  -27.6410 F   0  0  0  0  0  0  0  0  0  0  0  0
   -0.9810   -4.3400  -24.8080 C   0  0  0  0  0  1  0  0  0  0  0  0
   -1.2940   -4.4180  -26.2010 O   0  0  0  0  0  0  0  0  0  0  0  0
    1.9560  -12.3060  -25.5960 C   0  0  0  0  0  2  0  0  0  0  0  0
    0.5900  -12.5300  -26.0370 N   0  0  0  0  0  0  0  0  0  0  0  0
    0.3880  -13.3330  -26.6090 H   0  0  0  0  0  0  0  0  0  0  0  0
   -0.4310  -11.7710  -25.4850 C   0  0  0  0  0  0  0  0  0  0  0  0
   -0.9130  -10.7740  -26.2450 N   0  0  0  0  0  0  0  0  0  0  0  0
   -1.6350   -9.8420  -25.6320 C   0  0  0  0  0  3  0  0  0  0  0  0
   -1.8410   -9.7650  -24.3150 N   0  0  0  0  0  0  0  0  0  0  0  0
   -1.3880  -10.7780  -23.5470 C   0  0  0  0  0  0  0  0  0  0  0  0
   -1.5060  -10.7480  -22.1520 C   0  0  0  0  0  0  0  0  0  0  0  0
   -1.1170  -11.8260  -21.3410 C   0  0  0  0  0  3  0  0  0  0  0  0
   -0.5290  -12.9430  -21.9130 C   0  0  0  0  0  3  0  0  0  0  0  0
   -0.3070  -12.9570  -23.2850 C   0  0  0  0  0  3  0  0  0  0  0  0
   -0.7250  -11.8800  -24.1120 C   0  0  0  0  0  0  0  0  0  0  0  0
   -1.9450   -9.5250  -21.4290 C   0  0  0  0  0  0  0  0  0  0  0  0
   -0.9750   -8.8430  -20.7420 N   0  0  0  0  0  0  0  0  0  0  0  0
   -3.1180   -9.2060  -21.3630 O   0  0  0  0  0  0  0  0  0  0  0  0
   -1.2460   -8.0340  -20.2020 H   0  0  0  0  0  0  0  0  0  0  0  0
    0.0060   -9.0700  -20.8320 H   0  0  0  0  0  0  0  0  0  0  0  0
  1  6  2  0  0  0  0
  1  2  1  0  0  0  0
  2  3  2  0  0  0  0
  3  4  1  0  0  0  0
  5 23  1  0  0  0  0
  5  4  2  0  0  0  0
  6  5  1  0  0  0  0
  7 14  1  0  0  0  0
  7  9  1  0  0  0  0
  8  7  2  0  0  0  0
  9  1  1  0  0  0  0
 10  9  1  0  0  0  0
 11 12  1  0  0  0  0
 11 22  1  0  0  0  0
 13 12  2  0  0  0  0
 14 13  1  0  0  0  0
 15 14  2  0  0  0  0
 15 16  1  0  0  0  0
 16 11  2  0  0  0  0
 17 16  1  0  0  0  0
 17 20  1  0  0  0  0
 17 19  1  0  0  0  0
 18 17  1  0  0  0  0
 22 21  1  0  0  0  0
 24 23  1  0  0  0  0
 24 26  1  0  0  0  0
 25 24  1  0  0  0  0
 26 35  1  0  0  0  0
 27 28  1  0  0  0  0
 27 26  2  0  0  0  0
 28 29  2  0  0  0  0
 29 30  1  0  0  0  0
 30 31  1  0  0  0  0
 31 36  1  0  0  0  0
 31 32  2  0  0  0  0
 33 32  1  0  0  0  0
 34 33  2  0  0  0  0
 35 30  2  0  0  0  0
 35 34  1  0  0  0  0
 36 38  2  0  0  0  0
 36 37  1  0  0  0  0
 37 39  1  0  0  0  0
 40 37  1  0  0  0  0
M  END
>  <minimizedAffinity>
-8.02343655

$$$$
