
 OpenBabel10152419523D

 40 43  0  0  0  0  0  0  0  0999 V2000
    3.6010  -10.9290  -26.6000 C   0  0  0  0  0  0  0  0  0  0  0  0
    4.2660  -11.7440  -25.6850 C   0  0  0  0  0  3  0  0  0  0  0  0
    3.5290  -12.5750  -24.8500 C   0  0  0  0  0  3  0  0  0  0  0  0
    2.1410  -12.6240  -24.9650 C   0  0  0  0  0  3  0  0  0  0  0  0
    1.4580  -11.9160  -25.9670 C   0  0  0  0  0  0  0  0  0  0  0  0
    2.2160  -11.0630  -26.7830 C   0  0  0  0  0  3  0  0  0  0  0  0
    4.0230   -8.6680  -27.6230 C   0  0  0  0  0  0  0  0  0  0  0  0
    4.7220   -8.0390  -28.4150 O   0  0  0  0  0  0  0  0  0  0  0  0
    4.3640   -9.9560  -27.2660 N   0  0  0  0  0  0  0  0  0  0  0  0
    5.3290  -10.1810  -27.4750 H   0  0  0  0  0  0  0  0  0  0  0  0
    0.7710   -6.6530  -25.6990 C   0  0  0  0  0  0  0  0  0  0  0  0
    1.5380   -7.5960  -25.0040 C   0  0  0  0  0  3  0  0  0  0  0  0
    2.5860   -8.2600  -25.6400 C   0  0  0  0  0  3  0  0  0  0  0  0
    2.8730   -7.9770  -26.9770 C   0  0  0  0  0  0  0  0  0  0  0  0
    2.0690   -7.0660  -27.6810 C   0  0  0  0  0  3  0  0  0  0  0  0
    1.0500   -6.3440  -27.0340 C   0  0  0  0  0  0  0  0  0  0  0  0
    0.3060   -5.2740  -27.7880 C   0  0  0  0  0  0  0  0  0  0  0  0
   -0.9870   -5.6180  -28.0580 F   0  0  0  0  0  0  0  0  0  0  0  0
    0.2320   -4.1060  -27.0920 F   0  0  0  0  0  0  0  0  0  0  0  0
    0.8510   -4.9620  -28.9960 F   0  0  0  0  0  0  0  0  0  0  0  0
    0.1830   -5.8420  -23.6140 C   0  0  0  0  0  1  0  0  0  0  0  0
   -0.1940   -5.9990  -24.9840 O   0  0  0  0  0  0  0  0  0  0  0  0
   -0.0580  -11.9500  -26.1150 C   0  0  0  0  0  2  0  0  0  0  0  0
   -0.7270  -12.4810  -24.9390 N   0  0  0  0  0  0  0  0  0  0  0  0
   -1.0280  -13.4410  -24.9420 H   0  0  0  0  0  0  0  0  0  0  0  0
   -0.7370  -11.7330  -23.7730 C   0  0  0  0  0  0  0  0  0  0  0  0
   -0.4730  -12.3950  -22.6340 N   0  0  0  0  0  0  0  0  0  0  0  0
   -0.8010  -11.7930  -21.4960 C   0  0  0  0  0  3  0  0  0  0  0  0
   -1.4510  -10.6320  -21.3930 N   0  0  0  0  0  0  0  0  0  0  0  0
   -1.6910   -9.9440  -22.5280 C   0  0  0  0  0  0  0  0  0  0  0  0
   -2.4210   -8.7480  -22.5180 C   0  0  0  0  0  0  0  0  0  0  0  0
   -2.6120   -7.9740  -23.6750 C   0  0  0  0  0  3  0  0  0  0  0  0
   -2.1300   -8.4240  -24.8930 C   0  0  0  0  0  3  0  0  0  0  0  0
   -1.4900   -9.6570  -24.9500 C   0  0  0  0  0  3  0  0  0  0  0  0
   -1.2700  -10.4280  -23.7770 C   0  0  0  0  0  0  0  0  0  0  0  0
   -3.1410   -8.2790  -21.3050 C   0  0  0  0  0  0  0  0  0  0  0  0
   -2.3980   -8.1730  -20.1580 N   0  0  0  0  0  0  0  0  0  0  0  0
   -4.3450   -8.1000  -21.3040 O   0  0  0  0  0  0  0  0  0  0  0  0
   -2.8640   -7.9030  -19.3050 H   0  0  0  0  0  0  0  0  0  0  0  0
   -1.3910   -8.2700  -20.1610 H   0  0  0  0  0  0  0  0  0  0  0  0
  1  2  1  0  0  0  0
  2  3  2  0  0  0  0
  4  3  1  0  0  0  0
  5  4  2  0  0  0  0
  6  1  2  0  0  0  0
  6  5  1  0  0  0  0
  7  9  1  0  0  0  0
  7 14  1  0  0  0  0
  8  7  2  0  0  0  0
  9  1  1  0  0  0  0
 10  9  1  0  0  0  0
 11 12  1  0  0  0  0
 11 22  1  0  0  0  0
 13 12  2  0  0  0  0
 14 13  1  0  0  0  0
 15 16  1  0  0  0  0
 15 14  2  0  0  0  0
 16 11  2  0  0  0  0
 17 19  1  0  0  0  0
 17 16  1  0  0  0  0
 18 17  1  0  0  0  0
 20 17  1  0  0  0  0
 22 21  1  0  0  0  0
 23  5  1  0  0  0  0
 23 24  1  0  0  0  0
 24 26  1  0  0  0  0
 25 24  1  0  0  0  0
 26 27  1  0  0  0  0
 27 28  2  0  0  0  0
 28 29  1  0  0  0  0
 30 31  1  0  0  0  0
 30 29  2  0  0  0  0
 31 36  1  0  0  0  0
 32 31  2  0  0  0  0
 33 32  1  0  0  0  0
 34 33  2  0  0  0  0
 34 35  1  0  0  0  0
 35 26  2  0  0  0  0
 35 30  1  0  0  0  0
 36 38  2  0  0  0  0
 36 37  1  0  0  0  0
 37 39  1  0  0  0  0
 40 37  1  0  0  0  0
M  END
>  <minimizedAffinity>
-10.0033264

$$$$
