
 OpenBabel10152419523D

 40 43  0  0  0  0  0  0  0  0999 V2000
    3.2260   -8.8340  -27.0410 C   0  0  0  0  0  0  0  0  0  0  0  0
    3.0430   -8.0190  -25.9260 C   0  0  0  0  0  3  0  0  0  0  0  0
    2.5170   -8.5630  -24.7610 C   0  0  0  0  0  3  0  0  0  0  0  0
    2.2240   -9.9250  -24.7010 C   0  0  0  0  0  3  0  0  0  0  0  0
    2.5240  -10.7920  -25.7620 C   0  0  0  0  0  0  0  0  0  0  0  0
    3.0290  -10.2190  -26.9390 C   0  0  0  0  0  3  0  0  0  0  0  0
    2.8930   -7.1880  -28.9170 C   0  0  0  0  0  0  0  0  0  0  0  0
    3.1800   -6.9230  -30.0830 O   0  0  0  0  0  0  0  0  0  0  0  0
    3.5530   -8.2010  -28.2520 N   0  0  0  0  0  0  0  0  0  0  0  0
    4.4250   -8.4610  -28.6960 H   0  0  0  0  0  0  0  0  0  0  0  0
    0.0080   -4.7020  -26.9600 C   0  0  0  0  0  0  0  0  0  0  0  0
    0.7620   -4.2110  -28.0320 C   0  0  0  0  0  3  0  0  0  0  0  0
    1.7110   -5.0210  -28.6560 C   0  0  0  0  0  3  0  0  0  0  0  0
    1.9050   -6.3280  -28.2090 C   0  0  0  0  0  0  0  0  0  0  0  0
    1.1790   -6.7980  -27.1020 C   0  0  0  0  0  3  0  0  0  0  0  0
    0.1750   -6.0130  -26.5050 C   0  0  0  0  0  0  0  0  0  0  0  0
   -0.6760   -6.6050  -25.4130 C   0  0  0  0  0  0  0  0  0  0  0  0
   -0.2250   -7.8220  -24.9900 F   0  0  0  0  0  0  0  0  0  0  0  0
   -0.7060   -5.8230  -24.2990 F   0  0  0  0  0  0  0  0  0  0  0  0
   -1.9740   -6.8100  -25.7680 F   0  0  0  0  0  0  0  0  0  0  0  0
   -0.6300   -2.4950  -26.6940 C   0  0  0  0  0  1  0  0  0  0  0  0
   -0.9460   -3.8670  -26.4480 O   0  0  0  0  0  0  0  0  0  0  0  0
    2.2120  -12.2830  -25.7250 C   0  0  0  0  0  2  0  0  0  0  0  0
    0.8910  -12.5950  -26.2430 N   0  0  0  0  0  0  0  0  0  0  0  0
    0.7830  -13.3830  -26.8600 H   0  0  0  0  0  0  0  0  0  0  0  0
   -0.2130  -11.9480  -25.7100 C   0  0  0  0  0  0  0  0  0  0  0  0
   -0.8430  -11.0780  -26.5170 N   0  0  0  0  0  0  0  0  0  0  0  0
   -1.6740  -10.2150  -25.9410 C   0  0  0  0  0  3  0  0  0  0  0  0
   -1.8620  -10.0800  -24.6260 N   0  0  0  0  0  0  0  0  0  0  0  0
   -1.2590  -10.9690  -23.8110 C   0  0  0  0  0  0  0  0  0  0  0  0
   -1.3510  -10.8640  -22.4170 C   0  0  0  0  0  0  0  0  0  0  0  0
   -0.8000  -11.8240  -21.5520 C   0  0  0  0  0  3  0  0  0  0  0  0
   -0.0760  -12.8850  -22.0710 C   0  0  0  0  0  3  0  0  0  0  0  0
    0.1180  -12.9590  -23.4450 C   0  0  0  0  0  3  0  0  0  0  0  0
   -0.4610  -12.0050  -24.3250 C   0  0  0  0  0  0  0  0  0  0  0  0
   -1.9390   -9.6680  -21.7590 C   0  0  0  0  0  0  0  0  0  0  0  0
   -1.3440   -8.4650  -22.0370 N   0  0  0  0  0  0  0  0  0  0  0  0
   -2.8320   -9.7630  -20.9370 O   0  0  0  0  0  0  0  0  0  0  0  0
   -1.6880   -7.6380  -21.5710 H   0  0  0  0  0  0  0  0  0  0  0  0
   -0.6380   -8.3690  -22.7540 H   0  0  0  0  0  0  0  0  0  0  0  0
  1  6  2  0  0  0  0
  1  2  1  0  0  0  0
  2  3  2  0  0  0  0
  3  4  1  0  0  0  0
  5 23  1  0  0  0  0
  5  4  2  0  0  0  0
  6  5  1  0  0  0  0
  7  9  1  0  0  0  0
  7 14  1  0  0  0  0
  8  7  2  0  0  0  0
  9  1  1  0  0  0  0
 10  9  1  0  0  0  0
 11 16  1  0  0  0  0
 11 22  1  0  0  0  0
 12 11  2  0  0  0  0
 13 14  2  0  0  0  0
 13 12  1  0  0  0  0
 14 15  1  0  0  0  0
 15 16  2  0  0  0  0
 16 17  1  0  0  0  0
 17 18  1  0  0  0  0
 17 19  1  0  0  0  0
 20 17  1  0  0  0  0
 21 22  1  0  0  0  0
 24 23  1  0  0  0  0
 24 26  1  0  0  0  0
 25 24  1  0  0  0  0
 26 35  1  0  0  0  0
 27 28  1  0  0  0  0
 27 26  2  0  0  0  0
 28 29  2  0  0  0  0
 29 30  1  0  0  0  0
 30 31  1  0  0  0  0
 31 36  1  0  0  0  0
 31 32  2  0  0  0  0
 33 32  1  0  0  0  0
 34 33  2  0  0  0  0
 35 30  2  0  0  0  0
 35 34  1  0  0  0  0
 36 38  2  0  0  0  0
 37 36  1  0  0  0  0
 37 39  1  0  0  0  0
 40 37  1  0  0  0  0
M  END
>  <minimizedAffinity>
-9.39804268

$$$$
