
 OpenBabel10152419523D

 40 43  0  0  0  0  0  0  0  0999 V2000
    3.1470   -8.8900  -26.8520 C   0  0  0  0  0  0  0  0  0  0  0  0
    3.0080   -8.0870  -25.7220 C   0  0  0  0  0  3  0  0  0  0  0  0
    2.4560   -8.6240  -24.5660 C   0  0  0  0  0  3  0  0  0  0  0  0
    2.0920   -9.9700  -24.5290 C   0  0  0  0  0  3  0  0  0  0  0  0
    2.3450  -10.8320  -25.6070 C   0  0  0  0  0  0  0  0  0  0  0  0
    2.8780  -10.2650  -26.7750 C   0  0  0  0  0  3  0  0  0  0  0  0
    2.8150   -7.3040  -28.7800 C   0  0  0  0  0  0  0  0  0  0  0  0
    3.1580   -7.0360  -29.9290 O   0  0  0  0  0  0  0  0  0  0  0  0
    3.5040   -8.2530  -28.0520 N   0  0  0  0  0  0  0  0  0  0  0  0
    4.4210   -8.4530  -28.4330 H   0  0  0  0  0  0  0  0  0  0  0  0
   -0.3120   -5.0610  -26.9010 C   0  0  0  0  0  0  0  0  0  0  0  0
   -0.2410   -6.4520  -26.7510 C   0  0  0  0  0  3  0  0  0  0  0  0
    0.7710   -7.1790  -27.3780 C   0  0  0  0  0  3  0  0  0  0  0  0
    1.7190   -6.5130  -28.1550 C   0  0  0  0  0  0  0  0  0  0  0  0
    1.6140   -5.1250  -28.3410 C   0  0  0  0  0  3  0  0  0  0  0  0
    0.6370   -4.3730  -27.6630 C   0  0  0  0  0  0  0  0  0  0  0  0
    0.6460   -2.8710  -27.7770 C   0  0  0  0  0  0  0  0  0  0  0  0
    0.1830   -2.4280  -28.9830 F   0  0  0  0  0  0  0  0  0  0  0  0
   -0.1480   -2.2770  -26.8440 F   0  0  0  0  0  0  0  0  0  0  0  0
    1.8780   -2.3100  -27.6410 F   0  0  0  0  0  0  0  0  0  0  0  0
   -0.9810   -4.3400  -24.8080 C   0  0  0  0  0  1  0  0  0  0  0  0
   -1.2940   -4.4180  -26.2010 O   0  0  0  0  0  0  0  0  0  0  0  0
    1.9560  -12.3060  -25.5960 C   0  0  0  0  0  2  0  0  0  0  0  0
    0.5900  -12.5300  -26.0370 N   0  0  0  0  0  0  0  0  0  0  0  0
    0.3880  -13.3330  -26.6090 H   0  0  0  0  0  0  0  0  0  0  0  0
   -0.4310  -11.7710  -25.4850 C   0  0  0  0  0  0  0  0  0  0  0  0
   -0.9130  -10.7740  -26.2450 N   0  0  0  0  0  0  0  0  0  0  0  0
   -1.6350   -9.8420  -25.6320 C   0  0  0  0  0  3  0  0  0  0  0  0
   -1.8410   -9.7650  -24.3150 N   0  0  0  0  0  0  0  0  0  0  0  0
   -1.3880  -10.7780  -23.5470 C   0  0  0  0  0  0  0  0  0  0  0  0
   -1.5060  -10.7480  -22.1520 C   0  0  0  0  0  0  0  0  0  0  0  0
   -1.1170  -11.8260  -21.3410 C   0  0  0  0  0  3  0  0  0  0  0  0
   -0.5290  -12.9430  -21.9130 C   0  0  0  0  0  3  0  0  0  0  0  0
   -0.3070  -12.9570  -23.2850 C   0  0  0  0  0  3  0  0  0  0  0  0
   -0.7250  -11.8800  -24.1120 C   0  0  0  0  0  0  0  0  0  0  0  0
   -1.9450   -9.5250  -21.4290 C   0  0  0  0  0  0  0  0  0  0  0  0
   -0.9750   -8.8430  -20.7420 N   0  0  0  0  0  0  0  0  0  0  0  0
   -3.1180   -9.2060  -21.3630 O   0  0  0  0  0  0  0  0  0  0  0  0
   -1.2460   -8.0340  -20.2020 H   0  0  0  0  0  0  0  0  0  0  0  0
    0.0060   -9.0700  -20.8320 H   0  0  0  0  0  0  0  0  0  0  0  0
  1  6  2  0  0  0  0
  1  2  1  0  0  0  0
  2  3  2  0  0  0  0
  3  4  1  0  0  0  0
  5 23  1  0  0  0  0
  5  4  2  0  0  0  0
  6  5  1  0  0  0  0
  7 14  1  0  0  0  0
  7  9  1  0  0  0  0
  8  7  2  0  0  0  0
  9  1  1  0  0  0  0
 10  9  1  0  0  0  0
 11 12  1  0  0  0  0
 11 22  1  0  0  0  0
 13 12  2  0  0  0  0
 14 13  1  0  0  0  0
 15 14  2  0  0  0  0
 15 16  1  0  0  0  0
 16 11  2  0  0  0  0
 17 16  1  0  0  0  0
 17 20  1  0  0  0  0
 17 19  1  0  0  0  0
 18 17  1  0  0  0  0
 22 21  1  0  0  0  0
 24 23  1  0  0  0  0
 24 26  1  0  0  0  0
 25 24  1  0  0  0  0
 26 35  1  0  0  0  0
 27 28  1  0  0  0  0
 27 26  2  0  0  0  0
 28 29  2  0  0  0  0
 29 30  1  0  0  0  0
 30 31  1  0  0  0  0
 31 36  1  0  0  0  0
 31 32  2  0  0  0  0
 33 32  1  0  0  0  0
 34 33  2  0  0  0  0
 35 30  2  0  0  0  0
 35 34  1  0  0  0  0
 36 38  2  0  0  0  0
 36 37  1  0  0  0  0
 37 39  1  0  0  0  0
 40 37  1  0  0  0  0
M  END
>  <minimizedAffinity>
-8.02343655

$$$$
