
 OpenBabel10152419523D

 40 43  0  0  0  0  0  0  0  0999 V2000
    3.7070  -10.3890  -27.2230 C   0  0  0  0  0  0  0  0  0  0  0  0
    3.6060  -11.2960  -28.2750 C   0  0  0  0  0  3  0  0  0  0  0  0
    3.0820  -12.5610  -28.0390 C   0  0  0  0  0  3  0  0  0  0  0  0
    2.6170  -12.8950  -26.7670 C   0  0  0  0  0  3  0  0  0  0  0  0
    2.5820  -11.9560  -25.7250 C   0  0  0  0  0  0  0  0  0  0  0  0
    3.1410  -10.6940  -25.9760 C   0  0  0  0  0  3  0  0  0  0  0  0
    4.0100   -7.8990  -27.4440 C   0  0  0  0  0  0  0  0  0  0  0  0
    4.7220   -7.0120  -27.9120 O   0  0  0  0  0  0  0  0  0  0  0  0
    4.4360   -9.2110  -27.4580 N   0  0  0  0  0  0  0  0  0  0  0  0
    5.4350   -9.3010  -27.6020 H   0  0  0  0  0  0  0  0  0  0  0  0
    0.4030   -6.7710  -25.4310 C   0  0  0  0  0  0  0  0  0  0  0  0
    1.3140   -7.6450  -24.8270 C   0  0  0  0  0  3  0  0  0  0  0  0
    2.4800   -8.0210  -25.4930 C   0  0  0  0  0  3  0  0  0  0  0  0
    2.7390   -7.5180  -26.7690 C   0  0  0  0  0  0  0  0  0  0  0  0
    1.7980   -6.6800  -27.3890 C   0  0  0  0  0  3  0  0  0  0  0  0
    0.6500   -6.2430  -26.7020 C   0  0  0  0  0  0  0  0  0  0  0  0
   -0.2610   -5.2330  -27.3490 C   0  0  0  0  0  0  0  0  0  0  0  0
    0.0970   -4.9430  -28.6340 F   0  0  0  0  0  0  0  0  0  0  0  0
   -1.5490   -5.6700  -27.4230 F   0  0  0  0  0  0  0  0  0  0  0  0
   -0.3030   -4.0320  -26.7110 F   0  0  0  0  0  0  0  0  0  0  0  0
   -0.2890   -5.6990  -23.5020 C   0  0  0  0  0  1  0  0  0  0  0  0
   -0.6810   -6.4020  -24.6840 O   0  0  0  0  0  0  0  0  0  0  0  0
    2.0820  -12.2940  -24.3250 C   0  0  0  0  0  2  0  0  0  0  0  0
    1.4300  -11.1710  -23.6740 N   0  0  0  0  0  0  0  0  0  0  0  0
    1.9820  -10.5480  -23.1090 H   0  0  0  0  0  0  0  0  0  0  0  0
    0.1260  -10.8550  -24.0210 C   0  0  0  0  0  0  0  0  0  0  0  0
   -0.1620  -10.8580  -25.3330 N   0  0  0  0  0  0  0  0  0  0  0  0
   -1.2810  -10.2450  -25.7060 C   0  0  0  0  0  3  0  0  0  0  0  0
   -2.0890   -9.5510  -24.9020 N   0  0  0  0  0  0  0  0  0  0  0  0
   -1.8260   -9.5690  -23.5790 C   0  0  0  0  0  0  0  0  0  0  0  0
   -2.5860   -8.8180  -22.6720 C   0  0  0  0  0  0  0  0  0  0  0  0
   -2.3810   -8.8850  -21.2840 C   0  0  0  0  0  3  0  0  0  0  0  0
   -1.3530   -9.6620  -20.7750 C   0  0  0  0  0  3  0  0  0  0  0  0
   -0.5200  -10.3380  -21.6590 C   0  0  0  0  0  3  0  0  0  0  0  0
   -0.7410  -10.2950  -23.0620 C   0  0  0  0  0  0  0  0  0  0  0  0
   -3.5810   -7.8120  -23.1280 C   0  0  0  0  0  0  0  0  0  0  0  0
   -4.6820   -7.6400  -22.3310 N   0  0  0  0  0  0  0  0  0  0  0  0
   -3.4750   -7.2480  -24.2020 O   0  0  0  0  0  0  0  0  0  0  0  0
   -5.4010   -6.9980  -22.6340 H   0  0  0  0  0  0  0  0  0  0  0  0
   -4.7540   -8.0640  -21.4160 H   0  0  0  0  0  0  0  0  0  0  0  0
  1  6  1  0  0  0  0
  2  3  1  0  0  0  0
  2  1  2  0  0  0  0
  3  4  2  0  0  0  0
  4  5  1  0  0  0  0
  5 23  1  0  0  0  0
  6  5  2  0  0  0  0
  7 14  1  0  0  0  0
  8  7  2  0  0  0  0
  9  7  1  0  0  0  0
  9  1  1  0  0  0  0
 10  9  1  0  0  0  0
 11 12  1  0  0  0  0
 11 22  1  0  0  0  0
 13 12  2  0  0  0  0
 14 13  1  0  0  0  0
 15 14  2  0  0  0  0
 15 16  1  0  0  0  0
 16 11  2  0  0  0  0
 17 20  1  0  0  0  0
 17 16  1  0  0  0  0
 18 17  1  0  0  0  0
 19 17  1  0  0  0  0
 22 21  1  0  0  0  0
 23 24  1  0  0  0  0
 24 25  1  0  0  0  0
 26 24  1  0  0  0  0
 26 35  1  0  0  0  0
 27 26  2  0  0  0  0
 28 27  1  0  0  0  0
 28 29  2  0  0  0  0
 29 30  1  0  0  0  0
 30 35  2  0  0  0  0
 30 31  1  0  0  0  0
 31 32  2  0  0  0  0
 32 33  1  0  0  0  0
 34 33  2  0  0  0  0
 35 34  1  0  0  0  0
 36 31  1  0  0  0  0
 36 37  1  0  0  0  0
 37 40  1  0  0  0  0
 38 36  2  0  0  0  0
 39 37  1  0  0  0  0
M  END
>  <minimizedAffinity>
-9.55310535

$$$$
