
 OpenBabel10152418313D

 37 40  0  0  0  0  0  0  0  0999 V2000
   -1.3390   -7.5370  -22.3930 C   0  0  0  0  0  0  0  0  0  0  0  0
   -1.2150   -6.2200  -21.9510 C   0  0  0  0  0  3  0  0  0  0  0  0
   -0.6980   -5.2510  -22.8050 C   0  0  0  0  0  3  0  0  0  0  0  0
   -0.3280   -5.5960  -24.1060 C   0  0  0  0  0  3  0  0  0  0  0  0
   -0.5420   -6.8880  -24.6100 C   0  0  0  0  0  0  0  0  0  0  0  0
   -1.0800   -7.8440  -23.7370 C   0  0  0  0  0  3  0  0  0  0  0  0
   -1.9150   -9.8600  -21.5860 C   0  0  0  0  0  0  0  0  0  0  0  0
   -2.5480  -10.4540  -20.7120 O   0  0  0  0  0  0  0  0  0  0  0  0
   -1.7090   -8.5050  -21.4410 N   0  0  0  0  0  0  0  0  0  0  0  0
   -1.8270   -8.1940  -20.4850 H   0  0  0  0  0  0  0  0  0  0  0  0
   -0.1120  -11.5310  -24.2850 C   0  0  0  0  0  0  0  0  0  0  0  0
   -0.1230  -11.1670  -22.9200 C   0  0  0  0  0  3  0  0  0  0  0  0
   -1.3490  -10.5630  -22.7090 C   0  0  0  0  0  0  0  0  0  0  0  0
   -2.0510  -10.8010  -23.8570 N   0  0  0  0  0  0  0  0  0  0  0  0
   -1.3050  -11.3120  -24.8530 N   0  0  0  0  0  0  0  0  0  0  0  0
   -3.0240  -10.5730  -24.0390 H   0  0  0  0  0  0  0  0  0  0  0  0
    1.0710  -11.4970  -26.5030 C   0  0  0  0  0  1  0  0  0  0  0  0
    1.0610  -12.0370  -25.0750 C   0  0  0  0  0  3  0  0  0  0  0  0
    2.3850  -11.7380  -24.3670 C   0  0  0  0  0  1  0  0  0  0  0  0
   -0.1220   -7.2860  -26.0190 C   0  0  0  0  0  2  0  0  0  0  0  0
    1.2460   -7.7680  -26.0760 N   0  0  0  0  0  0  0  0  0  0  0  0
    1.5370   -8.4870  -25.4350 H   0  0  0  0  0  0  0  0  0  0  0  0
    2.0480   -7.4020  -27.1450 C   0  0  0  0  0  0  0  0  0  0  0  0
    1.6170   -6.3740  -27.9000 N   0  0  0  0  0  0  0  0  0  0  0  0
    2.1690   -6.2370  -29.1020 C   0  0  0  0  0  3  0  0  0  0  0  0
    3.0350   -7.0870  -29.6560 N   0  0  0  0  0  0  0  0  0  0  0  0
    3.5030   -8.0900  -28.8860 C   0  0  0  0  0  0  0  0  0  0  0  0
    4.3810   -9.0540  -29.3940 C   0  0  0  0  0  0  0  0  0  0  0  0
    4.9740  -10.0430  -28.5950 C   0  0  0  0  0  3  0  0  0  0  0  0
    4.6340  -10.1310  -27.2560 C   0  0  0  0  0  3  0  0  0  0  0  0
    3.6740   -9.2620  -26.7470 C   0  0  0  0  0  3  0  0  0  0  0  0
    3.0950   -8.2460  -27.5550 C   0  0  0  0  0  0  0  0  0  0  0  0
    4.6160   -9.1620  -30.8460 C   0  0  0  0  0  0  0  0  0  0  0  0
    4.9670   -7.9960  -31.4700 N   0  0  0  0  0  0  0  0  0  0  0  0
    4.3920  -10.1950  -31.4610 O   0  0  0  0  0  0  0  0  0  0  0  0
    5.0950   -8.0070  -32.4730 H   0  0  0  0  0  0  0  0  0  0  0  0
    5.1330   -7.1360  -30.9650 H   0  0  0  0  0  0  0  0  0  0  0  0
  1  2  1  0  0  0  0
  1  9  1  0  0  0  0
  3  2  2  0  0  0  0
  4  3  1  0  0  0  0
  5  4  2  0  0  0  0
  5  6  1  0  0  0  0
  6  1  2  0  0  0  0
  7  9  1  0  0  0  0
  7  8  2  0  0  0  0
  9 10  1  0  0  0  0
 11 12  1  0  0  0  0
 12 13  2  0  0  0  0
 13  7  1  0  0  0  0
 14 13  1  0  0  0  0
 15 11  2  0  0  0  0
 15 14  1  0  0  0  0
 16 14  1  0  0  0  0
 17 18  1  0  0  0  0
 18 19  1  0  0  0  0
 18 11  1  0  0  0  0
 20  5  1  0  0  0  0
 21 20  1  0  0  0  0
 21 22  1  0  0  0  0
 23 21  1  0  0  0  0
 24 23  2  0  0  0  0
 25 24  1  0  0  0  0
 26 25  2  0  0  0  0
 26 27  1  0  0  0  0
 27 32  1  0  0  0  0
 28 27  2  0  0  0  0
 28 29  1  0  0  0  0
 29 30  2  0  0  0  0
 30 31  1  0  0  0  0
 32 23  1  0  0  0  0
 32 31  2  0  0  0  0
 33 28  1  0  0  0  0
 34 37  1  0  0  0  0
 34 33  1  0  0  0  0
 35 33  2  0  0  0  0
 36 34  1  0  0  0  0
M  END
>  <minimizedAffinity>
-6.83686781

$$$$
