
 OpenBabel10152418313D

 37 40  0  0  0  0  0  0  0  0999 V2000
   -0.5480  -10.4790  -23.2030 C   0  0  0  0  0  0  0  0  0  0  0  0
   -1.6120  -10.9130  -23.9930 C   0  0  0  0  0  3  0  0  0  0  0  0
   -1.4210  -11.1250  -25.3540 C   0  0  0  0  0  3  0  0  0  0  0  0
   -0.1600  -10.9270  -25.9190 C   0  0  0  0  0  3  0  0  0  0  0  0
    0.9520  -10.5970  -25.1290 C   0  0  0  0  0  0  0  0  0  0  0  0
    0.7390  -10.4030  -23.7570 C   0  0  0  0  0  3  0  0  0  0  0  0
   -1.6020   -9.0880  -21.3770 C   0  0  0  0  0  0  0  0  0  0  0  0
   -1.4520   -8.7590  -20.2000 O   0  0  0  0  0  0  0  0  0  0  0  0
   -0.8350  -10.1210  -21.8730 N   0  0  0  0  0  0  0  0  0  0  0  0
   -0.4520  -10.7060  -21.1420 H   0  0  0  0  0  0  0  0  0  0  0  0
   -4.3940   -7.6840  -23.2630 C   0  0  0  0  0  0  0  0  0  0  0  0
   -3.9170   -8.1160  -22.0060 C   0  0  0  0  0  3  0  0  0  0  0  0
   -2.5930   -8.4580  -22.2110 C   0  0  0  0  0  0  0  0  0  0  0  0
   -2.3150   -8.0090  -23.4720 N   0  0  0  0  0  0  0  0  0  0  0  0
   -3.4010   -7.6100  -24.1580 N   0  0  0  0  0  0  0  0  0  0  0  0
   -1.4130   -8.0150  -23.9390 H   0  0  0  0  0  0  0  0  0  0  0  0
   -6.5770   -8.6510  -24.0520 C   0  0  0  0  0  1  0  0  0  0  0  0
   -5.8200   -7.3920  -23.6360 C   0  0  0  0  0  3  0  0  0  0  0  0
   -6.5550   -6.6580  -22.5110 C   0  0  0  0  0  1  0  0  0  0  0  0
    2.3290  -10.3530  -25.7330 C   0  0  0  0  0  2  0  0  0  0  0  0
    2.7000   -8.9500  -25.7240 N   0  0  0  0  0  0  0  0  0  0  0  0
    3.3270   -8.6160  -25.0110 H   0  0  0  0  0  0  0  0  0  0  0  0
    2.3760   -8.1580  -26.8130 C   0  0  0  0  0  0  0  0  0  0  0  0
    3.2180   -8.1980  -27.8620 N   0  0  0  0  0  0  0  0  0  0  0  0
    3.1240   -7.2090  -28.7480 C   0  0  0  0  0  3  0  0  0  0  0  0
    2.3380   -6.1380  -28.6300 N   0  0  0  0  0  0  0  0  0  0  0  0
    1.4610   -6.1190  -27.6060 C   0  0  0  0  0  0  0  0  0  0  0  0
    0.6260   -5.0190  -27.3780 C   0  0  0  0  0  0  0  0  0  0  0  0
   -0.3730   -5.0100  -26.3940 C   0  0  0  0  0  3  0  0  0  0  0  0
   -0.5100   -6.1010  -25.5530 C   0  0  0  0  0  3  0  0  0  0  0  0
    0.3810   -7.1620  -25.6760 C   0  0  0  0  0  3  0  0  0  0  0  0
    1.3760   -7.1770  -26.6910 C   0  0  0  0  0  0  0  0  0  0  0  0
    0.8590   -3.7440  -28.0820 C   0  0  0  0  0  0  0  0  0  0  0  0
    0.3720   -2.6300  -27.4510 N   0  0  0  0  0  0  0  0  0  0  0  0
    1.3430   -3.7040  -29.2030 O   0  0  0  0  0  0  0  0  0  0  0  0
    0.4660   -1.7370  -27.9130 H   0  0  0  0  0  0  0  0  0  0  0  0
   -0.0470   -2.6650  -26.5310 H   0  0  0  0  0  0  0  0  0  0  0  0
  1  9  1  0  0  0  0
  2  1  2  0  0  0  0
  3  2  1  0  0  0  0
  4  3  2  0  0  0  0
  4  5  1  0  0  0  0
  5  6  2  0  0  0  0
  6  1  1  0  0  0  0
  7  8  2  0  0  0  0
  9  7  1  0  0  0  0
  9 10  1  0  0  0  0
 11 12  1  0  0  0  0
 13 12  2  0  0  0  0
 13  7  1  0  0  0  0
 14 13  1  0  0  0  0
 15 14  1  0  0  0  0
 15 11  2  0  0  0  0
 16 14  1  0  0  0  0
 17 18  1  0  0  0  0
 18 11  1  0  0  0  0
 18 19  1  0  0  0  0
 20 21  1  0  0  0  0
 20  5  1  0  0  0  0
 21 22  1  0  0  0  0
 23 32  1  0  0  0  0
 23 21  1  0  0  0  0
 24 23  2  0  0  0  0
 25 26  2  0  0  0  0
 25 24  1  0  0  0  0
 26 27  1  0  0  0  0
 27 28  2  0  0  0  0
 27 32  1  0  0  0  0
 28 29  1  0  0  0  0
 29 30  2  0  0  0  0
 31 30  1  0  0  0  0
 32 31  2  0  0  0  0
 33 34  1  0  0  0  0
 33 28  1  0  0  0  0
 34 37  1  0  0  0  0
 35 33  2  0  0  0  0
 36 34  1  0  0  0  0
M  END
>  <minimizedAffinity>
-6.68555593

$$$$
