
 OpenBabel10152418313D

 37 40  0  0  0  0  0  0  0  0999 V2000
   -0.8370   -9.5700  -24.0690 C   0  0  0  0  0  0  0  0  0  0  0  0
   -1.7710  -10.1320  -24.9380 C   0  0  0  0  0  3  0  0  0  0  0  0
   -1.3880  -11.1570  -25.7960 C   0  0  0  0  0  3  0  0  0  0  0  0
   -0.0770  -11.6350  -25.7670 C   0  0  0  0  0  3  0  0  0  0  0  0
    0.8540  -11.1630  -24.8280 C   0  0  0  0  0  0  0  0  0  0  0  0
    0.4410  -10.1410  -23.9630 C   0  0  0  0  0  3  0  0  0  0  0  0
   -0.9540   -7.0980  -23.5660 C   0  0  0  0  0  0  0  0  0  0  0  0
   -1.1170   -6.3040  -22.6390 O   0  0  0  0  0  0  0  0  0  0  0  0
   -1.2320   -8.4300  -23.3460 N   0  0  0  0  0  0  0  0  0  0  0  0
   -1.8330   -8.5740  -22.5450 H   0  0  0  0  0  0  0  0  0  0  0  0
    0.4380   -5.8330  -26.6950 C   0  0  0  0  0  0  0  0  0  0  0  0
    0.7000   -6.4310  -25.4420 C   0  0  0  0  0  3  0  0  0  0  0  0
   -0.5410   -6.6510  -24.8720 C   0  0  0  0  0  0  0  0  0  0  0  0
   -1.4310   -6.3930  -25.8770 N   0  0  0  0  0  0  0  0  0  0  0  0
   -0.8750   -5.8220  -26.9600 N   0  0  0  0  0  0  0  0  0  0  0  0
   -2.4380   -6.5220  -25.8510 H   0  0  0  0  0  0  0  0  0  0  0  0
    1.7660   -6.1190  -28.8110 C   0  0  0  0  0  1  0  0  0  0  0  0
    1.4390   -5.2130  -27.6260 C   0  0  0  0  0  3  0  0  0  0  0  0
    0.9800   -3.8320  -28.1050 C   0  0  0  0  0  1  0  0  0  0  0  0
    2.2940  -11.6570  -24.8000 C   0  0  0  0  0  2  0  0  0  0  0  0
    2.8780  -11.7500  -26.1250 N   0  0  0  0  0  0  0  0  0  0  0  0
    2.6840  -12.5610  -26.6880 H   0  0  0  0  0  0  0  0  0  0  0  0
    3.4920  -10.6350  -26.6730 C   0  0  0  0  0  0  0  0  0  0  0  0
    3.3960   -9.4880  -25.9760 N   0  0  0  0  0  0  0  0  0  0  0  0
    3.6630   -8.3610  -26.6310 C   0  0  0  0  0  3  0  0  0  0  0  0
    3.9180   -8.2690  -27.9370 N   0  0  0  0  0  0  0  0  0  0  0  0
    4.0600   -9.4180  -28.6270 C   0  0  0  0  0  0  0  0  0  0  0  0
    4.2860   -9.4190  -30.0080 C   0  0  0  0  0  0  0  0  0  0  0  0
    4.5500  -10.5870  -30.7380 C   0  0  0  0  0  3  0  0  0  0  0  0
    4.5210  -11.8130  -30.0940 C   0  0  0  0  0  3  0  0  0  0  0  0
    4.1820  -11.8570  -28.7460 C   0  0  0  0  0  3  0  0  0  0  0  0
    3.9410  -10.6680  -28.0060 C   0  0  0  0  0  0  0  0  0  0  0  0
    4.1130   -8.1840  -30.7960 C   0  0  0  0  0  0  0  0  0  0  0  0
    4.9010   -7.1320  -30.4150 N   0  0  0  0  0  0  0  0  0  0  0  0
    3.2410   -8.0780  -31.6460 O   0  0  0  0  0  0  0  0  0  0  0  0
    4.7880   -6.2490  -30.8940 H   0  0  0  0  0  0  0  0  0  0  0  0
    5.6090   -7.2130  -29.6980 H   0  0  0  0  0  0  0  0  0  0  0  0
  1  6  1  0  0  0  0
  1  9  1  0  0  0  0
  2  1  2  0  0  0  0
  3  4  2  0  0  0  0
  3  2  1  0  0  0  0
  4  5  1  0  0  0  0
  5 20  1  0  0  0  0
  5  6  2  0  0  0  0
  7  9  1  0  0  0  0
  7  8  2  0  0  0  0
  9 10  1  0  0  0  0
 11 12  1  0  0  0  0
 12 13  2  0  0  0  0
 13  7  1  0  0  0  0
 14 16  1  0  0  0  0
 14 13  1  0  0  0  0
 15 11  2  0  0  0  0
 15 14  1  0  0  0  0
 17 18  1  0  0  0  0
 18 11  1  0  0  0  0
 19 18  1  0  0  0  0
 21 20  1  0  0  0  0
 22 21  1  0  0  0  0
 23 21  1  0  0  0  0
 23 24  1  0  0  0  0
 25 24  2  0  0  0  0
 26 25  1  0  0  0  0
 27 32  1  0  0  0  0
 27 26  2  0  0  0  0
 28 27  1  0  0  0  0
 29 30  1  0  0  0  0
 29 28  2  0  0  0  0
 30 31  2  0  0  0  0
 31 32  1  0  0  0  0
 32 23  2  0  0  0  0
 33 34  1  0  0  0  0
 33 28  1  0  0  0  0
 34 37  1  0  0  0  0
 35 33  2  0  0  0  0
 36 34  1  0  0  0  0
M  END
>  <minimizedAffinity>
-8.97488213

$$$$
