
 OpenBabel10152418313D

 37 40  0  0  0  0  0  0  0  0999 V2000
   -0.8370   -9.5700  -24.0690 C   0  0  0  0  0  0  0  0  0  0  0  0
   -1.7710  -10.1320  -24.9380 C   0  0  0  0  0  3  0  0  0  0  0  0
   -1.3880  -11.1570  -25.7960 C   0  0  0  0  0  3  0  0  0  0  0  0
   -0.0770  -11.6350  -25.7670 C   0  0  0  0  0  3  0  0  0  0  0  0
    0.8540  -11.1630  -24.8280 C   0  0  0  0  0  0  0  0  0  0  0  0
    0.4410  -10.1410  -23.9630 C   0  0  0  0  0  3  0  0  0  0  0  0
   -0.9540   -7.0980  -23.5660 C   0  0  0  0  0  0  0  0  0  0  0  0
   -1.1170   -6.3040  -22.6390 O   0  0  0  0  0  0  0  0  0  0  0  0
   -1.2320   -8.4300  -23.3460 N   0  0  0  0  0  0  0  0  0  0  0  0
   -1.8330   -8.5740  -22.5450 H   0  0  0  0  0  0  0  0  0  0  0  0
    0.4380   -5.8330  -26.6950 C   0  0  0  0  0  0  0  0  0  0  0  0
    0.7000   -6.4310  -25.4420 C   0  0  0  0  0  3  0  0  0  0  0  0
   -0.5410   -6.6510  -24.8720 C   0  0  0  0  0  0  0  0  0  0  0  0
   -1.4310   -6.3930  -25.8770 N   0  0  0  0  0  0  0  0  0  0  0  0
   -0.8750   -5.8220  -26.9600 N   0  0  0  0  0  0  0  0  0  0  0  0
   -2.4380   -6.5220  -25.8510 H   0  0  0  0  0  0  0  0  0  0  0  0
    1.7660   -6.1190  -28.8110 C   0  0  0  0  0  1  0  0  0  0  0  0
    1.4390   -5.2130  -27.6260 C   0  0  0  0  0  3  0  0  0  0  0  0
    0.9800   -3.8320  -28.1050 C   0  0  0  0  0  1  0  0  0  0  0  0
    2.2940  -11.6570  -24.8000 C   0  0  0  0  0  2  0  0  0  0  0  0
    2.8780  -11.7500  -26.1250 N   0  0  0  0  0  0  0  0  0  0  0  0
    2.6840  -12.5610  -26.6880 H   0  0  0  0  0  0  0  0  0  0  0  0
    3.4920  -10.6350  -26.6730 C   0  0  0  0  0  0  0  0  0  0  0  0
    3.3960   -9.4880  -25.9760 N   0  0  0  0  0  0  0  0  0  0  0  0
    3.6630   -8.3610  -26.6310 C   0  0  0  0  0  3  0  0  0  0  0  0
    3.9180   -8.2690  -27.9370 N   0  0  0  0  0  0  0  0  0  0  0  0
    4.0600   -9.4180  -28.6270 C   0  0  0  0  0  0  0  0  0  0  0  0
    4.2860   -9.4190  -30.0080 C   0  0  0  0  0  0  0  0  0  0  0  0
    4.5500  -10.5870  -30.7380 C   0  0  0  0  0  3  0  0  0  0  0  0
    4.5210  -11.8130  -30.0940 C   0  0  0  0  0  3  0  0  0  0  0  0
    4.1820  -11.8570  -28.7460 C   0  0  0  0  0  3  0  0  0  0  0  0
    3.9410  -10.6680  -28.0060 C   0  0  0  0  0  0  0  0  0  0  0  0
    4.1130   -8.1840  -30.7960 C   0  0  0  0  0  0  0  0  0  0  0  0
    4.9010   -7.1320  -30.4150 N   0  0  0  0  0  0  0  0  0  0  0  0
    3.2410   -8.0780  -31.6460 O   0  0  0  0  0  0  0  0  0  0  0  0
    4.7880   -6.2490  -30.8940 H   0  0  0  0  0  0  0  0  0  0  0  0
    5.6090   -7.2130  -29.6980 H   0  0  0  0  0  0  0  0  0  0  0  0
  1  6  1  0  0  0  0
  1  9  1  0  0  0  0
  2  1  2  0  0  0  0
  3  4  2  0  0  0  0
  3  2  1  0  0  0  0
  4  5  1  0  0  0  0
  5 20  1  0  0  0  0
  5  6  2  0  0  0  0
  7  9  1  0  0  0  0
  7  8  2  0  0  0  0
  9 10  1  0  0  0  0
 11 12  1  0  0  0  0
 12 13  2  0  0  0  0
 13  7  1  0  0  0  0
 14 16  1  0  0  0  0
 14 13  1  0  0  0  0
 15 11  2  0  0  0  0
 15 14  1  0  0  0  0
 17 18  1  0  0  0  0
 18 11  1  0  0  0  0
 19 18  1  0  0  0  0
 21 20  1  0  0  0  0
 22 21  1  0  0  0  0
 23 21  1  0  0  0  0
 23 24  1  0  0  0  0
 25 24  2  0  0  0  0
 26 25  1  0  0  0  0
 27 32  1  0  0  0  0
 27 26  2  0  0  0  0
 28 27  1  0  0  0  0
 29 30  1  0  0  0  0
 29 28  2  0  0  0  0
 30 31  2  0  0  0  0
 31 32  1  0  0  0  0
 32 23  2  0  0  0  0
 33 34  1  0  0  0  0
 33 28  1  0  0  0  0
 34 37  1  0  0  0  0
 35 33  2  0  0  0  0
 36 34  1  0  0  0  0
M  END
>  <minimizedAffinity>
-8.97488213

$$$$

 OpenBabel10152418313D

 37 40  0  0  0  0  0  0  0  0999 V2000
    2.9650   -8.7530  -26.9550 C   0  0  0  0  0  0  0  0  0  0  0  0
    3.0090   -7.8820  -25.8670 C   0  0  0  0  0  3  0  0  0  0  0  0
    2.4970   -8.2850  -24.6380 C   0  0  0  0  0  3  0  0  0  0  0  0
    1.9650   -9.5670  -24.4930 C   0  0  0  0  0  3  0  0  0  0  0  0
    2.0070  -10.5000  -25.5410 C   0  0  0  0  0  0  0  0  0  0  0  0
    2.5420  -10.0760  -26.7660 C   0  0  0  0  0  3  0  0  0  0  0  0
    2.7880   -7.2160  -28.9520 C   0  0  0  0  0  0  0  0  0  0  0  0
    3.0590   -7.1500  -30.1510 O   0  0  0  0  0  0  0  0  0  0  0  0
    3.3410   -8.2380  -28.2090 N   0  0  0  0  0  0  0  0  0  0  0  0
    4.1550   -8.6430  -28.6530 H   0  0  0  0  0  0  0  0  0  0  0  0
    0.4400   -5.0100  -27.2340 C   0  0  0  0  0  0  0  0  0  0  0  0
    1.0490   -6.2840  -27.2760 C   0  0  0  0  0  3  0  0  0  0  0  0
    1.9600   -6.2240  -28.3140 C   0  0  0  0  0  0  0  0  0  0  0  0
    1.9980   -4.9020  -28.6610 N   0  0  0  0  0  0  0  0  0  0  0  0
    1.0360   -4.1610  -28.0820 N   0  0  0  0  0  0  0  0  0  0  0  0
    2.6150   -4.4640  -29.3390 H   0  0  0  0  0  0  0  0  0  0  0  0
   -0.6920   -5.1380  -24.9930 C   0  0  0  0  0  1  0  0  0  0  0  0
   -0.7580   -4.6080  -26.4230 C   0  0  0  0  0  3  0  0  0  0  0  0
   -0.9590   -3.0900  -26.4350 C   0  0  0  0  0  1  0  0  0  0  0  0
    1.4090  -11.8940  -25.4060 C   0  0  0  0  0  2  0  0  0  0  0  0
   -0.0090  -11.9230  -25.7120 N   0  0  0  0  0  0  0  0  0  0  0  0
   -0.3980  -12.7430  -26.1470 H   0  0  0  0  0  0  0  0  0  0  0  0
   -0.8320  -10.9320  -25.2000 C   0  0  0  0  0  0  0  0  0  0  0  0
   -1.0870   -9.8830  -26.0040 N   0  0  0  0  0  0  0  0  0  0  0  0
   -1.5680   -8.7860  -25.4250 C   0  0  0  0  0  3  0  0  0  0  0  0
   -1.7220   -8.6080  -24.1130 N   0  0  0  0  0  0  0  0  0  0  0  0
   -1.5120   -9.6710  -23.3110 C   0  0  0  0  0  0  0  0  0  0  0  0
   -1.6080   -9.5690  -21.9190 C   0  0  0  0  0  0  0  0  0  0  0  0
   -1.5070  -10.6750  -21.0620 C   0  0  0  0  0  3  0  0  0  0  0  0
   -1.2300  -11.9230  -21.5930 C   0  0  0  0  0  3  0  0  0  0  0  0
   -1.0110  -12.0390  -22.9620 C   0  0  0  0  0  3  0  0  0  0  0  0
   -1.1390  -10.9190  -23.8280 C   0  0  0  0  0  0  0  0  0  0  0  0
   -1.6800   -8.2460  -21.2690 C   0  0  0  0  0  0  0  0  0  0  0  0
   -1.1620   -7.2080  -21.9950 N   0  0  0  0  0  0  0  0  0  0  0  0
   -2.0640   -8.1140  -20.1150 O   0  0  0  0  0  0  0  0  0  0  0  0
   -1.1460   -6.2890  -21.5750 H   0  0  0  0  0  0  0  0  0  0  0  0
   -0.8250   -7.3210  -22.9420 H   0  0  0  0  0  0  0  0  0  0  0  0
  1  6  2  0  0  0  0
  1  2  1  0  0  0  0
  2  3  2  0  0  0  0
  3  4  1  0  0  0  0
  5 20  1  0  0  0  0
  5  4  2  0  0  0  0
  6  5  1  0  0  0  0
  7 13  1  0  0  0  0
  7  9  1  0  0  0  0
  8  7  2  0  0  0  0
  9  1  1  0  0  0  0
 10  9  1  0  0  0  0
 11 18  1  0  0  0  0
 12 11  1  0  0  0  0
 13 12  2  0  0  0  0
 14 13  1  0  0  0  0
 14 15  1  0  0  0  0
 15 11  2  0  0  0  0
 16 14  1  0  0  0  0
 18 17  1  0  0  0  0
 19 18  1  0  0  0  0
 21 20  1  0  0  0  0
 21 23  1  0  0  0  0
 22 21  1  0  0  0  0
 23 32  1  0  0  0  0
 24 25  1  0  0  0  0
 24 23  2  0  0  0  0
 25 26  2  0  0  0  0
 26 27  1  0  0  0  0
 27 28  1  0  0  0  0
 28 33  1  0  0  0  0
 28 29  2  0  0  0  0
 30 29  1  0  0  0  0
 31 30  2  0  0  0  0
 32 27  2  0  0  0  0
 32 31  1  0  0  0  0
 33 35  2  0  0  0  0
 34 36  1  0  0  0  0
 34 33  1  0  0  0  0
 37 34  1  0  0  0  0
M  END
>  <minimizedAffinity>
-7.76007223

$$$$

 OpenBabel10152418313D

 37 40  0  0  0  0  0  0  0  0999 V2000
   -0.7960  -10.7350  -23.4150 C   0  0  0  0  0  0  0  0  0  0  0  0
   -1.5390  -10.8450  -24.5910 C   0  0  0  0  0  3  0  0  0  0  0  0
   -0.9220  -11.2780  -25.7600 C   0  0  0  0  0  3  0  0  0  0  0  0
    0.4300  -11.6230  -25.7460 C   0  0  0  0  0  3  0  0  0  0  0  0
    1.1730  -11.6260  -24.5550 C   0  0  0  0  0  0  0  0  0  0  0  0
    0.5270  -11.2010  -23.3860 C   0  0  0  0  0  3  0  0  0  0  0  0
   -1.4550   -8.8160  -21.9100 C   0  0  0  0  0  0  0  0  0  0  0  0
   -1.7770   -8.5620  -20.7500 O   0  0  0  0  0  0  0  0  0  0  0  0
   -1.4250  -10.1360  -22.3090 N   0  0  0  0  0  0  0  0  0  0  0  0
   -1.9680  -10.7370  -21.7020 H   0  0  0  0  0  0  0  0  0  0  0  0
   -0.5910   -6.4550  -24.5570 C   0  0  0  0  0  0  0  0  0  0  0  0
   -1.0540   -7.7500  -24.2340 C   0  0  0  0  0  3  0  0  0  0  0  0
   -1.1700   -7.7680  -22.8560 C   0  0  0  0  0  0  0  0  0  0  0  0
   -0.9970   -6.4660  -22.4810 N   0  0  0  0  0  0  0  0  0  0  0  0
   -0.5680   -5.6670  -23.4740 N   0  0  0  0  0  0  0  0  0  0  0  0
   -1.0900   -6.0800  -21.5450 H   0  0  0  0  0  0  0  0  0  0  0  0
   -0.4300   -6.9660  -27.0130 C   0  0  0  0  0  1  0  0  0  0  0  0
   -0.1100   -5.9750  -25.8960 C   0  0  0  0  0  3  0  0  0  0  0  0
   -0.6610   -4.5850  -26.2250 C   0  0  0  0  0  1  0  0  0  0  0  0
    2.6550  -11.9760  -24.5270 C   0  0  0  0  0  2  0  0  0  0  0  0
    3.4720  -10.9950  -25.2170 N   0  0  0  0  0  0  0  0  0  0  0  0
    4.1800  -10.5000  -24.7010 H   0  0  0  0  0  0  0  0  0  0  0  0
    3.4220  -10.9250  -26.6000 C   0  0  0  0  0  0  0  0  0  0  0  0
    3.7610  -12.0390  -27.2750 N   0  0  0  0  0  0  0  0  0  0  0  0
    4.0550  -11.8950  -28.5650 C   0  0  0  0  0  3  0  0  0  0  0  0
    4.1360  -10.7330  -29.2140 N   0  0  0  0  0  0  0  0  0  0  0  0
    3.7510   -9.6230  -28.5540 C   0  0  0  0  0  0  0  0  0  0  0  0
    3.8410   -8.3540  -29.1390 C   0  0  0  0  0  0  0  0  0  0  0  0
    3.3470   -7.1930  -28.5270 C   0  0  0  0  0  3  0  0  0  0  0  0
    2.8060   -7.2720  -27.2550 C   0  0  0  0  0  3  0  0  0  0  0  0
    2.8090   -8.4980  -26.5970 C   0  0  0  0  0  3  0  0  0  0  0  0
    3.2880   -9.6760  -27.2330 C   0  0  0  0  0  0  0  0  0  0  0  0
    4.6020   -8.1590  -30.3880 C   0  0  0  0  0  0  0  0  0  0  0  0
    4.9320   -6.8610  -30.6750 N   0  0  0  0  0  0  0  0  0  0  0  0
    4.8110   -9.0770  -31.1670 O   0  0  0  0  0  0  0  0  0  0  0  0
    5.4130   -6.6690  -31.5420 H   0  0  0  0  0  0  0  0  0  0  0  0
    4.7400   -6.0980  -30.0400 H   0  0  0  0  0  0  0  0  0  0  0  0
  1  6  1  0  0  0  0
  1  9  1  0  0  0  0
  2  1  2  0  0  0  0
  3  4  2  0  0  0  0
  3  2  1  0  0  0  0
  4  5  1  0  0  0  0
  5 20  1  0  0  0  0
  5  6  2  0  0  0  0
  7  8  2  0  0  0  0
  9  7  1  0  0  0  0
  9 10  1  0  0  0  0
 11 12  1  0  0  0  0
 11 15  2  0  0  0  0
 12 13  2  0  0  0  0
 13 14  1  0  0  0  0
 13  7  1  0  0  0  0
 14 16  1  0  0  0  0
 15 14  1  0  0  0  0
 17 18  1  0  0  0  0
 18 11  1  0  0  0  0
 19 18  1  0  0  0  0
 21 22  1  0  0  0  0
 21 20  1  0  0  0  0
 23 21  1  0  0  0  0
 24 23  2  0  0  0  0
 25 24  1  0  0  0  0
 26 25  2  0  0  0  0
 26 27  1  0  0  0  0
 27 32  1  0  0  0  0
 28 27  2  0  0  0  0
 28 29  1  0  0  0  0
 29 30  2  0  0  0  0
 30 31  1  0  0  0  0
 32 23  1  0  0  0  0
 32 31  2  0  0  0  0
 33 28  1  0  0  0  0
 34 33  1  0  0  0  0
 34 37  1  0  0  0  0
 35 33  2  0  0  0  0
 36 34  1  0  0  0  0
M  END
>  <minimizedAffinity>
-7.48314047

$$$$

 OpenBabel10152418313D

 37 40  0  0  0  0  0  0  0  0999 V2000
   -0.6360  -11.7610  -23.6540 C   0  0  0  0  0  0  0  0  0  0  0  0
   -1.3960  -11.7350  -24.8230 C   0  0  0  0  0  3  0  0  0  0  0  0
   -0.7610  -11.7630  -26.0600 C   0  0  0  0  0  3  0  0  0  0  0  0
    0.6300  -11.8410  -26.1270 C   0  0  0  0  0  3  0  0  0  0  0  0
    1.4120  -11.9770  -24.9700 C   0  0  0  0  0  0  0  0  0  0  0  0
    0.7500  -11.9620  -23.7340 C   0  0  0  0  0  3  0  0  0  0  0  0
   -1.6060  -10.3950  -21.7630 C   0  0  0  0  0  0  0  0  0  0  0  0
   -1.9090  -10.4670  -20.5720 O   0  0  0  0  0  0  0  0  0  0  0  0
   -1.3150  -11.5620  -22.4380 N   0  0  0  0  0  0  0  0  0  0  0  0
   -1.6800  -12.3820  -21.9710 H   0  0  0  0  0  0  0  0  0  0  0  0
   -1.2030   -7.2370  -23.5490 C   0  0  0  0  0  0  0  0  0  0  0  0
   -0.7260   -8.5520  -23.3530 C   0  0  0  0  0  3  0  0  0  0  0  0
   -1.6080   -9.1360  -22.4630 C   0  0  0  0  0  0  0  0  0  0  0  0
   -2.6400   -8.2440  -22.3680 N   0  0  0  0  0  0  0  0  0  0  0  0
   -2.3870   -7.0580  -22.9480 N   0  0  0  0  0  0  0  0  0  0  0  0
   -3.5120   -8.3680  -21.8610 H   0  0  0  0  0  0  0  0  0  0  0  0
   -0.2150   -4.9340  -23.3470 C   0  0  0  0  0  1  0  0  0  0  0  0
   -0.5010   -6.1200  -24.2660 C   0  0  0  0  0  3  0  0  0  0  0  0
    0.7820   -6.6070  -24.9460 C   0  0  0  0  0  1  0  0  0  0  0  0
    2.9330  -12.0390  -25.0240 C   0  0  0  0  0  2  0  0  0  0  0  0
    3.4460  -11.9500  -26.3790 N   0  0  0  0  0  0  0  0  0  0  0  0
    3.3340  -12.7370  -26.9950 H   0  0  0  0  0  0  0  0  0  0  0  0
    3.8660  -10.7210  -26.8630 C   0  0  0  0  0  0  0  0  0  0  0  0
    3.6140   -9.6480  -26.0910 N   0  0  0  0  0  0  0  0  0  0  0  0
    3.6860   -8.4560  -26.6760 C   0  0  0  0  0  3  0  0  0  0  0  0
    3.8890   -8.2440  -27.9770 N   0  0  0  0  0  0  0  0  0  0  0  0
    4.1890   -9.3120  -28.7420 C   0  0  0  0  0  0  0  0  0  0  0  0
    4.3760   -9.1940  -30.1240 C   0  0  0  0  0  0  0  0  0  0  0  0
    4.7970  -10.2590  -30.9330 C   0  0  0  0  0  3  0  0  0  0  0  0
    4.9740  -11.5120  -30.3700 C   0  0  0  0  0  3  0  0  0  0  0  0
    4.6820  -11.6910  -29.0220 C   0  0  0  0  0  3  0  0  0  0  0  0
    4.2790  -10.6020  -28.2020 C   0  0  0  0  0  0  0  0  0  0  0  0
    3.9940   -7.9540  -30.8280 C   0  0  0  0  0  0  0  0  0  0  0  0
    4.6290   -6.8200  -30.4010 N   0  0  0  0  0  0  0  0  0  0  0  0
    3.0860   -7.9310  -31.6460 O   0  0  0  0  0  0  0  0  0  0  0  0
    4.3700   -5.9370  -30.8190 H   0  0  0  0  0  0  0  0  0  0  0  0
    5.3660   -6.8360  -29.7090 H   0  0  0  0  0  0  0  0  0  0  0  0
  1  9  1  0  0  0  0
  2  1  2  0  0  0  0
  3  2  1  0  0  0  0
  4  3  2  0  0  0  0
  4  5  1  0  0  0  0
  5  6  2  0  0  0  0
  6  1  1  0  0  0  0
  7  8  2  0  0  0  0
  9 10  1  0  0  0  0
  9  7  1  0  0  0  0
 11 12  1  0  0  0  0
 11 15  2  0  0  0  0
 12 13  2  0  0  0  0
 13 14  1  0  0  0  0
 13  7  1  0  0  0  0
 14 16  1  0  0  0  0
 15 14  1  0  0  0  0
 18 11  1  0  0  0  0
 18 17  1  0  0  0  0
 19 18  1  0  0  0  0
 20  5  1  0  0  0  0
 21 20  1  0  0  0  0
 22 21  1  0  0  0  0
 23 21  1  0  0  0  0
 23 24  1  0  0  0  0
 25 24  2  0  0  0  0
 26 25  1  0  0  0  0
 27 32  1  0  0  0  0
 27 26  2  0  0  0  0
 28 27  1  0  0  0  0
 29 30  1  0  0  0  0
 29 28  2  0  0  0  0
 30 31  2  0  0  0  0
 31 32  1  0  0  0  0
 32 23  2  0  0  0  0
 33 34  1  0  0  0  0
 33 28  1  0  0  0  0
 34 37  1  0  0  0  0
 35 33  2  0  0  0  0
 36 34  1  0  0  0  0
M  END
>  <minimizedAffinity>
-7.19908285

$$$$

 OpenBabel10152418313D

 37 40  0  0  0  0  0  0  0  0999 V2000
   -0.5240  -11.8140  -23.8310 C   0  0  0  0  0  0  0  0  0  0  0  0
   -1.3820  -12.0390  -24.9070 C   0  0  0  0  0  3  0  0  0  0  0  0
   -0.9080  -11.9070  -26.2080 C   0  0  0  0  0  3  0  0  0  0  0  0
    0.4290  -11.5740  -26.4310 C   0  0  0  0  0  3  0  0  0  0  0  0
    1.3390  -11.4480  -25.3700 C   0  0  0  0  0  0  0  0  0  0  0  0
    0.8420  -11.6010  -24.0670 C   0  0  0  0  0  3  0  0  0  0  0  0
   -1.4100  -10.7310  -21.7270 C   0  0  0  0  0  0  0  0  0  0  0  0
   -1.5860  -10.9450  -20.5280 O   0  0  0  0  0  0  0  0  0  0  0  0
   -1.0930  -11.7960  -22.5450 N   0  0  0  0  0  0  0  0  0  0  0  0
   -1.3430  -12.6870  -22.1350 H   0  0  0  0  0  0  0  0  0  0  0  0
   -1.4580   -7.3260  -23.0410 C   0  0  0  0  0  0  0  0  0  0  0  0
   -0.6990   -8.4970  -22.8240 C   0  0  0  0  0  3  0  0  0  0  0  0
   -1.5830   -9.4150  -22.2880 C   0  0  0  0  0  0  0  0  0  0  0  0
   -2.8110   -8.8320  -22.4280 N   0  0  0  0  0  0  0  0  0  0  0  0
   -2.7590   -7.5420  -22.8050 N   0  0  0  0  0  0  0  0  0  0  0  0
   -3.7140   -9.2460  -22.2150 H   0  0  0  0  0  0  0  0  0  0  0  0
   -1.0920   -4.9540  -22.2920 C   0  0  0  0  0  1  0  0  0  0  0  0
   -0.9370   -5.9700  -23.4210 C   0  0  0  0  0  3  0  0  0  0  0  0
    0.5170   -6.0410  -23.8980 C   0  0  0  0  0  1  0  0  0  0  0  0
    2.7950  -11.0610  -25.5950 C   0  0  0  0  0  2  0  0  0  0  0  0
    3.0370   -9.6490  -25.3650 N   0  0  0  0  0  0  0  0  0  0  0  0
    3.3680   -9.3510  -24.4620 H   0  0  0  0  0  0  0  0  0  0  0  0
    3.0310   -8.7780  -26.4420 C   0  0  0  0  0  0  0  0  0  0  0  0
    4.2290   -8.4310  -26.9460 N   0  0  0  0  0  0  0  0  0  0  0  0
    4.2650   -7.3530  -27.7260 C   0  0  0  0  0  3  0  0  0  0  0  0
    3.2360   -6.5390  -27.9660 N   0  0  0  0  0  0  0  0  0  0  0  0
    2.0270   -6.9090  -27.5020 C   0  0  0  0  0  0  0  0  0  0  0  0
    0.8980   -6.0980  -27.6690 C   0  0  0  0  0  0  0  0  0  0  0  0
   -0.3930   -6.5000  -27.2990 C   0  0  0  0  0  3  0  0  0  0  0  0
   -0.5730   -7.7230  -26.6750 C   0  0  0  0  0  3  0  0  0  0  0  0
    0.5430   -8.5020  -26.3870 C   0  0  0  0  0  3  0  0  0  0  0  0
    1.8470   -8.1010  -26.7870 C   0  0  0  0  0  0  0  0  0  0  0  0
    1.0410   -4.7000  -28.1190 C   0  0  0  0  0  0  0  0  0  0  0  0
    1.8690   -4.5140  -29.1930 N   0  0  0  0  0  0  0  0  0  0  0  0
    0.5500   -3.7690  -27.4980 O   0  0  0  0  0  0  0  0  0  0  0  0
    2.0370   -3.5700  -29.5120 H   0  0  0  0  0  0  0  0  0  0  0  0
    2.2920   -5.2830  -29.6950 H   0  0  0  0  0  0  0  0  0  0  0  0
  1  9  1  0  0  0  0
  2  1  2  0  0  0  0
  3  2  1  0  0  0  0
  4  3  2  0  0  0  0
  4  5  1  0  0  0  0
  5  6  2  0  0  0  0
  6  1  1  0  0  0  0
  7  8  2  0  0  0  0
  9 10  1  0  0  0  0
  9  7  1  0  0  0  0
 11 12  1  0  0  0  0
 11 15  2  0  0  0  0
 12 13  2  0  0  0  0
 13  7  1  0  0  0  0
 14 13  1  0  0  0  0
 14 16  1  0  0  0  0
 15 14  1  0  0  0  0
 18 11  1  0  0  0  0
 18 17  1  0  0  0  0
 19 18  1  0  0  0  0
 20  5  1  0  0  0  0
 20 21  1  0  0  0  0
 21 22  1  0  0  0  0
 23 21  1  0  0  0  0
 24 23  2  0  0  0  0
 25 24  1  0  0  0  0
 26 25  2  0  0  0  0
 26 27  1  0  0  0  0
 27 32  1  0  0  0  0
 28 27  2  0  0  0  0
 28 29  1  0  0  0  0
 29 30  2  0  0  0  0
 30 31  1  0  0  0  0
 32 23  1  0  0  0  0
 32 31  2  0  0  0  0
 33 28  1  0  0  0  0
 33 35  2  0  0  0  0
 34 33  1  0  0  0  0
 36 34  1  0  0  0  0
 37 34  1  0  0  0  0
M  END
>  <minimizedAffinity>
-7.03282976

$$$$

 OpenBabel10152418313D

 37 40  0  0  0  0  0  0  0  0999 V2000
   -1.3390   -7.5370  -22.3930 C   0  0  0  0  0  0  0  0  0  0  0  0
   -1.2150   -6.2200  -21.9510 C   0  0  0  0  0  3  0  0  0  0  0  0
   -0.6980   -5.2510  -22.8050 C   0  0  0  0  0  3  0  0  0  0  0  0
   -0.3280   -5.5960  -24.1060 C   0  0  0  0  0  3  0  0  0  0  0  0
   -0.5420   -6.8880  -24.6100 C   0  0  0  0  0  0  0  0  0  0  0  0
   -1.0800   -7.8440  -23.7370 C   0  0  0  0  0  3  0  0  0  0  0  0
   -1.9150   -9.8600  -21.5860 C   0  0  0  0  0  0  0  0  0  0  0  0
   -2.5480  -10.4540  -20.7120 O   0  0  0  0  0  0  0  0  0  0  0  0
   -1.7090   -8.5050  -21.4410 N   0  0  0  0  0  0  0  0  0  0  0  0
   -1.8270   -8.1940  -20.4850 H   0  0  0  0  0  0  0  0  0  0  0  0
   -0.1120  -11.5310  -24.2850 C   0  0  0  0  0  0  0  0  0  0  0  0
   -0.1230  -11.1670  -22.9200 C   0  0  0  0  0  3  0  0  0  0  0  0
   -1.3490  -10.5630  -22.7090 C   0  0  0  0  0  0  0  0  0  0  0  0
   -2.0510  -10.8010  -23.8570 N   0  0  0  0  0  0  0  0  0  0  0  0
   -1.3050  -11.3120  -24.8530 N   0  0  0  0  0  0  0  0  0  0  0  0
   -3.0240  -10.5730  -24.0390 H   0  0  0  0  0  0  0  0  0  0  0  0
    1.0710  -11.4970  -26.5030 C   0  0  0  0  0  1  0  0  0  0  0  0
    1.0610  -12.0370  -25.0750 C   0  0  0  0  0  3  0  0  0  0  0  0
    2.3850  -11.7380  -24.3670 C   0  0  0  0  0  1  0  0  0  0  0  0
   -0.1220   -7.2860  -26.0190 C   0  0  0  0  0  2  0  0  0  0  0  0
    1.2460   -7.7680  -26.0760 N   0  0  0  0  0  0  0  0  0  0  0  0
    1.5370   -8.4870  -25.4350 H   0  0  0  0  0  0  0  0  0  0  0  0
    2.0480   -7.4020  -27.1450 C   0  0  0  0  0  0  0  0  0  0  0  0
    1.6170   -6.3740  -27.9000 N   0  0  0  0  0  0  0  0  0  0  0  0
    2.1690   -6.2370  -29.1020 C   0  0  0  0  0  3  0  0  0  0  0  0
    3.0350   -7.0870  -29.6560 N   0  0  0  0  0  0  0  0  0  0  0  0
    3.5030   -8.0900  -28.8860 C   0  0  0  0  0  0  0  0  0  0  0  0
    4.3810   -9.0540  -29.3940 C   0  0  0  0  0  0  0  0  0  0  0  0
    4.9740  -10.0430  -28.5950 C   0  0  0  0  0  3  0  0  0  0  0  0
    4.6340  -10.1310  -27.2560 C   0  0  0  0  0  3  0  0  0  0  0  0
    3.6740   -9.2620  -26.7470 C   0  0  0  0  0  3  0  0  0  0  0  0
    3.0950   -8.2460  -27.5550 C   0  0  0  0  0  0  0  0  0  0  0  0
    4.6160   -9.1620  -30.8460 C   0  0  0  0  0  0  0  0  0  0  0  0
    4.9670   -7.9960  -31.4700 N   0  0  0  0  0  0  0  0  0  0  0  0
    4.3920  -10.1950  -31.4610 O   0  0  0  0  0  0  0  0  0  0  0  0
    5.0950   -8.0070  -32.4730 H   0  0  0  0  0  0  0  0  0  0  0  0
    5.1330   -7.1360  -30.9650 H   0  0  0  0  0  0  0  0  0  0  0  0
  1  2  1  0  0  0  0
  1  9  1  0  0  0  0
  3  2  2  0  0  0  0
  4  3  1  0  0  0  0
  5  4  2  0  0  0  0
  5  6  1  0  0  0  0
  6  1  2  0  0  0  0
  7  9  1  0  0  0  0
  7  8  2  0  0  0  0
  9 10  1  0  0  0  0
 11 12  1  0  0  0  0
 12 13  2  0  0  0  0
 13  7  1  0  0  0  0
 14 13  1  0  0  0  0
 15 11  2  0  0  0  0
 15 14  1  0  0  0  0
 16 14  1  0  0  0  0
 17 18  1  0  0  0  0
 18 19  1  0  0  0  0
 18 11  1  0  0  0  0
 20  5  1  0  0  0  0
 21 20  1  0  0  0  0
 21 22  1  0  0  0  0
 23 21  1  0  0  0  0
 24 23  2  0  0  0  0
 25 24  1  0  0  0  0
 26 25  2  0  0  0  0
 26 27  1  0  0  0  0
 27 32  1  0  0  0  0
 28 27  2  0  0  0  0
 28 29  1  0  0  0  0
 29 30  2  0  0  0  0
 30 31  1  0  0  0  0
 32 23  1  0  0  0  0
 32 31  2  0  0  0  0
 33 28  1  0  0  0  0
 34 37  1  0  0  0  0
 34 33  1  0  0  0  0
 35 33  2  0  0  0  0
 36 34  1  0  0  0  0
M  END
>  <minimizedAffinity>
-6.83686781

$$$$

 OpenBabel10152418313D

 37 40  0  0  0  0  0  0  0  0999 V2000
   -0.5480  -10.4790  -23.2030 C   0  0  0  0  0  0  0  0  0  0  0  0
   -1.6120  -10.9130  -23.9930 C   0  0  0  0  0  3  0  0  0  0  0  0
   -1.4210  -11.1250  -25.3540 C   0  0  0  0  0  3  0  0  0  0  0  0
   -0.1600  -10.9270  -25.9190 C   0  0  0  0  0  3  0  0  0  0  0  0
    0.9520  -10.5970  -25.1290 C   0  0  0  0  0  0  0  0  0  0  0  0
    0.7390  -10.4030  -23.7570 C   0  0  0  0  0  3  0  0  0  0  0  0
   -1.6020   -9.0880  -21.3770 C   0  0  0  0  0  0  0  0  0  0  0  0
   -1.4520   -8.7590  -20.2000 O   0  0  0  0  0  0  0  0  0  0  0  0
   -0.8350  -10.1210  -21.8730 N   0  0  0  0  0  0  0  0  0  0  0  0
   -0.4520  -10.7060  -21.1420 H   0  0  0  0  0  0  0  0  0  0  0  0
   -4.3940   -7.6840  -23.2630 C   0  0  0  0  0  0  0  0  0  0  0  0
   -3.9170   -8.1160  -22.0060 C   0  0  0  0  0  3  0  0  0  0  0  0
   -2.5930   -8.4580  -22.2110 C   0  0  0  0  0  0  0  0  0  0  0  0
   -2.3150   -8.0090  -23.4720 N   0  0  0  0  0  0  0  0  0  0  0  0
   -3.4010   -7.6100  -24.1580 N   0  0  0  0  0  0  0  0  0  0  0  0
   -1.4130   -8.0150  -23.9390 H   0  0  0  0  0  0  0  0  0  0  0  0
   -6.5770   -8.6510  -24.0520 C   0  0  0  0  0  1  0  0  0  0  0  0
   -5.8200   -7.3920  -23.6360 C   0  0  0  0  0  3  0  0  0  0  0  0
   -6.5550   -6.6580  -22.5110 C   0  0  0  0  0  1  0  0  0  0  0  0
    2.3290  -10.3530  -25.7330 C   0  0  0  0  0  2  0  0  0  0  0  0
    2.7000   -8.9500  -25.7240 N   0  0  0  0  0  0  0  0  0  0  0  0
    3.3270   -8.6160  -25.0110 H   0  0  0  0  0  0  0  0  0  0  0  0
    2.3760   -8.1580  -26.8130 C   0  0  0  0  0  0  0  0  0  0  0  0
    3.2180   -8.1980  -27.8620 N   0  0  0  0  0  0  0  0  0  0  0  0
    3.1240   -7.2090  -28.7480 C   0  0  0  0  0  3  0  0  0  0  0  0
    2.3380   -6.1380  -28.6300 N   0  0  0  0  0  0  0  0  0  0  0  0
    1.4610   -6.1190  -27.6060 C   0  0  0  0  0  0  0  0  0  0  0  0
    0.6260   -5.0190  -27.3780 C   0  0  0  0  0  0  0  0  0  0  0  0
   -0.3730   -5.0100  -26.3940 C   0  0  0  0  0  3  0  0  0  0  0  0
   -0.5100   -6.1010  -25.5530 C   0  0  0  0  0  3  0  0  0  0  0  0
    0.3810   -7.1620  -25.6760 C   0  0  0  0  0  3  0  0  0  0  0  0
    1.3760   -7.1770  -26.6910 C   0  0  0  0  0  0  0  0  0  0  0  0
    0.8590   -3.7440  -28.0820 C   0  0  0  0  0  0  0  0  0  0  0  0
    0.3720   -2.6300  -27.4510 N   0  0  0  0  0  0  0  0  0  0  0  0
    1.3430   -3.7040  -29.2030 O   0  0  0  0  0  0  0  0  0  0  0  0
    0.4660   -1.7370  -27.9130 H   0  0  0  0  0  0  0  0  0  0  0  0
   -0.0470   -2.6650  -26.5310 H   0  0  0  0  0  0  0  0  0  0  0  0
  1  9  1  0  0  0  0
  2  1  2  0  0  0  0
  3  2  1  0  0  0  0
  4  3  2  0  0  0  0
  4  5  1  0  0  0  0
  5  6  2  0  0  0  0
  6  1  1  0  0  0  0
  7  8  2  0  0  0  0
  9  7  1  0  0  0  0
  9 10  1  0  0  0  0
 11 12  1  0  0  0  0
 13 12  2  0  0  0  0
 13  7  1  0  0  0  0
 14 13  1  0  0  0  0
 15 14  1  0  0  0  0
 15 11  2  0  0  0  0
 16 14  1  0  0  0  0
 17 18  1  0  0  0  0
 18 11  1  0  0  0  0
 18 19  1  0  0  0  0
 20 21  1  0  0  0  0
 20  5  1  0  0  0  0
 21 22  1  0  0  0  0
 23 32  1  0  0  0  0
 23 21  1  0  0  0  0
 24 23  2  0  0  0  0
 25 26  2  0  0  0  0
 25 24  1  0  0  0  0
 26 27  1  0  0  0  0
 27 28  2  0  0  0  0
 27 32  1  0  0  0  0
 28 29  1  0  0  0  0
 29 30  2  0  0  0  0
 31 30  1  0  0  0  0
 32 31  2  0  0  0  0
 33 34  1  0  0  0  0
 33 28  1  0  0  0  0
 34 37  1  0  0  0  0
 35 33  2  0  0  0  0
 36 34  1  0  0  0  0
M  END
>  <minimizedAffinity>
-6.68555593

$$$$

 OpenBabel10152418313D

 37 40  0  0  0  0  0  0  0  0999 V2000
   -1.9410   -8.9290  -23.9340 C   0  0  0  0  0  0  0  0  0  0  0  0
   -1.8190   -9.0170  -22.5480 C   0  0  0  0  0  3  0  0  0  0  0  0
   -1.2340   -7.9740  -21.8370 C   0  0  0  0  0  3  0  0  0  0  0  0
   -0.7940   -6.8350  -22.5120 C   0  0  0  0  0  3  0  0  0  0  0  0
   -1.0020   -6.6730  -23.8900 C   0  0  0  0  0  0  0  0  0  0  0  0
   -1.6080   -7.7310  -24.5830 C   0  0  0  0  0  3  0  0  0  0  0  0
   -1.6810  -10.9840  -25.3790 C   0  0  0  0  0  0  0  0  0  0  0  0
   -2.3060  -11.7130  -26.1490 O   0  0  0  0  0  0  0  0  0  0  0  0
   -2.3850  -10.0750  -24.6170 N   0  0  0  0  0  0  0  0  0  0  0  0
   -3.3660  -10.3120  -24.5400 H   0  0  0  0  0  0  0  0  0  0  0  0
    1.9570  -11.2870  -25.3960 C   0  0  0  0  0  0  0  0  0  0  0  0
    0.8150  -10.7450  -26.0250 C   0  0  0  0  0  3  0  0  0  0  0  0
   -0.2530  -11.1060  -25.2240 C   0  0  0  0  0  0  0  0  0  0  0  0
    0.3220  -11.6230  -24.0970 N   0  0  0  0  0  0  0  0  0  0  0  0
    1.6480  -11.8180  -24.2060 N   0  0  0  0  0  0  0  0  0  0  0  0
   -0.1510  -11.9240  -23.2500 H   0  0  0  0  0  0  0  0  0  0  0  0
    4.3240  -12.0370  -24.9990 C   0  0  0  0  0  1  0  0  0  0  0  0
    3.3490  -11.3560  -25.9570 C   0  0  0  0  0  3  0  0  0  0  0  0
    3.3670  -12.0350  -27.3300 C   0  0  0  0  0  1  0  0  0  0  0  0
   -0.5050   -5.4470  -24.6450 C   0  0  0  0  0  2  0  0  0  0  0  0
   -0.6560   -5.5780  -26.0820 N   0  0  0  0  0  0  0  0  0  0  0  0
   -1.5820   -5.6160  -26.4740 H   0  0  0  0  0  0  0  0  0  0  0  0
    0.4540   -5.4190  -26.8960 C   0  0  0  0  0  0  0  0  0  0  0  0
    0.3260   -4.5740  -27.9350 N   0  0  0  0  0  0  0  0  0  0  0  0
    1.2310   -4.6720  -28.9050 C   0  0  0  0  0  3  0  0  0  0  0  0
    2.1880   -5.5980  -28.9790 N   0  0  0  0  0  0  0  0  0  0  0  0
    2.3480   -6.4140  -27.9190 C   0  0  0  0  0  0  0  0  0  0  0  0
    3.2970   -7.4430  -27.9230 C   0  0  0  0  0  0  0  0  0  0  0  0
    3.5670   -8.2380  -26.7990 C   0  0  0  0  0  3  0  0  0  0  0  0
    2.8230   -8.0610  -25.6450 C   0  0  0  0  0  3  0  0  0  0  0  0
    1.7920   -7.1270  -25.6460 C   0  0  0  0  0  3  0  0  0  0  0  0
    1.5390   -6.3070  -26.7800 C   0  0  0  0  0  0  0  0  0  0  0  0
    3.9680   -7.8380  -29.1760 C   0  0  0  0  0  0  0  0  0  0  0  0
    4.6010   -6.8250  -29.8450 N   0  0  0  0  0  0  0  0  0  0  0  0
    3.8580   -8.9630  -29.6410 O   0  0  0  0  0  0  0  0  0  0  0  0
    5.0370   -7.0330  -30.7320 H   0  0  0  0  0  0  0  0  0  0  0  0
    4.6750   -5.8880  -29.4710 H   0  0  0  0  0  0  0  0  0  0  0  0
  1  2  1  0  0  0  0
  2  3  2  0  0  0  0
  4  3  1  0  0  0  0
  5  4  2  0  0  0  0
  6  1  2  0  0  0  0
  6  5  1  0  0  0  0
  7 13  1  0  0  0  0
  7  9  1  0  0  0  0
  8  7  2  0  0  0  0
  9 10  1  0  0  0  0
  9  1  1  0  0  0  0
 11 15  2  0  0  0  0
 12 11  1  0  0  0  0
 12 13  2  0  0  0  0
 13 14  1  0  0  0  0
 14 16  1  0  0  0  0
 15 14  1  0  0  0  0
 18 11  1  0  0  0  0
 18 17  1  0  0  0  0
 19 18  1  0  0  0  0
 20  5  1  0  0  0  0
 21 20  1  0  0  0  0
 22 21  1  0  0  0  0
 23 32  1  0  0  0  0
 23 21  1  0  0  0  0
 24 23  2  0  0  0  0
 25 24  1  0  0  0  0
 26 25  2  0  0  0  0
 26 27  1  0  0  0  0
 27 32  1  0  0  0  0
 28 27  2  0  0  0  0
 28 29  1  0  0  0  0
 29 30  2  0  0  0  0
 31 30  1  0  0  0  0
 32 31  2  0  0  0  0
 33 28  1  0  0  0  0
 34 37  1  0  0  0  0
 34 33  1  0  0  0  0
 35 33  2  0  0  0  0
 36 34  1  0  0  0  0
M  END
>  <minimizedAffinity>
-6.61685467

$$$$

 OpenBabel10152418313D

 37 40  0  0  0  0  0  0  0  0999 V2000
    4.4440   -9.7260  -29.7630 C   0  0  0  0  0  0  0  0  0  0  0  0
    3.7970  -10.7380  -30.4720 C   0  0  0  0  0  3  0  0  0  0  0  0
    3.4010  -11.8980  -29.8140 C   0  0  0  0  0  3  0  0  0  0  0  0
    3.6310  -12.0330  -28.4440 C   0  0  0  0  0  3  0  0  0  0  0  0
    4.1820  -10.9880  -27.6870 C   0  0  0  0  0  0  0  0  0  0  0  0
    4.5590   -9.8220  -28.3680 C   0  0  0  0  0  3  0  0  0  0  0  0
    4.5040   -7.3630  -30.6560 C   0  0  0  0  0  0  0  0  0  0  0  0
    4.9240   -6.6950  -31.6000 O   0  0  0  0  0  0  0  0  0  0  0  0
    4.9700   -8.6530  -30.5060 N   0  0  0  0  0  0  0  0  0  0  0  0
    5.8380   -8.8120  -31.0010 H   0  0  0  0  0  0  0  0  0  0  0  0
    1.9700   -5.8230  -28.5260 C   0  0  0  0  0  0  0  0  0  0  0  0
    2.2430   -6.5070  -29.7320 C   0  0  0  0  0  3  0  0  0  0  0  0
    3.5920   -6.8060  -29.6890 C   0  0  0  0  0  0  0  0  0  0  0  0
    3.9720   -6.4980  -28.4130 N   0  0  0  0  0  0  0  0  0  0  0  0
    3.0360   -5.8300  -27.7150 N   0  0  0  0  0  0  0  0  0  0  0  0
    4.8810   -6.6580  -27.9890 H   0  0  0  0  0  0  0  0  0  0  0  0
   -0.0170   -5.7610  -26.9870 C   0  0  0  0  0  1  0  0  0  0  0  0
    0.7030   -5.1040  -28.1630 C   0  0  0  0  0  3  0  0  0  0  0  0
    0.9600   -3.6200  -27.8860 C   0  0  0  0  0  1  0  0  0  0  0  0
    4.4620  -11.1290  -26.1960 C   0  0  0  0  0  2  0  0  0  0  0  0
    3.2480  -11.2470  -25.4100 N   0  0  0  0  0  0  0  0  0  0  0  0
    3.1750  -11.9880  -24.7330 H   0  0  0  0  0  0  0  0  0  0  0  0
    2.3200  -10.2180  -25.4410 C   0  0  0  0  0  0  0  0  0  0  0  0
    2.8060   -8.9640  -25.3800 N   0  0  0  0  0  0  0  0  0  0  0  0
    1.9460   -8.0010  -25.0590 C   0  0  0  0  0  3  0  0  0  0  0  0
    0.6760   -8.1880  -24.6980 N   0  0  0  0  0  0  0  0  0  0  0  0
    0.1750   -9.4350  -24.8040 C   0  0  0  0  0  0  0  0  0  0  0  0
   -1.1340   -9.7340  -24.4080 C   0  0  0  0  0  0  0  0  0  0  0  0
   -1.7230  -10.9910  -24.6070 C   0  0  0  0  0  3  0  0  0  0  0  0
   -0.9710  -12.0170  -25.1530 C   0  0  0  0  0  3  0  0  0  0  0  0
    0.3690  -11.7860  -25.4470 C   0  0  0  0  0  3  0  0  0  0  0  0
    0.9540  -10.5030  -25.2680 C   0  0  0  0  0  0  0  0  0  0  0  0
   -1.9180   -8.7640  -23.6210 C   0  0  0  0  0  0  0  0  0  0  0  0
   -2.4580   -7.7300  -24.3380 N   0  0  0  0  0  0  0  0  0  0  0  0
   -1.9750   -8.8180  -22.4010 O   0  0  0  0  0  0  0  0  0  0  0  0
   -2.9670   -7.0140  -23.8390 H   0  0  0  0  0  0  0  0  0  0  0  0
   -2.3940   -7.6740  -25.3450 H   0  0  0  0  0  0  0  0  0  0  0  0
  1  6  1  0  0  0  0
  2  3  1  0  0  0  0
  2  1  2  0  0  0  0
  3  4  2  0  0  0  0
  4  5  1  0  0  0  0
  5 20  1  0  0  0  0
  6  5  2  0  0  0  0
  7  9  1  0  0  0  0
  7 13  1  0  0  0  0
  8  7  2  0  0  0  0
  9  1  1  0  0  0  0
 10  9  1  0  0  0  0
 11 18  1  0  0  0  0
 11 15  2  0  0  0  0
 12 13  2  0  0  0  0
 12 11  1  0  0  0  0
 13 14  1  0  0  0  0
 14 16  1  0  0  0  0
 14 15  1  0  0  0  0
 18 19  1  0  0  0  0
 18 17  1  0  0  0  0
 20 21  1  0  0  0  0
 21 22  1  0  0  0  0
 23 21  1  0  0  0  0
 23 24  2  0  0  0  0
 23 32  1  0  0  0  0
 24 25  1  0  0  0  0
 25 26  2  0  0  0  0
 27 26  1  0  0  0  0
 27 28  1  0  0  0  0
 28 33  1  0  0  0  0
 29 28  2  0  0  0  0
 30 29  1  0  0  0  0
 31 32  1  0  0  0  0
 31 30  2  0  0  0  0
 32 27  2  0  0  0  0
 33 35  2  0  0  0  0
 34 36  1  0  0  0  0
 34 33  1  0  0  0  0
 37 34  1  0  0  0  0
M  END
>  <minimizedAffinity>
-6.18799305

$$$$
