
 OpenBabel10152418313D

 37 40  0  0  0  0  0  0  0  0999 V2000
    2.9650   -8.7530  -26.9550 C   0  0  0  0  0  0  0  0  0  0  0  0
    3.0090   -7.8820  -25.8670 C   0  0  0  0  0  3  0  0  0  0  0  0
    2.4970   -8.2850  -24.6380 C   0  0  0  0  0  3  0  0  0  0  0  0
    1.9650   -9.5670  -24.4930 C   0  0  0  0  0  3  0  0  0  0  0  0
    2.0070  -10.5000  -25.5410 C   0  0  0  0  0  0  0  0  0  0  0  0
    2.5420  -10.0760  -26.7660 C   0  0  0  0  0  3  0  0  0  0  0  0
    2.7880   -7.2160  -28.9520 C   0  0  0  0  0  0  0  0  0  0  0  0
    3.0590   -7.1500  -30.1510 O   0  0  0  0  0  0  0  0  0  0  0  0
    3.3410   -8.2380  -28.2090 N   0  0  0  0  0  0  0  0  0  0  0  0
    4.1550   -8.6430  -28.6530 H   0  0  0  0  0  0  0  0  0  0  0  0
    0.4400   -5.0100  -27.2340 C   0  0  0  0  0  0  0  0  0  0  0  0
    1.0490   -6.2840  -27.2760 C   0  0  0  0  0  3  0  0  0  0  0  0
    1.9600   -6.2240  -28.3140 C   0  0  0  0  0  0  0  0  0  0  0  0
    1.9980   -4.9020  -28.6610 N   0  0  0  0  0  0  0  0  0  0  0  0
    1.0360   -4.1610  -28.0820 N   0  0  0  0  0  0  0  0  0  0  0  0
    2.6150   -4.4640  -29.3390 H   0  0  0  0  0  0  0  0  0  0  0  0
   -0.6920   -5.1380  -24.9930 C   0  0  0  0  0  1  0  0  0  0  0  0
   -0.7580   -4.6080  -26.4230 C   0  0  0  0  0  3  0  0  0  0  0  0
   -0.9590   -3.0900  -26.4350 C   0  0  0  0  0  1  0  0  0  0  0  0
    1.4090  -11.8940  -25.4060 C   0  0  0  0  0  2  0  0  0  0  0  0
   -0.0090  -11.9230  -25.7120 N   0  0  0  0  0  0  0  0  0  0  0  0
   -0.3980  -12.7430  -26.1470 H   0  0  0  0  0  0  0  0  0  0  0  0
   -0.8320  -10.9320  -25.2000 C   0  0  0  0  0  0  0  0  0  0  0  0
   -1.0870   -9.8830  -26.0040 N   0  0  0  0  0  0  0  0  0  0  0  0
   -1.5680   -8.7860  -25.4250 C   0  0  0  0  0  3  0  0  0  0  0  0
   -1.7220   -8.6080  -24.1130 N   0  0  0  0  0  0  0  0  0  0  0  0
   -1.5120   -9.6710  -23.3110 C   0  0  0  0  0  0  0  0  0  0  0  0
   -1.6080   -9.5690  -21.9190 C   0  0  0  0  0  0  0  0  0  0  0  0
   -1.5070  -10.6750  -21.0620 C   0  0  0  0  0  3  0  0  0  0  0  0
   -1.2300  -11.9230  -21.5930 C   0  0  0  0  0  3  0  0  0  0  0  0
   -1.0110  -12.0390  -22.9620 C   0  0  0  0  0  3  0  0  0  0  0  0
   -1.1390  -10.9190  -23.8280 C   0  0  0  0  0  0  0  0  0  0  0  0
   -1.6800   -8.2460  -21.2690 C   0  0  0  0  0  0  0  0  0  0  0  0
   -1.1620   -7.2080  -21.9950 N   0  0  0  0  0  0  0  0  0  0  0  0
   -2.0640   -8.1140  -20.1150 O   0  0  0  0  0  0  0  0  0  0  0  0
   -1.1460   -6.2890  -21.5750 H   0  0  0  0  0  0  0  0  0  0  0  0
   -0.8250   -7.3210  -22.9420 H   0  0  0  0  0  0  0  0  0  0  0  0
  1  6  2  0  0  0  0
  1  2  1  0  0  0  0
  2  3  2  0  0  0  0
  3  4  1  0  0  0  0
  5 20  1  0  0  0  0
  5  4  2  0  0  0  0
  6  5  1  0  0  0  0
  7 13  1  0  0  0  0
  7  9  1  0  0  0  0
  8  7  2  0  0  0  0
  9  1  1  0  0  0  0
 10  9  1  0  0  0  0
 11 18  1  0  0  0  0
 12 11  1  0  0  0  0
 13 12  2  0  0  0  0
 14 13  1  0  0  0  0
 14 15  1  0  0  0  0
 15 11  2  0  0  0  0
 16 14  1  0  0  0  0
 18 17  1  0  0  0  0
 19 18  1  0  0  0  0
 21 20  1  0  0  0  0
 21 23  1  0  0  0  0
 22 21  1  0  0  0  0
 23 32  1  0  0  0  0
 24 25  1  0  0  0  0
 24 23  2  0  0  0  0
 25 26  2  0  0  0  0
 26 27  1  0  0  0  0
 27 28  1  0  0  0  0
 28 33  1  0  0  0  0
 28 29  2  0  0  0  0
 30 29  1  0  0  0  0
 31 30  2  0  0  0  0
 32 27  2  0  0  0  0
 32 31  1  0  0  0  0
 33 35  2  0  0  0  0
 34 36  1  0  0  0  0
 34 33  1  0  0  0  0
 37 34  1  0  0  0  0
M  END
>  <minimizedAffinity>
-7.76007223

$$$$
