
 OpenBabel10152418313D

 37 40  0  0  0  0  0  0  0  0999 V2000
   -1.9410   -8.9290  -23.9340 C   0  0  0  0  0  0  0  0  0  0  0  0
   -1.8190   -9.0170  -22.5480 C   0  0  0  0  0  3  0  0  0  0  0  0
   -1.2340   -7.9740  -21.8370 C   0  0  0  0  0  3  0  0  0  0  0  0
   -0.7940   -6.8350  -22.5120 C   0  0  0  0  0  3  0  0  0  0  0  0
   -1.0020   -6.6730  -23.8900 C   0  0  0  0  0  0  0  0  0  0  0  0
   -1.6080   -7.7310  -24.5830 C   0  0  0  0  0  3  0  0  0  0  0  0
   -1.6810  -10.9840  -25.3790 C   0  0  0  0  0  0  0  0  0  0  0  0
   -2.3060  -11.7130  -26.1490 O   0  0  0  0  0  0  0  0  0  0  0  0
   -2.3850  -10.0750  -24.6170 N   0  0  0  0  0  0  0  0  0  0  0  0
   -3.3660  -10.3120  -24.5400 H   0  0  0  0  0  0  0  0  0  0  0  0
    1.9570  -11.2870  -25.3960 C   0  0  0  0  0  0  0  0  0  0  0  0
    0.8150  -10.7450  -26.0250 C   0  0  0  0  0  3  0  0  0  0  0  0
   -0.2530  -11.1060  -25.2240 C   0  0  0  0  0  0  0  0  0  0  0  0
    0.3220  -11.6230  -24.0970 N   0  0  0  0  0  0  0  0  0  0  0  0
    1.6480  -11.8180  -24.2060 N   0  0  0  0  0  0  0  0  0  0  0  0
   -0.1510  -11.9240  -23.2500 H   0  0  0  0  0  0  0  0  0  0  0  0
    4.3240  -12.0370  -24.9990 C   0  0  0  0  0  1  0  0  0  0  0  0
    3.3490  -11.3560  -25.9570 C   0  0  0  0  0  3  0  0  0  0  0  0
    3.3670  -12.0350  -27.3300 C   0  0  0  0  0  1  0  0  0  0  0  0
   -0.5050   -5.4470  -24.6450 C   0  0  0  0  0  2  0  0  0  0  0  0
   -0.6560   -5.5780  -26.0820 N   0  0  0  0  0  0  0  0  0  0  0  0
   -1.5820   -5.6160  -26.4740 H   0  0  0  0  0  0  0  0  0  0  0  0
    0.4540   -5.4190  -26.8960 C   0  0  0  0  0  0  0  0  0  0  0  0
    0.3260   -4.5740  -27.9350 N   0  0  0  0  0  0  0  0  0  0  0  0
    1.2310   -4.6720  -28.9050 C   0  0  0  0  0  3  0  0  0  0  0  0
    2.1880   -5.5980  -28.9790 N   0  0  0  0  0  0  0  0  0  0  0  0
    2.3480   -6.4140  -27.9190 C   0  0  0  0  0  0  0  0  0  0  0  0
    3.2970   -7.4430  -27.9230 C   0  0  0  0  0  0  0  0  0  0  0  0
    3.5670   -8.2380  -26.7990 C   0  0  0  0  0  3  0  0  0  0  0  0
    2.8230   -8.0610  -25.6450 C   0  0  0  0  0  3  0  0  0  0  0  0
    1.7920   -7.1270  -25.6460 C   0  0  0  0  0  3  0  0  0  0  0  0
    1.5390   -6.3070  -26.7800 C   0  0  0  0  0  0  0  0  0  0  0  0
    3.9680   -7.8380  -29.1760 C   0  0  0  0  0  0  0  0  0  0  0  0
    4.6010   -6.8250  -29.8450 N   0  0  0  0  0  0  0  0  0  0  0  0
    3.8580   -8.9630  -29.6410 O   0  0  0  0  0  0  0  0  0  0  0  0
    5.0370   -7.0330  -30.7320 H   0  0  0  0  0  0  0  0  0  0  0  0
    4.6750   -5.8880  -29.4710 H   0  0  0  0  0  0  0  0  0  0  0  0
  1  2  1  0  0  0  0
  2  3  2  0  0  0  0
  4  3  1  0  0  0  0
  5  4  2  0  0  0  0
  6  1  2  0  0  0  0
  6  5  1  0  0  0  0
  7 13  1  0  0  0  0
  7  9  1  0  0  0  0
  8  7  2  0  0  0  0
  9 10  1  0  0  0  0
  9  1  1  0  0  0  0
 11 15  2  0  0  0  0
 12 11  1  0  0  0  0
 12 13  2  0  0  0  0
 13 14  1  0  0  0  0
 14 16  1  0  0  0  0
 15 14  1  0  0  0  0
 18 11  1  0  0  0  0
 18 17  1  0  0  0  0
 19 18  1  0  0  0  0
 20  5  1  0  0  0  0
 21 20  1  0  0  0  0
 22 21  1  0  0  0  0
 23 32  1  0  0  0  0
 23 21  1  0  0  0  0
 24 23  2  0  0  0  0
 25 24  1  0  0  0  0
 26 25  2  0  0  0  0
 26 27  1  0  0  0  0
 27 32  1  0  0  0  0
 28 27  2  0  0  0  0
 28 29  1  0  0  0  0
 29 30  2  0  0  0  0
 31 30  1  0  0  0  0
 32 31  2  0  0  0  0
 33 28  1  0  0  0  0
 34 37  1  0  0  0  0
 34 33  1  0  0  0  0
 35 33  2  0  0  0  0
 36 34  1  0  0  0  0
M  END
>  <minimizedAffinity>
-6.61685467

$$$$
