
 OpenBabel10152418313D

 37 40  0  0  0  0  0  0  0  0999 V2000
    4.4440   -9.7260  -29.7630 C   0  0  0  0  0  0  0  0  0  0  0  0
    3.7970  -10.7380  -30.4720 C   0  0  0  0  0  3  0  0  0  0  0  0
    3.4010  -11.8980  -29.8140 C   0  0  0  0  0  3  0  0  0  0  0  0
    3.6310  -12.0330  -28.4440 C   0  0  0  0  0  3  0  0  0  0  0  0
    4.1820  -10.9880  -27.6870 C   0  0  0  0  0  0  0  0  0  0  0  0
    4.5590   -9.8220  -28.3680 C   0  0  0  0  0  3  0  0  0  0  0  0
    4.5040   -7.3630  -30.6560 C   0  0  0  0  0  0  0  0  0  0  0  0
    4.9240   -6.6950  -31.6000 O   0  0  0  0  0  0  0  0  0  0  0  0
    4.9700   -8.6530  -30.5060 N   0  0  0  0  0  0  0  0  0  0  0  0
    5.8380   -8.8120  -31.0010 H   0  0  0  0  0  0  0  0  0  0  0  0
    1.9700   -5.8230  -28.5260 C   0  0  0  0  0  0  0  0  0  0  0  0
    2.2430   -6.5070  -29.7320 C   0  0  0  0  0  3  0  0  0  0  0  0
    3.5920   -6.8060  -29.6890 C   0  0  0  0  0  0  0  0  0  0  0  0
    3.9720   -6.4980  -28.4130 N   0  0  0  0  0  0  0  0  0  0  0  0
    3.0360   -5.8300  -27.7150 N   0  0  0  0  0  0  0  0  0  0  0  0
    4.8810   -6.6580  -27.9890 H   0  0  0  0  0  0  0  0  0  0  0  0
   -0.0170   -5.7610  -26.9870 C   0  0  0  0  0  1  0  0  0  0  0  0
    0.7030   -5.1040  -28.1630 C   0  0  0  0  0  3  0  0  0  0  0  0
    0.9600   -3.6200  -27.8860 C   0  0  0  0  0  1  0  0  0  0  0  0
    4.4620  -11.1290  -26.1960 C   0  0  0  0  0  2  0  0  0  0  0  0
    3.2480  -11.2470  -25.4100 N   0  0  0  0  0  0  0  0  0  0  0  0
    3.1750  -11.9880  -24.7330 H   0  0  0  0  0  0  0  0  0  0  0  0
    2.3200  -10.2180  -25.4410 C   0  0  0  0  0  0  0  0  0  0  0  0
    2.8060   -8.9640  -25.3800 N   0  0  0  0  0  0  0  0  0  0  0  0
    1.9460   -8.0010  -25.0590 C   0  0  0  0  0  3  0  0  0  0  0  0
    0.6760   -8.1880  -24.6980 N   0  0  0  0  0  0  0  0  0  0  0  0
    0.1750   -9.4350  -24.8040 C   0  0  0  0  0  0  0  0  0  0  0  0
   -1.1340   -9.7340  -24.4080 C   0  0  0  0  0  0  0  0  0  0  0  0
   -1.7230  -10.9910  -24.6070 C   0  0  0  0  0  3  0  0  0  0  0  0
   -0.9710  -12.0170  -25.1530 C   0  0  0  0  0  3  0  0  0  0  0  0
    0.3690  -11.7860  -25.4470 C   0  0  0  0  0  3  0  0  0  0  0  0
    0.9540  -10.5030  -25.2680 C   0  0  0  0  0  0  0  0  0  0  0  0
   -1.9180   -8.7640  -23.6210 C   0  0  0  0  0  0  0  0  0  0  0  0
   -2.4580   -7.7300  -24.3380 N   0  0  0  0  0  0  0  0  0  0  0  0
   -1.9750   -8.8180  -22.4010 O   0  0  0  0  0  0  0  0  0  0  0  0
   -2.9670   -7.0140  -23.8390 H   0  0  0  0  0  0  0  0  0  0  0  0
   -2.3940   -7.6740  -25.3450 H   0  0  0  0  0  0  0  0  0  0  0  0
  1  6  1  0  0  0  0
  2  3  1  0  0  0  0
  2  1  2  0  0  0  0
  3  4  2  0  0  0  0
  4  5  1  0  0  0  0
  5 20  1  0  0  0  0
  6  5  2  0  0  0  0
  7  9  1  0  0  0  0
  7 13  1  0  0  0  0
  8  7  2  0  0  0  0
  9  1  1  0  0  0  0
 10  9  1  0  0  0  0
 11 18  1  0  0  0  0
 11 15  2  0  0  0  0
 12 13  2  0  0  0  0
 12 11  1  0  0  0  0
 13 14  1  0  0  0  0
 14 16  1  0  0  0  0
 14 15  1  0  0  0  0
 18 19  1  0  0  0  0
 18 17  1  0  0  0  0
 20 21  1  0  0  0  0
 21 22  1  0  0  0  0
 23 21  1  0  0  0  0
 23 24  2  0  0  0  0
 23 32  1  0  0  0  0
 24 25  1  0  0  0  0
 25 26  2  0  0  0  0
 27 26  1  0  0  0  0
 27 28  1  0  0  0  0
 28 33  1  0  0  0  0
 29 28  2  0  0  0  0
 30 29  1  0  0  0  0
 31 32  1  0  0  0  0
 31 30  2  0  0  0  0
 32 27  2  0  0  0  0
 33 35  2  0  0  0  0
 34 36  1  0  0  0  0
 34 33  1  0  0  0  0
 37 34  1  0  0  0  0
M  END
>  <minimizedAffinity>
-6.18799305

$$$$
