
 OpenBabel10152418313D

 37 40  0  0  0  0  0  0  0  0999 V2000
   -0.7960  -10.7350  -23.4150 C   0  0  0  0  0  0  0  0  0  0  0  0
   -1.5390  -10.8450  -24.5910 C   0  0  0  0  0  3  0  0  0  0  0  0
   -0.9220  -11.2780  -25.7600 C   0  0  0  0  0  3  0  0  0  0  0  0
    0.4300  -11.6230  -25.7460 C   0  0  0  0  0  3  0  0  0  0  0  0
    1.1730  -11.6260  -24.5550 C   0  0  0  0  0  0  0  0  0  0  0  0
    0.5270  -11.2010  -23.3860 C   0  0  0  0  0  3  0  0  0  0  0  0
   -1.4550   -8.8160  -21.9100 C   0  0  0  0  0  0  0  0  0  0  0  0
   -1.7770   -8.5620  -20.7500 O   0  0  0  0  0  0  0  0  0  0  0  0
   -1.4250  -10.1360  -22.3090 N   0  0  0  0  0  0  0  0  0  0  0  0
   -1.9680  -10.7370  -21.7020 H   0  0  0  0  0  0  0  0  0  0  0  0
   -0.5910   -6.4550  -24.5570 C   0  0  0  0  0  0  0  0  0  0  0  0
   -1.0540   -7.7500  -24.2340 C   0  0  0  0  0  3  0  0  0  0  0  0
   -1.1700   -7.7680  -22.8560 C   0  0  0  0  0  0  0  0  0  0  0  0
   -0.9970   -6.4660  -22.4810 N   0  0  0  0  0  0  0  0  0  0  0  0
   -0.5680   -5.6670  -23.4740 N   0  0  0  0  0  0  0  0  0  0  0  0
   -1.0900   -6.0800  -21.5450 H   0  0  0  0  0  0  0  0  0  0  0  0
   -0.4300   -6.9660  -27.0130 C   0  0  0  0  0  1  0  0  0  0  0  0
   -0.1100   -5.9750  -25.8960 C   0  0  0  0  0  3  0  0  0  0  0  0
   -0.6610   -4.5850  -26.2250 C   0  0  0  0  0  1  0  0  0  0  0  0
    2.6550  -11.9760  -24.5270 C   0  0  0  0  0  2  0  0  0  0  0  0
    3.4720  -10.9950  -25.2170 N   0  0  0  0  0  0  0  0  0  0  0  0
    4.1800  -10.5000  -24.7010 H   0  0  0  0  0  0  0  0  0  0  0  0
    3.4220  -10.9250  -26.6000 C   0  0  0  0  0  0  0  0  0  0  0  0
    3.7610  -12.0390  -27.2750 N   0  0  0  0  0  0  0  0  0  0  0  0
    4.0550  -11.8950  -28.5650 C   0  0  0  0  0  3  0  0  0  0  0  0
    4.1360  -10.7330  -29.2140 N   0  0  0  0  0  0  0  0  0  0  0  0
    3.7510   -9.6230  -28.5540 C   0  0  0  0  0  0  0  0  0  0  0  0
    3.8410   -8.3540  -29.1390 C   0  0  0  0  0  0  0  0  0  0  0  0
    3.3470   -7.1930  -28.5270 C   0  0  0  0  0  3  0  0  0  0  0  0
    2.8060   -7.2720  -27.2550 C   0  0  0  0  0  3  0  0  0  0  0  0
    2.8090   -8.4980  -26.5970 C   0  0  0  0  0  3  0  0  0  0  0  0
    3.2880   -9.6760  -27.2330 C   0  0  0  0  0  0  0  0  0  0  0  0
    4.6020   -8.1590  -30.3880 C   0  0  0  0  0  0  0  0  0  0  0  0
    4.9320   -6.8610  -30.6750 N   0  0  0  0  0  0  0  0  0  0  0  0
    4.8110   -9.0770  -31.1670 O   0  0  0  0  0  0  0  0  0  0  0  0
    5.4130   -6.6690  -31.5420 H   0  0  0  0  0  0  0  0  0  0  0  0
    4.7400   -6.0980  -30.0400 H   0  0  0  0  0  0  0  0  0  0  0  0
  1  6  1  0  0  0  0
  1  9  1  0  0  0  0
  2  1  2  0  0  0  0
  3  4  2  0  0  0  0
  3  2  1  0  0  0  0
  4  5  1  0  0  0  0
  5 20  1  0  0  0  0
  5  6  2  0  0  0  0
  7  8  2  0  0  0  0
  9  7  1  0  0  0  0
  9 10  1  0  0  0  0
 11 12  1  0  0  0  0
 11 15  2  0  0  0  0
 12 13  2  0  0  0  0
 13 14  1  0  0  0  0
 13  7  1  0  0  0  0
 14 16  1  0  0  0  0
 15 14  1  0  0  0  0
 17 18  1  0  0  0  0
 18 11  1  0  0  0  0
 19 18  1  0  0  0  0
 21 22  1  0  0  0  0
 21 20  1  0  0  0  0
 23 21  1  0  0  0  0
 24 23  2  0  0  0  0
 25 24  1  0  0  0  0
 26 25  2  0  0  0  0
 26 27  1  0  0  0  0
 27 32  1  0  0  0  0
 28 27  2  0  0  0  0
 28 29  1  0  0  0  0
 29 30  2  0  0  0  0
 30 31  1  0  0  0  0
 32 23  1  0  0  0  0
 32 31  2  0  0  0  0
 33 28  1  0  0  0  0
 34 33  1  0  0  0  0
 34 37  1  0  0  0  0
 35 33  2  0  0  0  0
 36 34  1  0  0  0  0
M  END
>  <minimizedAffinity>
-7.48314047

$$$$
