
 OpenBabel11232420203D

 35 39  0  0  1  0  0  0  0  0999 V2000
   -9.0990   -2.1030  -17.7720 O   0  0  0  0  0  0  0  0  0  0  0  0
  -10.7050   -5.3400  -18.6580 C   0  0  0  0  0  0  0  0  0  0  0  0
  -11.9680   -4.9980  -18.1830 C   0  0  0  0  0  3  0  0  0  0  0  0
  -12.2870   -3.7850  -17.6730 N   0  0  0  0  0  0  0  0  0  0  0  0
  -11.3030   -2.8620  -17.6170 C   0  0  0  0  0  3  0  0  0  0  0  0
  -10.0010   -3.0910  -18.0370 C   0  0  0  0  0  0  0  0  0  0  0  0
   -9.7250   -4.3320  -18.6030 C   0  0  0  0  0  3  0  0  0  0  0  0
   -7.8840   -8.3520  -22.7790 C   0  0  0  0  0  1  0  0  0  0  0  0
   -8.6560   -8.9350  -21.6510 C   0  0  0  0  0  0  0  0  0  0  0  0
   -8.7470  -10.2630  -21.5140 N   0  0  0  0  0  0  0  0  0  0  0  0
   -9.4950  -10.4280  -20.4130 N   0  0  0  0  0  0  0  0  0  0  0  0
   -9.8870   -9.2560  -19.8270 C   0  0  0  0  0  0  0  0  0  0  0  0
  -10.6430   -8.9910  -18.6990 C   0  0  0  0  0  3  0  0  0  0  0  0
  -10.8730   -7.6980  -18.3570 N   0  0  0  0  0  0  0  0  0  0  0  0
  -10.3600   -6.6910  -19.1280 C   0  0  0  0  0  0  0  0  0  0  0  0
   -9.5880   -6.9150  -20.2680 C   0  0  0  0  0  3  0  0  0  0  0  0
   -9.3520   -8.2510  -20.6200 C   0  0  0  0  0  0  0  0  0  0  0  0
   -9.6960  -11.3770  -20.1160 H   0  0  0  0  0  0  0  0  0  0  0  0
   -8.1090   -2.2990  -16.7550 C   0  0  0  0  0  2  0  0  0  0  0  0
   -6.7410   -2.6690  -17.3730 C   0  0  1  0  0  3  0  0  0  0  0  0
   -6.5250   -4.1600  -17.3330 N   0  0  0  0  0  4  0  0  0  0  0  0
   -7.2150   -4.6910  -17.8850 H   0  0  0  0  0  0  0  0  0  0  0  0
   -5.5880   -4.4240  -17.6620 H   0  0  0  0  0  0  0  0  0  0  0  0
   -6.6020   -4.4980  -16.3620 H   0  0  0  0  0  0  0  0  0  0  0  0
   -6.5930   -2.1910  -18.8260 C   0  0  0  0  0  2  0  0  0  0  0  0
   -7.1320   -3.1770  -19.8080 C   0  0  0  0  0  0  0  0  0  0  0  0
   -6.5460   -4.3790  -20.1560 C   0  0  0  0  0  3  0  0  0  0  0  0
   -7.3400   -4.9900  -21.0920 N   0  0  0  0  0  0  0  0  0  0  0  0
   -8.4310   -4.2020  -21.3720 C   0  0  0  0  0  0  0  0  0  0  0  0
   -9.4860   -4.4210  -22.2660 C   0  0  0  0  0  3  0  0  0  0  0  0
  -10.4850   -3.4460  -22.3400 C   0  0  0  0  0  3  0  0  0  0  0  0
  -10.4300   -2.3050  -21.5450 C   0  0  0  0  0  3  0  0  0  0  0  0
   -9.3680   -2.1030  -20.6560 C   0  0  0  0  0  3  0  0  0  0  0  0
   -8.3410   -3.0660  -20.5690 C   0  0  0  0  0  0  0  0  0  0  0  0
   -7.1620   -5.8910  -21.5190 H   0  0  0  0  0  0  0  0  0  0  0  0
  1 19  1  0  0  0  0
  2  7  2  0  0  0  0
  2  3  1  0  0  0  0
  3  4  2  0  0  0  0
  4  5  1  0  0  0  0
  6  1  1  0  0  0  0
  6  5  2  0  0  0  0
  7  6  1  0  0  0  0
  8  9  1  0  0  0  0
  9 10  2  0  0  0  0
  9 17  1  0  0  0  0
 10 11  1  0  0  0  0
 11 18  1  0  0  0  0
 11 12  1  0  0  0  0
 12 13  1  0  0  0  0
 13 14  2  0  0  0  0
 15  2  1  0  0  0  0
 15 14  1  0  0  0  0
 16 15  2  0  0  0  0
 17 16  1  0  0  0  0
 17 12  2  0  0  0  0
 20 25  1  6  0  0  0
 20 21  1  0  0  0  0
 20 19  1  0  0  0  0
 21 24  1  0  0  0  0
 22 21  1  0  0  0  0
 23 21  1  0  0  0  0
 26 25  1  0  0  0  0
 27 26  2  0  0  0  0
 28 27  1  0  0  0  0
 29 28  1  0  0  0  0
 29 34  1  0  0  0  0
 30 29  2  0  0  0  0
 31 30  1  0  0  0  0
 31 32  2  0  0  0  0
 32 33  1  0  0  0  0
 33 34  2  0  0  0  0
 34 26  1  0  0  0  0
 35 28  1  0  0  0  0
M  END
>  <minimizedAffinity>
20.4121933

$$$$
