
 OpenBabel11232420473D

 41 47  0  0  1  0  0  0  0  0999 V2000
  -17.4780   30.8170   11.8620 C   0  0  0  0  0  0  0  0  0  0  0  0
  -16.7200   31.1580   10.7860 N   0  0  0  0  0  0  0  0  0  0  0  0
  -16.0780   32.3460   10.8190 C   0  0  0  0  0  0  0  0  0  0  0  0
  -15.2940   32.6650    9.6270 C   0  0  0  0  0  3  0  0  0  0  0  0
  -14.6110   33.8150    9.5530 C   0  0  0  0  0  3  0  0  0  0  0  0
  -14.6400   34.7260   10.6350 C   0  0  0  0  0  0  0  0  0  0  0  0
  -14.0520   35.8900   10.7750 N   0  0  0  0  0  0  0  0  0  0  0  0
  -14.3810   36.3820   12.0030 N   0  0  0  0  0  0  0  0  0  0  0  0
  -15.1710   35.5140   12.6100 C   0  0  0  0  0  0  0  0  0  0  0  0
  -15.3840   34.4300   11.7750 N   0  0  0  0  0  0  0  0  0  0  0  0
  -16.1370   33.2320   11.8960 C   0  0  0  0  0  0  0  0  0  0  0  0
  -16.9160   32.8690   12.9900 C   0  0  0  0  0  3  0  0  0  0  0  0
  -17.6110   31.6400   12.9950 C   0  0  0  0  0  0  0  0  0  0  0  0
  -19.3420   26.9190   11.4070 C   0  0  0  0  0  0  0  0  0  0  0  0
  -18.0230   27.0750   11.8840 C   0  0  0  0  0  3  0  0  0  0  0  0
  -17.4280   28.3330   12.0270 C   0  0  0  0  0  3  0  0  0  0  0  0
  -18.1280   29.5040   11.7140 C   0  0  0  0  0  0  0  0  0  0  0  0
  -19.4370   29.3730   11.2390 C   0  0  0  0  0  3  0  0  0  0  0  0
  -20.0260   28.1090   11.0880 C   0  0  0  0  0  3  0  0  0  0  0  0
  -19.9820   25.4780   11.1970 C   0  0  1  0  0  0  0  0  0  0  0  0
  -19.0850   24.3670   10.6030 C   0  0  0  0  0  2  0  0  0  0  0  0
  -19.5710   23.3590   11.6950 C   0  0  1  0  0  0  0  0  0  0  0  0
  -20.2360   24.5720   12.4260 C   0  0  0  0  0  2  0  0  0  0  0  0
  -21.2160   25.6930   10.4020 N   0  0  0  0  0  4  0  0  0  0  0  0
  -21.7300   24.8290   10.2000 H   0  0  0  0  0  0  0  0  0  0  0  0
  -21.0060   26.1440    9.5010 H   0  0  0  0  0  0  0  0  0  0  0  0
  -21.8630   26.3280   10.8910 H   0  0  0  0  0  0  0  0  0  0  0  0
  -20.4860   22.2150   11.2370 C   0  0  0  0  0  3  0  0  0  0  0  0
  -20.3330   20.7490   11.5490 C   0  0  0  0  0  2  0  0  0  0  0  0
  -21.5230   21.5010   12.0670 C   0  0  0  0  0  2  0  0  0  0  0  0
  -18.4650   22.8090   12.4570 O   0  0  0  0  0  0  0  0  0  0  0  0
  -17.8970   23.5410   12.7500 H   0  0  0  0  0  0  0  0  0  0  0  0
  -18.4040   31.2700   14.1780 C   0  0  0  0  0  0  0  0  0  0  0  0
  -19.7670   31.5990   14.2580 C   0  0  0  0  0  3  0  0  0  0  0  0
  -20.5220   31.2590   15.3840 C   0  0  0  0  0  3  0  0  0  0  0  0
  -19.9230   30.5880   16.4480 C   0  0  0  0  0  3  0  0  0  0  0  0
  -18.5700   30.2610   16.3900 C   0  0  0  0  0  3  0  0  0  0  0  0
  -17.8160   30.6010   15.2640 C   0  0  0  0  0  3  0  0  0  0  0  0
  -15.7070   35.7060   13.9690 C   0  0  0  0  0  3  0  0  0  0  0  0
  -15.0350   36.6850   14.6350 F   0  0  0  0  0  0  0  0  0  0  0  0
  -17.0130   36.0850   13.9410 F   0  0  0  0  0  0  0  0  0  0  0  0
  1 13  1  0  0  0  0
  2  3  1  0  0  0  0
  2  1  2  0  0  0  0
  3 11  2  0  0  0  0
  4  3  1  0  0  0  0
  5  4  2  0  0  0  0
  5  6  1  0  0  0  0
  6  7  2  0  0  0  0
  6 10  1  0  0  0  0
  7  8  1  0  0  0  0
  8  9  2  0  0  0  0
  9 39  1  0  0  0  0
 10 11  1  0  0  0  0
 10  9  1  0  0  0  0
 11 12  1  0  0  0  0
 12 13  2  0  0  0  0
 13 33  1  0  0  0  0
 14 15  1  0  0  0  0
 15 16  2  0  0  0  0
 17  1  1  0  0  0  0
 17 16  1  0  0  0  0
 18 17  2  0  0  0  0
 19 18  1  0  0  0  0
 19 14  2  0  0  0  0
 20 24  1  6  0  0  0
 20 14  1  0  0  0  0
 20 23  1  0  0  0  0
 21 20  1  0  0  0  0
 21 22  1  0  0  0  0
 22 23  1  0  0  0  0
 22 31  1  1  0  0  0
 24 27  1  0  0  0  0
 25 24  1  0  0  0  0
 26 24  1  0  0  0  0
 28 29  1  0  0  0  0
 28 22  1  0  0  0  0
 28 30  1  0  0  0  0
 29 30  1  0  0  0  0
 31 32  1  0  0  0  0
 33 34  2  0  0  0  0
 33 38  1  0  0  0  0
 34 35  1  0  0  0  0
 35 36  2  0  0  0  0
 37 36  1  0  0  0  0
 38 37  2  0  0  0  0
 39 40  1  0  0  0  0
 41 39  1  0  0  0  0
M  END
>  <minimizedAffinity>
-10.0714531

$$$$
