
 OpenBabel11232420473D

 41 47  0  0  1  0  0  0  0  0999 V2000
  -20.2200   21.8370   11.6410 C   0  0  0  0  0  0  0  0  0  0  0  0
  -21.0530   21.5940   12.6870 N   0  0  0  0  0  0  0  0  0  0  0  0
  -21.3860   20.3100   12.9410 C   0  0  0  0  0  0  0  0  0  0  0  0
  -22.2990   20.1130   14.0660 C   0  0  0  0  0  3  0  0  0  0  0  0
  -22.6920   18.8800   14.4120 C   0  0  0  0  0  3  0  0  0  0  0  0
  -22.2190   17.7580   13.6910 C   0  0  0  0  0  0  0  0  0  0  0  0
  -22.4690   16.4810   13.8570 N   0  0  0  0  0  0  0  0  0  0  0  0
  -21.7670   15.7910   12.9140 N   0  0  0  0  0  0  0  0  0  0  0  0
  -21.0910   16.6510   12.1740 C   0  0  0  0  0  0  0  0  0  0  0  0
  -21.3490   17.9370   12.6180 N   0  0  0  0  0  0  0  0  0  0  0  0
  -20.9150   19.2240   12.2020 C   0  0  0  0  0  0  0  0  0  0  0  0
  -20.0620   19.4880   11.1350 C   0  0  0  0  0  3  0  0  0  0  0  0
  -19.6930   20.8150   10.8290 C   0  0  0  0  0  0  0  0  0  0  0  0
  -19.3360   26.0650   11.1670 C   0  0  0  0  0  0  0  0  0  0  0  0
  -18.5380   25.2090   11.9560 C   0  0  0  0  0  3  0  0  0  0  0  0
  -18.8290   23.8490   12.1060 C   0  0  0  0  0  3  0  0  0  0  0  0
  -19.9260   23.2690   11.4600 C   0  0  0  0  0  0  0  0  0  0  0  0
  -20.7310   24.0980   10.6730 C   0  0  0  0  0  3  0  0  0  0  0  0
  -20.4420   25.4640   10.5340 C   0  0  0  0  0  3  0  0  0  0  0  0
  -19.0230   27.6200   11.0550 C   0  0  1  0  0  0  0  0  0  0  0  0
  -20.1340   28.5450   10.5050 C   0  0  0  0  0  2  0  0  0  0  0  0
  -19.8900   29.5650   11.6640 C   0  0  1  0  0  0  0  0  0  0  0  0
  -18.9840   28.4830   12.3390 C   0  0  0  0  0  2  0  0  0  0  0  0
  -17.7630   27.7260   10.2780 N   0  0  0  0  0  4  0  0  0  0  0  0
  -17.4480   28.6920   10.1370 H   0  0  0  0  0  0  0  0  0  0  0  0
  -17.8620   27.2970    9.3480 H   0  0  0  0  0  0  0  0  0  0  0  0
  -16.9990   27.2180   10.7440 H   0  0  0  0  0  0  0  0  0  0  0  0
  -19.2400   30.9060   11.2930 C   0  0  0  0  0  3  0  0  0  0  0  0
  -19.2720   32.1830   12.0940 C   0  0  0  0  0  2  0  0  0  0  0  0
  -17.9670   31.4800   11.8610 C   0  0  0  0  0  2  0  0  0  0  0  0
  -21.0960   29.8160   12.4300 O   0  0  0  0  0  0  0  0  0  0  0  0
  -21.4950   28.9620   12.6670 H   0  0  0  0  0  0  0  0  0  0  0  0
  -18.7670   21.0620    9.7120 C   0  0  0  0  0  0  0  0  0  0  0  0
  -19.2370   21.1110    8.3890 C   0  0  0  0  0  3  0  0  0  0  0  0
  -18.3590   21.3350    7.3250 C   0  0  0  0  0  3  0  0  0  0  0  0
  -16.9990   21.5090    7.5680 C   0  0  0  0  0  3  0  0  0  0  0  0
  -16.5140   21.4560    8.8720 C   0  0  0  0  0  3  0  0  0  0  0  0
  -17.3910   21.2320    9.9360 C   0  0  0  0  0  3  0  0  0  0  0  0
  -20.2020   16.2560   11.0670 C   0  0  0  0  0  3  0  0  0  0  0  0
  -20.6220   16.7750    9.8810 F   0  0  0  0  0  0  0  0  0  0  0  0
  -18.9340   16.7110   11.2590 F   0  0  0  0  0  0  0  0  0  0  0  0
  1  2  1  0  0  0  0
  2  3  2  0  0  0  0
  3  4  1  0  0  0  0
  4  5  2  0  0  0  0
  6  7  2  0  0  0  0
  6  5  1  0  0  0  0
  8  7  1  0  0  0  0
  9 10  1  0  0  0  0
  9  8  2  0  0  0  0
 10  6  1  0  0  0  0
 11 10  1  0  0  0  0
 11  3  1  0  0  0  0
 12 11  2  0  0  0  0
 13 12  1  0  0  0  0
 13  1  2  0  0  0  0
 14 15  1  0  0  0  0
 15 16  2  0  0  0  0
 17  1  1  0  0  0  0
 17 16  1  0  0  0  0
 18 17  2  0  0  0  0
 19 18  1  0  0  0  0
 19 14  2  0  0  0  0
 20 24  1  6  0  0  0
 20 14  1  0  0  0  0
 20 23  1  0  0  0  0
 21 20  1  0  0  0  0
 21 22  1  0  0  0  0
 22 23  1  0  0  0  0
 22 31  1  1  0  0  0
 24 27  1  0  0  0  0
 25 24  1  0  0  0  0
 26 24  1  0  0  0  0
 28 22  1  0  0  0  0
 28 30  1  0  0  0  0
 28 29  1  0  0  0  0
 30 29  1  0  0  0  0
 31 32  1  0  0  0  0
 33 38  1  0  0  0  0
 33 13  1  0  0  0  0
 34 33  2  0  0  0  0
 35 36  2  0  0  0  0
 35 34  1  0  0  0  0
 36 37  1  0  0  0  0
 37 38  2  0  0  0  0
 39 41  1  0  0  0  0
 39  9  1  0  0  0  0
 40 39  1  0  0  0  0
M  END
>  <minimizedAffinity>
-11.2045946

$$$$
