
 OpenBabel11232420473D

 41 47  0  0  1  0  0  0  0  0999 V2000
  -20.2200   21.8370   11.6410 C   0  0  0  0  0  0  0  0  0  0  0  0
  -21.0530   21.5940   12.6870 N   0  0  0  0  0  0  0  0  0  0  0  0
  -21.3860   20.3100   12.9410 C   0  0  0  0  0  0  0  0  0  0  0  0
  -22.2990   20.1130   14.0660 C   0  0  0  0  0  3  0  0  0  0  0  0
  -22.6920   18.8800   14.4120 C   0  0  0  0  0  3  0  0  0  0  0  0
  -22.2190   17.7580   13.6910 C   0  0  0  0  0  0  0  0  0  0  0  0
  -22.4690   16.4810   13.8570 N   0  0  0  0  0  0  0  0  0  0  0  0
  -21.7670   15.7910   12.9140 N   0  0  0  0  0  0  0  0  0  0  0  0
  -21.0910   16.6510   12.1740 C   0  0  0  0  0  0  0  0  0  0  0  0
  -21.3490   17.9370   12.6180 N   0  0  0  0  0  0  0  0  0  0  0  0
  -20.9150   19.2240   12.2020 C   0  0  0  0  0  0  0  0  0  0  0  0
  -20.0620   19.4880   11.1350 C   0  0  0  0  0  3  0  0  0  0  0  0
  -19.6930   20.8150   10.8290 C   0  0  0  0  0  0  0  0  0  0  0  0
  -19.3360   26.0650   11.1670 C   0  0  0  0  0  0  0  0  0  0  0  0
  -18.5380   25.2090   11.9560 C   0  0  0  0  0  3  0  0  0  0  0  0
  -18.8290   23.8490   12.1060 C   0  0  0  0  0  3  0  0  0  0  0  0
  -19.9260   23.2690   11.4600 C   0  0  0  0  0  0  0  0  0  0  0  0
  -20.7310   24.0980   10.6730 C   0  0  0  0  0  3  0  0  0  0  0  0
  -20.4420   25.4640   10.5340 C   0  0  0  0  0  3  0  0  0  0  0  0
  -19.0230   27.6200   11.0550 C   0  0  1  0  0  0  0  0  0  0  0  0
  -20.1340   28.5450   10.5050 C   0  0  0  0  0  2  0  0  0  0  0  0
  -19.8900   29.5650   11.6640 C   0  0  1  0  0  0  0  0  0  0  0  0
  -18.9840   28.4830   12.3390 C   0  0  0  0  0  2  0  0  0  0  0  0
  -17.7630   27.7260   10.2780 N   0  0  0  0  0  4  0  0  0  0  0  0
  -17.4480   28.6920   10.1370 H   0  0  0  0  0  0  0  0  0  0  0  0
  -17.8620   27.2970    9.3480 H   0  0  0  0  0  0  0  0  0  0  0  0
  -16.9990   27.2180   10.7440 H   0  0  0  0  0  0  0  0  0  0  0  0
  -19.2400   30.9060   11.2930 C   0  0  0  0  0  3  0  0  0  0  0  0
  -19.2720   32.1830   12.0940 C   0  0  0  0  0  2  0  0  0  0  0  0
  -17.9670   31.4800   11.8610 C   0  0  0  0  0  2  0  0  0  0  0  0
  -21.0960   29.8160   12.4300 O   0  0  0  0  0  0  0  0  0  0  0  0
  -21.4950   28.9620   12.6670 H   0  0  0  0  0  0  0  0  0  0  0  0
  -18.7670   21.0620    9.7120 C   0  0  0  0  0  0  0  0  0  0  0  0
  -19.2370   21.1110    8.3890 C   0  0  0  0  0  3  0  0  0  0  0  0
  -18.3590   21.3350    7.3250 C   0  0  0  0  0  3  0  0  0  0  0  0
  -16.9990   21.5090    7.5680 C   0  0  0  0  0  3  0  0  0  0  0  0
  -16.5140   21.4560    8.8720 C   0  0  0  0  0  3  0  0  0  0  0  0
  -17.3910   21.2320    9.9360 C   0  0  0  0  0  3  0  0  0  0  0  0
  -20.2020   16.2560   11.0670 C   0  0  0  0  0  3  0  0  0  0  0  0
  -20.6220   16.7750    9.8810 F   0  0  0  0  0  0  0  0  0  0  0  0
  -18.9340   16.7110   11.2590 F   0  0  0  0  0  0  0  0  0  0  0  0
  1  2  1  0  0  0  0
  2  3  2  0  0  0  0
  3  4  1  0  0  0  0
  4  5  2  0  0  0  0
  6  7  2  0  0  0  0
  6  5  1  0  0  0  0
  8  7  1  0  0  0  0
  9 10  1  0  0  0  0
  9  8  2  0  0  0  0
 10  6  1  0  0  0  0
 11 10  1  0  0  0  0
 11  3  1  0  0  0  0
 12 11  2  0  0  0  0
 13 12  1  0  0  0  0
 13  1  2  0  0  0  0
 14 15  1  0  0  0  0
 15 16  2  0  0  0  0
 17  1  1  0  0  0  0
 17 16  1  0  0  0  0
 18 17  2  0  0  0  0
 19 18  1  0  0  0  0
 19 14  2  0  0  0  0
 20 24  1  6  0  0  0
 20 14  1  0  0  0  0
 20 23  1  0  0  0  0
 21 20  1  0  0  0  0
 21 22  1  0  0  0  0
 22 23  1  0  0  0  0
 22 31  1  1  0  0  0
 24 27  1  0  0  0  0
 25 24  1  0  0  0  0
 26 24  1  0  0  0  0
 28 22  1  0  0  0  0
 28 30  1  0  0  0  0
 28 29  1  0  0  0  0
 30 29  1  0  0  0  0
 31 32  1  0  0  0  0
 33 38  1  0  0  0  0
 33 13  1  0  0  0  0
 34 33  2  0  0  0  0
 35 36  2  0  0  0  0
 35 34  1  0  0  0  0
 36 37  1  0  0  0  0
 37 38  2  0  0  0  0
 39 41  1  0  0  0  0
 39  9  1  0  0  0  0
 40 39  1  0  0  0  0
M  END
>  <minimizedAffinity>
-11.2045946

$$$$

 OpenBabel11232420473D

 41 47  0  0  1  0  0  0  0  0999 V2000
  -20.2760   16.4570   13.5210 C   0  0  0  0  0  0  0  0  0  0  0  0
  -19.6860   16.0980   12.3500 N   0  0  0  0  0  0  0  0  0  0  0  0
  -19.4790   17.0630   11.4280 C   0  0  0  0  0  0  0  0  0  0  0  0
  -18.8580   16.6130   10.1820 C   0  0  0  0  0  3  0  0  0  0  0  0
  -18.6010   17.4870    9.2010 C   0  0  0  0  0  3  0  0  0  0  0  0
  -18.9230   18.8540    9.3660 C   0  0  0  0  0  0  0  0  0  0  0  0
  -18.7580   19.8660    8.5480 N   0  0  0  0  0  0  0  0  0  0  0  0
  -19.2210   20.9880    9.1700 N   0  0  0  0  0  0  0  0  0  0  0  0
  -19.6690   20.6550   10.3670 C   0  0  0  0  0  0  0  0  0  0  0  0
  -19.5140   19.2920   10.5500 N   0  0  0  0  0  0  0  0  0  0  0  0
  -19.8220   18.4030   11.6150 C   0  0  0  0  0  0  0  0  0  0  0  0
  -20.4230   18.7560   12.8190 C   0  0  0  0  0  3  0  0  0  0  0  0
  -20.6660   17.7790   13.8070 C   0  0  0  0  0  0  0  0  0  0  0  0
  -20.7390   13.0930   16.2310 C   0  0  0  0  0  0  0  0  0  0  0  0
  -19.4750   13.6160   15.8850 C   0  0  0  0  0  3  0  0  0  0  0  0
  -19.3330   14.6990   15.0100 C   0  0  0  0  0  3  0  0  0  0  0  0
  -20.4500   15.3260   14.4480 C   0  0  0  0  0  0  0  0  0  0  0  0
  -21.7130   14.8230   14.7770 C   0  0  0  0  0  3  0  0  0  0  0  0
  -21.8510   13.7310   15.6460 C   0  0  0  0  0  3  0  0  0  0  0  0
  -20.8790   11.8250   17.1820 C   0  0  1  0  0  0  0  0  0  0  0  0
  -19.5810   11.1570   17.6940 C   0  0  0  0  0  2  0  0  0  0  0  0
  -20.1560   11.1000   19.1460 C   0  0  1  0  0  0  0  0  0  0  0  0
  -21.3200   12.0220   18.6520 C   0  0  0  0  0  2  0  0  0  0  0  0
  -21.7580   10.8720   16.4610 N   0  0  0  0  0  4  0  0  0  0  0  0
  -21.9320   10.0030   16.9770 H   0  0  0  0  0  0  0  0  0  0  0  0
  -21.3600   10.6130   15.5490 H   0  0  0  0  0  0  0  0  0  0  0  0
  -22.6740   11.2970   16.2590 H   0  0  0  0  0  0  0  0  0  0  0  0
  -20.5300    9.7170   19.6990 C   0  0  0  0  0  3  0  0  0  0  0  0
  -19.8090    8.9440   20.7730 C   0  0  0  0  0  2  0  0  0  0  0  0
  -21.2100    9.4230   21.0120 C   0  0  0  0  0  2  0  0  0  0  0  0
  -19.2970   11.7770   20.0980 O   0  0  0  0  0  0  0  0  0  0  0  0
  -19.0730   12.6540   19.7430 H   0  0  0  0  0  0  0  0  0  0  0  0
  -21.2780   18.1860   15.0820 C   0  0  0  0  0  0  0  0  0  0  0  0
  -22.4760   18.9190   15.1000 C   0  0  0  0  0  3  0  0  0  0  0  0
  -23.0550   19.3160   16.3080 C   0  0  0  0  0  3  0  0  0  0  0  0
  -22.4420   18.9900   17.5160 C   0  0  0  0  0  3  0  0  0  0  0  0
  -21.2500   18.2710   17.5170 C   0  0  0  0  0  3  0  0  0  0  0  0
  -20.6710   17.8730   16.3090 C   0  0  0  0  0  3  0  0  0  0  0  0
  -20.2250   21.6230   11.3310 C   0  0  0  0  0  3  0  0  0  0  0  0
  -19.2600   22.1170   12.1530 F   0  0  0  0  0  0  0  0  0  0  0  0
  -20.7790   22.6930   10.6980 F   0  0  0  0  0  0  0  0  0  0  0  0
  1 13  1  0  0  0  0
  1 17  1  0  0  0  0
  2  1  2  0  0  0  0
  3 11  2  0  0  0  0
  3  2  1  0  0  0  0
  4  3  1  0  0  0  0
  5  6  1  0  0  0  0
  5  4  2  0  0  0  0
  6 10  1  0  0  0  0
  7  8  1  0  0  0  0
  7  6  2  0  0  0  0
  8  9  2  0  0  0  0
  9 10  1  0  0  0  0
  9 39  1  0  0  0  0
 10 11  1  0  0  0  0
 11 12  1  0  0  0  0
 12 13  2  0  0  0  0
 13 33  1  0  0  0  0
 14 20  1  0  0  0  0
 15 14  1  0  0  0  0
 16 15  2  0  0  0  0
 17 18  2  0  0  0  0
 17 16  1  0  0  0  0
 18 19  1  0  0  0  0
 19 14  2  0  0  0  0
 20 24  1  6  0  0  0
 20 21  1  0  0  0  0
 20 23  1  0  0  0  0
 21 22  1  0  0  0  0
 22 28  1  0  0  0  0
 22 31  1  1  0  0  0
 23 22  1  0  0  0  0
 24 25  1  0  0  0  0
 26 24  1  0  0  0  0
 27 24  1  0  0  0  0
 28 29  1  0  0  0  0
 28 30  1  0  0  0  0
 29 30  1  0  0  0  0
 32 31  1  0  0  0  0
 33 34  2  0  0  0  0
 33 38  1  0  0  0  0
 34 35  1  0  0  0  0
 35 36  2  0  0  0  0
 36 37  1  0  0  0  0
 38 37  2  0  0  0  0
 39 40  1  0  0  0  0
 41 39  1  0  0  0  0
M  END
>  <minimizedAffinity>
-10.3368111

$$$$

 OpenBabel11232420473D

 41 47  0  0  1  0  0  0  0  0999 V2000
  -18.3520   30.8920   14.0040 C   0  0  0  0  0  0  0  0  0  0  0  0
  -18.6900   30.7020   15.3070 N   0  0  0  0  0  0  0  0  0  0  0  0
  -18.6110   31.7630   16.1390 C   0  0  0  0  0  0  0  0  0  0  0  0
  -18.9690   31.4930   17.5310 C   0  0  0  0  0  3  0  0  0  0  0  0
  -18.9320   32.4740   18.4410 C   0  0  0  0  0  3  0  0  0  0  0  0
  -18.5500   33.7820   18.0590 C   0  0  0  0  0  0  0  0  0  0  0  0
  -18.4490   34.8760   18.7760 N   0  0  0  0  0  0  0  0  0  0  0  0
  -18.0520   35.8840   17.9480 N   0  0  0  0  0  0  0  0  0  0  0  0
  -17.9110   35.4000   16.7270 C   0  0  0  0  0  0  0  0  0  0  0  0
  -18.2080   34.0480   16.7350 N   0  0  0  0  0  0  0  0  0  0  0  0
  -18.2160   33.0390   15.7350 C   0  0  0  0  0  0  0  0  0  0  0  0
  -17.8740   33.2190   14.3980 C   0  0  0  0  0  3  0  0  0  0  0  0
  -17.9350   32.1360   13.4950 C   0  0  0  0  0  0  0  0  0  0  0  0
  -18.7710   27.2650   11.6480 C   0  0  0  0  0  0  0  0  0  0  0  0
  -19.8830   27.9620   12.1660 C   0  0  0  0  0  3  0  0  0  0  0  0
  -19.7410   29.1290   12.9250 C   0  0  0  0  0  3  0  0  0  0  0  0
  -18.4780   29.6690   13.1930 C   0  0  0  0  0  0  0  0  0  0  0  0
  -17.3620   28.9930   12.6900 C   0  0  0  0  0  3  0  0  0  0  0  0
  -17.5080   27.8180   11.9380 C   0  0  0  0  0  3  0  0  0  0  0  0
  -18.9480   25.9080   10.8360 C   0  0  1  0  0  0  0  0  0  0  0  0
  -17.9770   25.6340    9.6640 C   0  0  0  0  0  2  0  0  0  0  0  0
  -17.7480   24.1720   10.1670 C   0  0  1  0  0  0  0  0  0  0  0  0
  -18.5010   24.5740   11.4780 C   0  0  0  0  0  2  0  0  0  0  0  0
  -20.3700   25.8720   10.4130 N   0  0  0  0  0  4  0  0  0  0  0  0
  -20.6160   25.0340    9.8760 H   0  0  0  0  0  0  0  0  0  0  0  0
  -20.6080   26.6880    9.8330 H   0  0  0  0  0  0  0  0  0  0  0  0
  -20.9980   25.9110   11.2270 H   0  0  0  0  0  0  0  0  0  0  0  0
  -18.3440   23.0370    9.3220 C   0  0  0  0  0  3  0  0  0  0  0  0
  -17.5900   21.9980    8.5340 C   0  0  0  0  0  2  0  0  0  0  0  0
  -18.4340   21.5800    9.7010 C   0  0  0  0  0  2  0  0  0  0  0  0
  -16.3440   23.8950   10.4120 O   0  0  0  0  0  0  0  0  0  0  0  0
  -15.9780   24.6140   10.9550 H   0  0  0  0  0  0  0  0  0  0  0  0
  -17.5950   32.3610   12.0810 C   0  0  0  0  0  0  0  0  0  0  0  0
  -16.2550   32.3740   11.6600 C   0  0  0  0  0  3  0  0  0  0  0  0
  -15.9270   32.5990   10.3210 C   0  0  0  0  0  3  0  0  0  0  0  0
  -16.9340   32.8170    9.3830 C   0  0  0  0  0  3  0  0  0  0  0  0
  -18.2680   32.8160    9.7840 C   0  0  0  0  0  3  0  0  0  0  0  0
  -18.5960   32.5910   11.1230 C   0  0  0  0  0  3  0  0  0  0  0  0
  -17.5120   36.2150   15.5650 C   0  0  0  0  0  3  0  0  0  0  0  0
  -18.5280   37.0200   15.1490 F   0  0  0  0  0  0  0  0  0  0  0  0
  -16.4690   37.0350   15.8670 F   0  0  0  0  0  0  0  0  0  0  0  0
  1  2  1  0  0  0  0
  2  3  2  0  0  0  0
  3  4  1  0  0  0  0
  4  5  2  0  0  0  0
  6  5  1  0  0  0  0
  6  7  2  0  0  0  0
  8  7  1  0  0  0  0
  9 10  1  0  0  0  0
  9  8  2  0  0  0  0
 10  6  1  0  0  0  0
 11  3  1  0  0  0  0
 11 10  1  0  0  0  0
 12 11  2  0  0  0  0
 13  1  2  0  0  0  0
 13 12  1  0  0  0  0
 14 19  2  0  0  0  0
 14 15  1  0  0  0  0
 15 16  2  0  0  0  0
 16 17  1  0  0  0  0
 17  1  1  0  0  0  0
 18 17  2  0  0  0  0
 19 18  1  0  0  0  0
 20 24  1  6  0  0  0
 20 23  1  0  0  0  0
 20 14  1  0  0  0  0
 21 22  1  0  0  0  0
 21 20  1  0  0  0  0
 22 31  1  1  0  0  0
 22 23  1  0  0  0  0
 24 27  1  0  0  0  0
 25 24  1  0  0  0  0
 26 24  1  0  0  0  0
 28 30  1  0  0  0  0
 28 22  1  0  0  0  0
 29 28  1  0  0  0  0
 29 30  1  0  0  0  0
 31 32  1  0  0  0  0
 33 13  1  0  0  0  0
 34 33  1  0  0  0  0
 35 34  2  0  0  0  0
 36 37  2  0  0  0  0
 36 35  1  0  0  0  0
 37 38  1  0  0  0  0
 38 33  2  0  0  0  0
 39 41  1  0  0  0  0
 39  9  1  0  0  0  0
 40 39  1  0  0  0  0
M  END
>  <minimizedAffinity>
-10.1836739

$$$$

 OpenBabel11232420473D

 41 47  0  0  1  0  0  0  0  0999 V2000
  -20.3640   16.4580   13.6180 C   0  0  0  0  0  0  0  0  0  0  0  0
  -19.7970   16.1060   12.4340 N   0  0  0  0  0  0  0  0  0  0  0  0
  -19.5690   17.0840   11.5310 C   0  0  0  0  0  0  0  0  0  0  0  0
  -18.9740   16.6430   10.2700 C   0  0  0  0  0  3  0  0  0  0  0  0
  -18.6990   17.5290    9.3040 C   0  0  0  0  0  3  0  0  0  0  0  0
  -18.9790   18.9020    9.5020 C   0  0  0  0  0  0  0  0  0  0  0  0
  -18.7910   19.9260    8.7040 N   0  0  0  0  0  0  0  0  0  0  0  0
  -19.2140   21.0470    9.3530 N   0  0  0  0  0  0  0  0  0  0  0  0
  -19.6600   20.7020   10.5480 C   0  0  0  0  0  0  0  0  0  0  0  0
  -19.5450   19.3310   10.7000 N   0  0  0  0  0  0  0  0  0  0  0  0
  -19.8690   18.4300   11.7490 C   0  0  0  0  0  0  0  0  0  0  0  0
  -20.4480   18.7740   12.9660 C   0  0  0  0  0  3  0  0  0  0  0  0
  -20.7110   17.7840   13.9360 C   0  0  0  0  0  0  0  0  0  0  0  0
  -21.0030   13.1060   16.3090 C   0  0  0  0  0  0  0  0  0  0  0  0
  -22.0680   13.7800   15.6730 C   0  0  0  0  0  3  0  0  0  0  0  0
  -21.8560   14.8590   14.8090 C   0  0  0  0  0  3  0  0  0  0  0  0
  -20.5640   15.3130   14.5220 C   0  0  0  0  0  0  0  0  0  0  0  0
  -19.4930   14.6600   15.1410 C   0  0  0  0  0  3  0  0  0  0  0  0
  -19.7110   13.5850   16.0160 C   0  0  0  0  0  3  0  0  0  0  0  0
  -21.2670   11.9180   17.3330 C   0  0  1  0  0  0  0  0  0  0  0  0
  -22.5610   11.0880   17.1600 C   0  0  0  0  0  2  0  0  0  0  0  0
  -21.7560    9.7570   17.3220 C   0  0  1  0  0  0  0  0  0  0  0  0
  -20.4490   10.6100   17.2070 C   0  0  0  0  0  2  0  0  0  0  0  0
  -21.1550   12.5150   18.6860 N   0  0  0  0  0  4  0  0  0  0  0  0
  -21.3030   11.8420   19.4450 H   0  0  0  0  0  0  0  0  0  0  0  0
  -21.8340   13.2770   18.8150 H   0  0  0  0  0  0  0  0  0  0  0  0
  -20.2260   12.9370   18.8260 H   0  0  0  0  0  0  0  0  0  0  0  0
  -21.9730    8.9580   18.6150 C   0  0  0  0  0  3  0  0  0  0  0  0
  -22.8090    7.7160   18.7850 C   0  0  0  0  0  2  0  0  0  0  0  0
  -21.3240    7.6490   18.9860 C   0  0  0  0  0  2  0  0  0  0  0  0
  -21.9280    8.8760   16.1820 O   0  0  0  0  0  0  0  0  0  0  0  0
  -21.7810    9.3890   15.3700 H   0  0  0  0  0  0  0  0  0  0  0  0
  -21.2990   18.1820   15.2260 C   0  0  0  0  0  0  0  0  0  0  0  0
  -22.4770   18.9450   15.2710 C   0  0  0  0  0  3  0  0  0  0  0  0
  -23.0320   19.3340   16.4930 C   0  0  0  0  0  3  0  0  0  0  0  0
  -22.4150   18.9680   17.6870 C   0  0  0  0  0  3  0  0  0  0  0  0
  -21.2420   18.2190   17.6620 C   0  0  0  0  0  3  0  0  0  0  0  0
  -20.6870   17.8300   16.4400 C   0  0  0  0  0  3  0  0  0  0  0  0
  -20.1770   21.6650   11.5380 C   0  0  0  0  0  3  0  0  0  0  0  0
  -19.8430   22.9440   11.2110 F   0  0  0  0  0  0  0  0  0  0  0  0
  -21.5360   21.6270   11.6060 F   0  0  0  0  0  0  0  0  0  0  0  0
  1 13  1  0  0  0  0
  1 17  1  0  0  0  0
  2  1  2  0  0  0  0
  3 11  2  0  0  0  0
  3  2  1  0  0  0  0
  4  3  1  0  0  0  0
  5  6  1  0  0  0  0
  5  4  2  0  0  0  0
  6 10  1  0  0  0  0
  7  8  1  0  0  0  0
  7  6  2  0  0  0  0
  8  9  2  0  0  0  0
  9 10  1  0  0  0  0
  9 39  1  0  0  0  0
 10 11  1  0  0  0  0
 11 12  1  0  0  0  0
 12 13  2  0  0  0  0
 13 33  1  0  0  0  0
 14 20  1  0  0  0  0
 15 14  2  0  0  0  0
 16 15  1  0  0  0  0
 17 16  2  0  0  0  0
 17 18  1  0  0  0  0
 18 19  2  0  0  0  0
 19 14  1  0  0  0  0
 20 24  1  1  0  0  0
 21 22  1  0  0  0  0
 21 20  1  0  0  0  0
 22 31  1  6  0  0  0
 22 28  1  0  0  0  0
 23 22  1  0  0  0  0
 23 20  1  0  0  0  0
 24 26  1  0  0  0  0
 24 27  1  0  0  0  0
 24 25  1  0  0  0  0
 28 29  1  0  0  0  0
 28 30  1  0  0  0  0
 29 30  1  0  0  0  0
 32 31  1  0  0  0  0
 33 34  2  0  0  0  0
 33 38  1  0  0  0  0
 34 35  1  0  0  0  0
 35 36  2  0  0  0  0
 37 36  1  0  0  0  0
 38 37  2  0  0  0  0
 39 41  1  0  0  0  0
 40 39  1  0  0  0  0
M  END
>  <minimizedAffinity>
-10.0719318

$$$$

 OpenBabel11232420473D

 41 47  0  0  1  0  0  0  0  0999 V2000
  -17.4780   30.8170   11.8620 C   0  0  0  0  0  0  0  0  0  0  0  0
  -16.7200   31.1580   10.7860 N   0  0  0  0  0  0  0  0  0  0  0  0
  -16.0780   32.3460   10.8190 C   0  0  0  0  0  0  0  0  0  0  0  0
  -15.2940   32.6650    9.6270 C   0  0  0  0  0  3  0  0  0  0  0  0
  -14.6110   33.8150    9.5530 C   0  0  0  0  0  3  0  0  0  0  0  0
  -14.6400   34.7260   10.6350 C   0  0  0  0  0  0  0  0  0  0  0  0
  -14.0520   35.8900   10.7750 N   0  0  0  0  0  0  0  0  0  0  0  0
  -14.3810   36.3820   12.0030 N   0  0  0  0  0  0  0  0  0  0  0  0
  -15.1710   35.5140   12.6100 C   0  0  0  0  0  0  0  0  0  0  0  0
  -15.3840   34.4300   11.7750 N   0  0  0  0  0  0  0  0  0  0  0  0
  -16.1370   33.2320   11.8960 C   0  0  0  0  0  0  0  0  0  0  0  0
  -16.9160   32.8690   12.9900 C   0  0  0  0  0  3  0  0  0  0  0  0
  -17.6110   31.6400   12.9950 C   0  0  0  0  0  0  0  0  0  0  0  0
  -19.3420   26.9190   11.4070 C   0  0  0  0  0  0  0  0  0  0  0  0
  -18.0230   27.0750   11.8840 C   0  0  0  0  0  3  0  0  0  0  0  0
  -17.4280   28.3330   12.0270 C   0  0  0  0  0  3  0  0  0  0  0  0
  -18.1280   29.5040   11.7140 C   0  0  0  0  0  0  0  0  0  0  0  0
  -19.4370   29.3730   11.2390 C   0  0  0  0  0  3  0  0  0  0  0  0
  -20.0260   28.1090   11.0880 C   0  0  0  0  0  3  0  0  0  0  0  0
  -19.9820   25.4780   11.1970 C   0  0  1  0  0  0  0  0  0  0  0  0
  -19.0850   24.3670   10.6030 C   0  0  0  0  0  2  0  0  0  0  0  0
  -19.5710   23.3590   11.6950 C   0  0  1  0  0  0  0  0  0  0  0  0
  -20.2360   24.5720   12.4260 C   0  0  0  0  0  2  0  0  0  0  0  0
  -21.2160   25.6930   10.4020 N   0  0  0  0  0  4  0  0  0  0  0  0
  -21.7300   24.8290   10.2000 H   0  0  0  0  0  0  0  0  0  0  0  0
  -21.0060   26.1440    9.5010 H   0  0  0  0  0  0  0  0  0  0  0  0
  -21.8630   26.3280   10.8910 H   0  0  0  0  0  0  0  0  0  0  0  0
  -20.4860   22.2150   11.2370 C   0  0  0  0  0  3  0  0  0  0  0  0
  -20.3330   20.7490   11.5490 C   0  0  0  0  0  2  0  0  0  0  0  0
  -21.5230   21.5010   12.0670 C   0  0  0  0  0  2  0  0  0  0  0  0
  -18.4650   22.8090   12.4570 O   0  0  0  0  0  0  0  0  0  0  0  0
  -17.8970   23.5410   12.7500 H   0  0  0  0  0  0  0  0  0  0  0  0
  -18.4040   31.2700   14.1780 C   0  0  0  0  0  0  0  0  0  0  0  0
  -19.7670   31.5990   14.2580 C   0  0  0  0  0  3  0  0  0  0  0  0
  -20.5220   31.2590   15.3840 C   0  0  0  0  0  3  0  0  0  0  0  0
  -19.9230   30.5880   16.4480 C   0  0  0  0  0  3  0  0  0  0  0  0
  -18.5700   30.2610   16.3900 C   0  0  0  0  0  3  0  0  0  0  0  0
  -17.8160   30.6010   15.2640 C   0  0  0  0  0  3  0  0  0  0  0  0
  -15.7070   35.7060   13.9690 C   0  0  0  0  0  3  0  0  0  0  0  0
  -15.0350   36.6850   14.6350 F   0  0  0  0  0  0  0  0  0  0  0  0
  -17.0130   36.0850   13.9410 F   0  0  0  0  0  0  0  0  0  0  0  0
  1 13  1  0  0  0  0
  2  3  1  0  0  0  0
  2  1  2  0  0  0  0
  3 11  2  0  0  0  0
  4  3  1  0  0  0  0
  5  4  2  0  0  0  0
  5  6  1  0  0  0  0
  6  7  2  0  0  0  0
  6 10  1  0  0  0  0
  7  8  1  0  0  0  0
  8  9  2  0  0  0  0
  9 39  1  0  0  0  0
 10 11  1  0  0  0  0
 10  9  1  0  0  0  0
 11 12  1  0  0  0  0
 12 13  2  0  0  0  0
 13 33  1  0  0  0  0
 14 15  1  0  0  0  0
 15 16  2  0  0  0  0
 17  1  1  0  0  0  0
 17 16  1  0  0  0  0
 18 17  2  0  0  0  0
 19 18  1  0  0  0  0
 19 14  2  0  0  0  0
 20 24  1  6  0  0  0
 20 14  1  0  0  0  0
 20 23  1  0  0  0  0
 21 20  1  0  0  0  0
 21 22  1  0  0  0  0
 22 23  1  0  0  0  0
 22 31  1  1  0  0  0
 24 27  1  0  0  0  0
 25 24  1  0  0  0  0
 26 24  1  0  0  0  0
 28 29  1  0  0  0  0
 28 22  1  0  0  0  0
 28 30  1  0  0  0  0
 29 30  1  0  0  0  0
 31 32  1  0  0  0  0
 33 34  2  0  0  0  0
 33 38  1  0  0  0  0
 34 35  1  0  0  0  0
 35 36  2  0  0  0  0
 37 36  1  0  0  0  0
 38 37  2  0  0  0  0
 39 40  1  0  0  0  0
 41 39  1  0  0  0  0
M  END
>  <minimizedAffinity>
-10.0714531

$$$$

 OpenBabel11232420473D

 41 47  0  0  1  0  0  0  0  0999 V2000
  -21.3040   16.7280   13.1740 C   0  0  0  0  0  0  0  0  0  0  0  0
  -20.8890   16.3990   11.9220 N   0  0  0  0  0  0  0  0  0  0  0  0
  -20.3310   17.3720   11.1680 C   0  0  0  0  0  0  0  0  0  0  0  0
  -19.9210   16.9640    9.8250 C   0  0  0  0  0  3  0  0  0  0  0  0
  -19.3510   17.8460    8.9940 C   0  0  0  0  0  3  0  0  0  0  0  0
  -19.1380   19.1800    9.4140 C   0  0  0  0  0  0  0  0  0  0  0  0
  -18.6030   20.1920    8.7740 N   0  0  0  0  0  0  0  0  0  0  0  0
  -18.6140   21.2690    9.6090 N   0  0  0  0  0  0  0  0  0  0  0  0
  -19.1570   20.9100   10.7580 C   0  0  0  0  0  0  0  0  0  0  0  0
  -19.5260   19.5770   10.6920 N   0  0  0  0  0  0  0  0  0  0  0  0
  -20.1470   18.6840   11.6060 C   0  0  0  0  0  0  0  0  0  0  0  0
  -20.5770   19.0050   12.8900 C   0  0  0  0  0  3  0  0  0  0  0  0
  -21.1710   18.0220   13.7090 C   0  0  0  0  0  0  0  0  0  0  0  0
  -23.0910   13.4050   15.3310 C   0  0  0  0  0  0  0  0  0  0  0  0
  -23.8500   14.2790   14.5230 C   0  0  0  0  0  3  0  0  0  0  0  0
  -23.2690   15.3470   13.8320 C   0  0  0  0  0  3  0  0  0  0  0  0
  -21.8930   15.5900   13.9000 C   0  0  0  0  0  0  0  0  0  0  0  0
  -21.1200   14.7370   14.6950 C   0  0  0  0  0  3  0  0  0  0  0  0
  -21.7080   13.6730   15.3950 C   0  0  0  0  0  3  0  0  0  0  0  0
  -23.7770   12.2300   16.1550 C   0  0  1  0  0  0  0  0  0  0  0  0
  -23.8270   12.3590   17.6950 C   0  0  0  0  0  2  0  0  0  0  0  0
  -25.3330   11.9400   17.7040 C   0  0  1  0  0  0  0  0  0  0  0  0
  -25.3190   12.0970   16.1480 C   0  0  0  0  0  2  0  0  0  0  0  0
  -23.1100   10.9810   15.7130 N   0  0  0  0  0  4  0  0  0  0  0  0
  -23.4700   10.1390   16.1740 H   0  0  0  0  0  0  0  0  0  0  0  0
  -22.0960   11.0180   15.8880 H   0  0  0  0  0  0  0  0  0  0  0  0
  -23.2170   10.8460   14.6980 H   0  0  0  0  0  0  0  0  0  0  0  0
  -25.6740   10.5570   18.2770 C   0  0  0  0  0  3  0  0  0  0  0  0
  -26.9260   10.1640   19.0170 C   0  0  0  0  0  2  0  0  0  0  0  0
  -26.6200    9.5430   17.6870 C   0  0  0  0  0  2  0  0  0  0  0  0
  -26.1710   12.9390   18.3410 O   0  0  0  0  0  0  0  0  0  0  0  0
  -25.9540   13.8090   17.9650 H   0  0  0  0  0  0  0  0  0  0  0  0
  -21.5900   18.3830   15.0730 C   0  0  0  0  0  0  0  0  0  0  0  0
  -20.8650   17.9320   16.1880 C   0  0  0  0  0  3  0  0  0  0  0  0
  -21.2650   18.2630   17.4850 C   0  0  0  0  0  3  0  0  0  0  0  0
  -22.3990   19.0470   17.6860 C   0  0  0  0  0  3  0  0  0  0  0  0
  -23.1360   19.4960   16.5930 C   0  0  0  0  0  3  0  0  0  0  0  0
  -22.7350   19.1650   15.2960 C   0  0  0  0  0  3  0  0  0  0  0  0
  -19.3130   21.8180   11.9090 C   0  0  0  0  0  3  0  0  0  0  0  0
  -18.5070   22.9090   11.7950 F   0  0  0  0  0  0  0  0  0  0  0  0
  -20.5870   22.2880   12.0040 F   0  0  0  0  0  0  0  0  0  0  0  0
  1 13  1  0  0  0  0
  1 17  1  0  0  0  0
  2  1  2  0  0  0  0
  3 11  2  0  0  0  0
  3  2  1  0  0  0  0
  4  3  1  0  0  0  0
  5  6  1  0  0  0  0
  5  4  2  0  0  0  0
  6 10  1  0  0  0  0
  7  6  2  0  0  0  0
  7  8  1  0  0  0  0
  8  9  2  0  0  0  0
  9 39  1  0  0  0  0
 10  9  1  0  0  0  0
 10 11  1  0  0  0  0
 11 12  1  0  0  0  0
 12 13  2  0  0  0  0
 13 33  1  0  0  0  0
 14 19  1  0  0  0  0
 14 20  1  0  0  0  0
 15 14  2  0  0  0  0
 16 17  2  0  0  0  0
 16 15  1  0  0  0  0
 17 18  1  0  0  0  0
 18 19  2  0  0  0  0
 20 24  1  6  0  0  0
 20 21  1  0  0  0  0
 21 22  1  0  0  0  0
 22 28  1  0  0  0  0
 22 31  1  1  0  0  0
 23 20  1  0  0  0  0
 23 22  1  0  0  0  0
 24 26  1  0  0  0  0
 24 25  1  0  0  0  0
 27 24  1  0  0  0  0
 28 29  1  0  0  0  0
 30 28  1  0  0  0  0
 30 29  1  0  0  0  0
 32 31  1  0  0  0  0
 33 38  2  0  0  0  0
 33 34  1  0  0  0  0
 34 35  2  0  0  0  0
 35 36  1  0  0  0  0
 37 36  2  0  0  0  0
 38 37  1  0  0  0  0
 39 41  1  0  0  0  0
 40 39  1  0  0  0  0
M  END
>  <minimizedAffinity>
-10.0015259

$$$$

 OpenBabel11232420473D

 41 47  0  0  1  0  0  0  0  0999 V2000
  -17.4580   31.4840   12.2860 C   0  0  0  0  0  0  0  0  0  0  0  0
  -16.4110   31.9650   11.5640 N   0  0  0  0  0  0  0  0  0  0  0  0
  -15.9660   33.2070   11.8530 C   0  0  0  0  0  0  0  0  0  0  0  0
  -14.8510   33.6770   11.0320 C   0  0  0  0  0  3  0  0  0  0  0  0
  -14.3250   34.8920   11.2360 C   0  0  0  0  0  3  0  0  0  0  0  0
  -14.8440   35.7270   12.2530 C   0  0  0  0  0  0  0  0  0  0  0  0
  -14.4840   36.9330   12.6210 N   0  0  0  0  0  0  0  0  0  0  0  0
  -15.2850   37.3120   13.6570 N   0  0  0  0  0  0  0  0  0  0  0  0
  -16.1320   36.3330   13.9180 C   0  0  0  0  0  0  0  0  0  0  0  0
  -15.9060   35.2870   13.0400 N   0  0  0  0  0  0  0  0  0  0  0  0
  -16.5090   34.0140   12.8550 C   0  0  0  0  0  0  0  0  0  0  0  0
  -17.5790   33.5080   13.5850 C   0  0  0  0  0  3  0  0  0  0  0  0
  -18.0820   32.2180   13.3120 C   0  0  0  0  0  0  0  0  0  0  0  0
  -18.5730   27.4510   11.1140 C   0  0  0  0  0  0  0  0  0  0  0  0
  -17.6840   27.7110   12.1790 C   0  0  0  0  0  3  0  0  0  0  0  0
  -17.3280   29.0120   12.5500 C   0  0  0  0  0  3  0  0  0  0  0  0
  -17.8560   30.1240   11.8850 C   0  0  0  0  0  0  0  0  0  0  0  0
  -18.7390   29.8900   10.8260 C   0  0  0  0  0  3  0  0  0  0  0  0
  -19.0860   28.5840   10.4500 C   0  0  0  0  0  3  0  0  0  0  0  0
  -18.9220   25.9640   10.6690 C   0  0  1  0  0  0  0  0  0  0  0  0
  -18.0930   25.3380    9.5230 C   0  0  0  0  0  2  0  0  0  0  0  0
  -17.9140   24.0190   10.3440 C   0  0  1  0  0  0  0  0  0  0  0  0
  -18.5040   24.7820   11.5750 C   0  0  0  0  0  2  0  0  0  0  0  0
  -20.3780   25.9570   10.3830 N   0  0  0  0  0  4  0  0  0  0  0  0
  -20.7330   25.0420   10.0860 H   0  0  0  0  0  0  0  0  0  0  0  0
  -20.6170   26.6330    9.6450 H   0  0  0  0  0  0  0  0  0  0  0  0
  -20.9180   26.2410   11.2120 H   0  0  0  0  0  0  0  0  0  0  0  0
  -18.6670   22.7760    9.8480 C   0  0  0  0  0  3  0  0  0  0  0  0
  -18.1170   21.6600    8.9990 C   0  0  0  0  0  2  0  0  0  0  0  0
  -18.5650   21.3780   10.4020 C   0  0  0  0  0  2  0  0  0  0  0  0
  -16.5150   23.6840   10.5340 O   0  0  0  0  0  0  0  0  0  0  0  0
  -16.0490   24.4740   10.8560 H   0  0  0  0  0  0  0  0  0  0  0  0
  -19.1960   31.6970   14.1200 C   0  0  0  0  0  0  0  0  0  0  0  0
  -18.9500   30.9570   15.2880 C   0  0  0  0  0  3  0  0  0  0  0  0
  -20.0050   30.4510   16.0520 C   0  0  0  0  0  3  0  0  0  0  0  0
  -21.3220   30.6750   15.6570 C   0  0  0  0  0  3  0  0  0  0  0  0
  -21.5850   31.4000   14.4970 C   0  0  0  0  0  3  0  0  0  0  0  0
  -20.5300   31.9060   13.7330 C   0  0  0  0  0  3  0  0  0  0  0  0
  -17.1370   36.3860   14.9960 C   0  0  0  0  0  3  0  0  0  0  0  0
  -16.6020   36.8690   16.1520 F   0  0  0  0  0  0  0  0  0  0  0  0
  -18.1700   37.2120   14.6750 F   0  0  0  0  0  0  0  0  0  0  0  0
  1 13  1  0  0  0  0
  2  3  1  0  0  0  0
  2  1  2  0  0  0  0
  3 11  2  0  0  0  0
  4  5  2  0  0  0  0
  4  3  1  0  0  0  0
  5  6  1  0  0  0  0
  6  7  2  0  0  0  0
  6 10  1  0  0  0  0
  7  8  1  0  0  0  0
  8  9  2  0  0  0  0
  9 39  1  0  0  0  0
 10  9  1  0  0  0  0
 11 10  1  0  0  0  0
 11 12  1  0  0  0  0
 13 12  2  0  0  0  0
 13 33  1  0  0  0  0
 14 15  1  0  0  0  0
 15 16  2  0  0  0  0
 17  1  1  0  0  0  0
 17 16  1  0  0  0  0
 18 17  2  0  0  0  0
 19 18  1  0  0  0  0
 19 14  2  0  0  0  0
 20 24  1  6  0  0  0
 20 14  1  0  0  0  0
 20 23  1  0  0  0  0
 21 22  1  0  0  0  0
 21 20  1  0  0  0  0
 22 31  1  1  0  0  0
 22 23  1  0  0  0  0
 24 27  1  0  0  0  0
 25 24  1  0  0  0  0
 26 24  1  0  0  0  0
 28 22  1  0  0  0  0
 28 30  1  0  0  0  0
 29 28  1  0  0  0  0
 29 30  1  0  0  0  0
 31 32  1  0  0  0  0
 33 34  1  0  0  0  0
 34 35  2  0  0  0  0
 36 35  1  0  0  0  0
 37 36  2  0  0  0  0
 38 33  2  0  0  0  0
 38 37  1  0  0  0  0
 39 40  1  0  0  0  0
 41 39  1  0  0  0  0
M  END
>  <minimizedAffinity>
-9.45832062

$$$$

 OpenBabel11232420473D

 41 47  0  0  1  0  0  0  0  0999 V2000
  -19.1660   24.4540   11.3190 C   0  0  0  0  0  0  0  0  0  0  0  0
  -20.0870   23.6990   11.9740 N   0  0  0  0  0  0  0  0  0  0  0  0
  -20.1250   22.3760   11.7030 C   0  0  0  0  0  0  0  0  0  0  0  0
  -21.1480   21.6190   12.4240 C   0  0  0  0  0  3  0  0  0  0  0  0
  -21.2710   20.2990   12.2370 C   0  0  0  0  0  3  0  0  0  0  0  0
  -20.4060   19.6270   11.3420 C   0  0  0  0  0  0  0  0  0  0  0  0
  -20.3500   18.3580   11.0140 N   0  0  0  0  0  0  0  0  0  0  0  0
  -19.3360   18.2010   10.1160 N   0  0  0  0  0  0  0  0  0  0  0  0
  -18.7770   19.3780    9.8980 C   0  0  0  0  0  0  0  0  0  0  0  0
  -19.4280   20.3400   10.6510 N   0  0  0  0  0  0  0  0  0  0  0  0
  -19.2670   21.7430   10.8030 C   0  0  0  0  0  0  0  0  0  0  0  0
  -18.3290   22.5290   10.1400 C   0  0  0  0  0  3  0  0  0  0  0  0
  -18.2590   23.9160   10.3880 C   0  0  0  0  0  0  0  0  0  0  0  0
  -19.2720   28.6430   12.4700 C   0  0  0  0  0  0  0  0  0  0  0  0
  -18.0680   27.9100   12.3900 C   0  0  0  0  0  3  0  0  0  0  0  0
  -18.0410   26.5610   12.0210 C   0  0  0  0  0  3  0  0  0  0  0  0
  -19.2170   25.8770   11.6950 C   0  0  0  0  0  0  0  0  0  0  0  0
  -20.4220   26.5830   11.7680 C   0  0  0  0  0  3  0  0  0  0  0  0
  -20.4460   27.9330   12.1490 C   0  0  0  0  0  3  0  0  0  0  0  0
  -19.2890   30.1600   12.9480 C   0  0  1  0  0  0  0  0  0  0  0  0
  -20.3420   31.1040   12.3210 C   0  0  0  0  0  2  0  0  0  0  0  0
  -20.7100   31.6670   13.7330 C   0  0  1  0  0  0  0  0  0  0  0  0
  -19.8530   30.5100   14.3450 C   0  0  0  0  0  2  0  0  0  0  0  0
  -17.9040   30.6580   12.7670 N   0  0  0  0  0  4  0  0  0  0  0  0
  -17.7800   31.6370   13.0460 H   0  0  0  0  0  0  0  0  0  0  0  0
  -17.6030   30.5780   11.7860 H   0  0  0  0  0  0  0  0  0  0  0  0
  -17.2360   30.0960   13.3130 H   0  0  0  0  0  0  0  0  0  0  0  0
  -20.2880   33.1090   14.0460 C   0  0  0  0  0  3  0  0  0  0  0  0
  -19.0640   33.5530   14.8060 C   0  0  0  0  0  2  0  0  0  0  0  0
  -19.2090   33.9040   13.3550 C   0  0  0  0  0  2  0  0  0  0  0  0
  -22.1220   31.5090   14.0290 O   0  0  0  0  0  0  0  0  0  0  0  0
  -22.3770   30.5910   13.8360 H   0  0  0  0  0  0  0  0  0  0  0  0
  -17.2380   24.7170    9.6940 C   0  0  0  0  0  0  0  0  0  0  0  0
  -15.8710   24.4810    9.9130 C   0  0  0  0  0  3  0  0  0  0  0  0
  -14.8980   25.2470    9.2650 C   0  0  0  0  0  3  0  0  0  0  0  0
  -15.2790   26.2630    8.3900 C   0  0  0  0  0  3  0  0  0  0  0  0
  -16.6300   26.5170    8.1670 C   0  0  0  0  0  3  0  0  0  0  0  0
  -17.6020   25.7510    8.8160 C   0  0  0  0  0  3  0  0  0  0  0  0
  -17.6300   19.5840    8.9950 C   0  0  0  0  0  3  0  0  0  0  0  0
  -17.0770   18.4000    8.6150 F   0  0  0  0  0  0  0  0  0  0  0  0
  -18.0040   20.2200    7.8510 F   0  0  0  0  0  0  0  0  0  0  0  0
  1 17  1  0  0  0  0
  1  2  1  0  0  0  0
  3  2  2  0  0  0  0
  3  4  1  0  0  0  0
  5  4  2  0  0  0  0
  6  5  1  0  0  0  0
  7  6  2  0  0  0  0
  8  7  1  0  0  0  0
  9  8  2  0  0  0  0
  9 10  1  0  0  0  0
 10 11  1  0  0  0  0
 10  6  1  0  0  0  0
 11  3  1  0  0  0  0
 12 13  1  0  0  0  0
 12 11  2  0  0  0  0
 13  1  2  0  0  0  0
 14 20  1  0  0  0  0
 15 14  1  0  0  0  0
 16 15  2  0  0  0  0
 17 18  2  0  0  0  0
 17 16  1  0  0  0  0
 18 19  1  0  0  0  0
 19 14  2  0  0  0  0
 20 24  1  6  0  0  0
 20 23  1  0  0  0  0
 21 20  1  0  0  0  0
 21 22  1  0  0  0  0
 22 31  1  1  0  0  0
 22 28  1  0  0  0  0
 22 23  1  0  0  0  0
 24 25  1  0  0  0  0
 24 27  1  0  0  0  0
 26 24  1  0  0  0  0
 28 29  1  0  0  0  0
 30 28  1  0  0  0  0
 30 29  1  0  0  0  0
 32 31  1  0  0  0  0
 33 34  1  0  0  0  0
 33 13  1  0  0  0  0
 35 34  2  0  0  0  0
 36 35  1  0  0  0  0
 37 36  2  0  0  0  0
 37 38  1  0  0  0  0
 38 33  2  0  0  0  0
 39  9  1  0  0  0  0
 40 39  1  0  0  0  0
 41 39  1  0  0  0  0
M  END
>  <minimizedAffinity>
-9.26925468

$$$$

 OpenBabel11232420473D

 41 47  0  0  1  0  0  0  0  0999 V2000
  -20.0570   17.6950   11.0460 C   0  0  0  0  0  0  0  0  0  0  0  0
  -19.1700   17.2450   10.1200 N   0  0  0  0  0  0  0  0  0  0  0  0
  -18.4220   18.1610    9.4670 C   0  0  0  0  0  0  0  0  0  0  0  0
  -17.4990   17.6180    8.4710 C   0  0  0  0  0  3  0  0  0  0  0  0
  -16.7050   18.4350    7.7680 C   0  0  0  0  0  3  0  0  0  0  0  0
  -16.7500   19.8310    7.9900 C   0  0  0  0  0  0  0  0  0  0  0  0
  -16.0690   20.7990    7.4250 N   0  0  0  0  0  0  0  0  0  0  0  0
  -16.4660   21.9760    7.9870 N   0  0  0  0  0  0  0  0  0  0  0  0
  -17.3910   21.7210    8.8960 C   0  0  0  0  0  0  0  0  0  0  0  0
  -17.6260   20.3570    8.9380 N   0  0  0  0  0  0  0  0  0  0  0  0
  -18.5000   19.5350    9.6980 C   0  0  0  0  0  0  0  0  0  0  0  0
  -19.4120   19.9810   10.6490 C   0  0  0  0  0  3  0  0  0  0  0  0
  -20.2190   19.0600   11.3500 C   0  0  0  0  0  0  0  0  0  0  0  0
  -22.3410   14.5240   12.9450 C   0  0  0  0  0  0  0  0  0  0  0  0
  -22.8140   15.2240   11.8140 C   0  0  0  0  0  3  0  0  0  0  0  0
  -22.0740   16.2450   11.2080 C   0  0  0  0  0  3  0  0  0  0  0  0
  -20.8140   16.6100   11.6930 C   0  0  0  0  0  0  0  0  0  0  0  0
  -20.3250   15.9300   12.8130 C   0  0  0  0  0  3  0  0  0  0  0  0
  -21.0750   14.9140   13.4250 C   0  0  0  0  0  3  0  0  0  0  0  0
  -23.2220   13.4050   13.6550 C   0  0  1  0  0  0  0  0  0  0  0  0
  -22.7720   12.9070   15.0490 C   0  0  0  0  0  2  0  0  0  0  0  0
  -24.2340   13.0290   15.5890 C   0  0  1  0  0  0  0  0  0  0  0  0
  -24.5890   13.7900   14.2690 C   0  0  0  0  0  2  0  0  0  0  0  0
  -23.3450   12.3020   12.6720 N   0  0  0  0  0  4  0  0  0  0  0  0
  -23.9010   11.5090   13.0130 H   0  0  0  0  0  0  0  0  0  0  0  0
  -22.4220   11.9360   12.4040 H   0  0  0  0  0  0  0  0  0  0  0  0
  -23.7830   12.6320   11.8010 H   0  0  0  0  0  0  0  0  0  0  0  0
  -24.9850   11.7220   15.8820 C   0  0  0  0  0  3  0  0  0  0  0  0
  -25.8050   11.4010   17.1050 C   0  0  0  0  0  2  0  0  0  0  0  0
  -26.4700   11.4890   15.7640 C   0  0  0  0  0  2  0  0  0  0  0  0
  -24.3130   13.8940   16.7510 O   0  0  0  0  0  0  0  0  0  0  0  0
  -23.8420   14.7210   16.5530 H   0  0  0  0  0  0  0  0  0  0  0  0
  -21.1550   19.5580   12.3710 C   0  0  0  0  0  0  0  0  0  0  0  0
  -21.9700   20.6720   12.1120 C   0  0  0  0  0  3  0  0  0  0  0  0
  -22.8520   21.1550   13.0820 C   0  0  0  0  0  3  0  0  0  0  0  0
  -22.9290   20.5330   14.3260 C   0  0  0  0  0  3  0  0  0  0  0  0
  -22.1230   19.4320   14.6040 C   0  0  0  0  0  3  0  0  0  0  0  0
  -21.2410   18.9500   13.6330 C   0  0  0  0  0  3  0  0  0  0  0  0
  -18.0340   22.7580    9.7220 C   0  0  0  0  0  3  0  0  0  0  0  0
  -19.3780   22.8030    9.5080 F   0  0  0  0  0  0  0  0  0  0  0  0
  -17.8630   22.5150   11.0500 F   0  0  0  0  0  0  0  0  0  0  0  0
  1 13  1  0  0  0  0
  1 17  1  0  0  0  0
  2  1  2  0  0  0  0
  3 11  2  0  0  0  0
  3  2  1  0  0  0  0
  4  3  1  0  0  0  0
  5  6  1  0  0  0  0
  5  4  2  0  0  0  0
  6 10  1  0  0  0  0
  7  8  1  0  0  0  0
  7  6  2  0  0  0  0
  8  9  2  0  0  0  0
  9 10  1  0  0  0  0
  9 39  1  0  0  0  0
 10 11  1  0  0  0  0
 11 12  1  0  0  0  0
 12 13  2  0  0  0  0
 13 33  1  0  0  0  0
 14 19  1  0  0  0  0
 14 20  1  0  0  0  0
 15 14  2  0  0  0  0
 16 17  2  0  0  0  0
 16 15  1  0  0  0  0
 17 18  1  0  0  0  0
 18 19  2  0  0  0  0
 20 24  1  6  0  0  0
 20 23  1  0  0  0  0
 20 21  1  0  0  0  0
 21 22  1  0  0  0  0
 22 28  1  0  0  0  0
 22 31  1  1  0  0  0
 23 22  1  0  0  0  0
 24 25  1  0  0  0  0
 26 24  1  0  0  0  0
 27 24  1  0  0  0  0
 28 29  1  0  0  0  0
 30 28  1  0  0  0  0
 30 29  1  0  0  0  0
 32 31  1  0  0  0  0
 33 38  1  0  0  0  0
 34 33  2  0  0  0  0
 34 35  1  0  0  0  0
 35 36  2  0  0  0  0
 36 37  1  0  0  0  0
 38 37  2  0  0  0  0
 39 41  1  0  0  0  0
 40 39  1  0  0  0  0
M  END
>  <minimizedAffinity>
-9.04050255

$$$$
