
 OpenBabel11232420473D

 41 47  0  0  1  0  0  0  0  0999 V2000
  -18.3520   30.8920   14.0040 C   0  0  0  0  0  0  0  0  0  0  0  0
  -18.6900   30.7020   15.3070 N   0  0  0  0  0  0  0  0  0  0  0  0
  -18.6110   31.7630   16.1390 C   0  0  0  0  0  0  0  0  0  0  0  0
  -18.9690   31.4930   17.5310 C   0  0  0  0  0  3  0  0  0  0  0  0
  -18.9320   32.4740   18.4410 C   0  0  0  0  0  3  0  0  0  0  0  0
  -18.5500   33.7820   18.0590 C   0  0  0  0  0  0  0  0  0  0  0  0
  -18.4490   34.8760   18.7760 N   0  0  0  0  0  0  0  0  0  0  0  0
  -18.0520   35.8840   17.9480 N   0  0  0  0  0  0  0  0  0  0  0  0
  -17.9110   35.4000   16.7270 C   0  0  0  0  0  0  0  0  0  0  0  0
  -18.2080   34.0480   16.7350 N   0  0  0  0  0  0  0  0  0  0  0  0
  -18.2160   33.0390   15.7350 C   0  0  0  0  0  0  0  0  0  0  0  0
  -17.8740   33.2190   14.3980 C   0  0  0  0  0  3  0  0  0  0  0  0
  -17.9350   32.1360   13.4950 C   0  0  0  0  0  0  0  0  0  0  0  0
  -18.7710   27.2650   11.6480 C   0  0  0  0  0  0  0  0  0  0  0  0
  -19.8830   27.9620   12.1660 C   0  0  0  0  0  3  0  0  0  0  0  0
  -19.7410   29.1290   12.9250 C   0  0  0  0  0  3  0  0  0  0  0  0
  -18.4780   29.6690   13.1930 C   0  0  0  0  0  0  0  0  0  0  0  0
  -17.3620   28.9930   12.6900 C   0  0  0  0  0  3  0  0  0  0  0  0
  -17.5080   27.8180   11.9380 C   0  0  0  0  0  3  0  0  0  0  0  0
  -18.9480   25.9080   10.8360 C   0  0  1  0  0  0  0  0  0  0  0  0
  -17.9770   25.6340    9.6640 C   0  0  0  0  0  2  0  0  0  0  0  0
  -17.7480   24.1720   10.1670 C   0  0  1  0  0  0  0  0  0  0  0  0
  -18.5010   24.5740   11.4780 C   0  0  0  0  0  2  0  0  0  0  0  0
  -20.3700   25.8720   10.4130 N   0  0  0  0  0  4  0  0  0  0  0  0
  -20.6160   25.0340    9.8760 H   0  0  0  0  0  0  0  0  0  0  0  0
  -20.6080   26.6880    9.8330 H   0  0  0  0  0  0  0  0  0  0  0  0
  -20.9980   25.9110   11.2270 H   0  0  0  0  0  0  0  0  0  0  0  0
  -18.3440   23.0370    9.3220 C   0  0  0  0  0  3  0  0  0  0  0  0
  -17.5900   21.9980    8.5340 C   0  0  0  0  0  2  0  0  0  0  0  0
  -18.4340   21.5800    9.7010 C   0  0  0  0  0  2  0  0  0  0  0  0
  -16.3440   23.8950   10.4120 O   0  0  0  0  0  0  0  0  0  0  0  0
  -15.9780   24.6140   10.9550 H   0  0  0  0  0  0  0  0  0  0  0  0
  -17.5950   32.3610   12.0810 C   0  0  0  0  0  0  0  0  0  0  0  0
  -16.2550   32.3740   11.6600 C   0  0  0  0  0  3  0  0  0  0  0  0
  -15.9270   32.5990   10.3210 C   0  0  0  0  0  3  0  0  0  0  0  0
  -16.9340   32.8170    9.3830 C   0  0  0  0  0  3  0  0  0  0  0  0
  -18.2680   32.8160    9.7840 C   0  0  0  0  0  3  0  0  0  0  0  0
  -18.5960   32.5910   11.1230 C   0  0  0  0  0  3  0  0  0  0  0  0
  -17.5120   36.2150   15.5650 C   0  0  0  0  0  3  0  0  0  0  0  0
  -18.5280   37.0200   15.1490 F   0  0  0  0  0  0  0  0  0  0  0  0
  -16.4690   37.0350   15.8670 F   0  0  0  0  0  0  0  0  0  0  0  0
  1  2  1  0  0  0  0
  2  3  2  0  0  0  0
  3  4  1  0  0  0  0
  4  5  2  0  0  0  0
  6  5  1  0  0  0  0
  6  7  2  0  0  0  0
  8  7  1  0  0  0  0
  9 10  1  0  0  0  0
  9  8  2  0  0  0  0
 10  6  1  0  0  0  0
 11  3  1  0  0  0  0
 11 10  1  0  0  0  0
 12 11  2  0  0  0  0
 13  1  2  0  0  0  0
 13 12  1  0  0  0  0
 14 19  2  0  0  0  0
 14 15  1  0  0  0  0
 15 16  2  0  0  0  0
 16 17  1  0  0  0  0
 17  1  1  0  0  0  0
 18 17  2  0  0  0  0
 19 18  1  0  0  0  0
 20 24  1  6  0  0  0
 20 23  1  0  0  0  0
 20 14  1  0  0  0  0
 21 22  1  0  0  0  0
 21 20  1  0  0  0  0
 22 31  1  1  0  0  0
 22 23  1  0  0  0  0
 24 27  1  0  0  0  0
 25 24  1  0  0  0  0
 26 24  1  0  0  0  0
 28 30  1  0  0  0  0
 28 22  1  0  0  0  0
 29 28  1  0  0  0  0
 29 30  1  0  0  0  0
 31 32  1  0  0  0  0
 33 13  1  0  0  0  0
 34 33  1  0  0  0  0
 35 34  2  0  0  0  0
 36 37  2  0  0  0  0
 36 35  1  0  0  0  0
 37 38  1  0  0  0  0
 38 33  2  0  0  0  0
 39 41  1  0  0  0  0
 39  9  1  0  0  0  0
 40 39  1  0  0  0  0
M  END
>  <minimizedAffinity>
-10.1836739

$$$$
