
 OpenBabel11232420473D

 41 47  0  0  1  0  0  0  0  0999 V2000
  -19.1660   24.4540   11.3190 C   0  0  0  0  0  0  0  0  0  0  0  0
  -20.0870   23.6990   11.9740 N   0  0  0  0  0  0  0  0  0  0  0  0
  -20.1250   22.3760   11.7030 C   0  0  0  0  0  0  0  0  0  0  0  0
  -21.1480   21.6190   12.4240 C   0  0  0  0  0  3  0  0  0  0  0  0
  -21.2710   20.2990   12.2370 C   0  0  0  0  0  3  0  0  0  0  0  0
  -20.4060   19.6270   11.3420 C   0  0  0  0  0  0  0  0  0  0  0  0
  -20.3500   18.3580   11.0140 N   0  0  0  0  0  0  0  0  0  0  0  0
  -19.3360   18.2010   10.1160 N   0  0  0  0  0  0  0  0  0  0  0  0
  -18.7770   19.3780    9.8980 C   0  0  0  0  0  0  0  0  0  0  0  0
  -19.4280   20.3400   10.6510 N   0  0  0  0  0  0  0  0  0  0  0  0
  -19.2670   21.7430   10.8030 C   0  0  0  0  0  0  0  0  0  0  0  0
  -18.3290   22.5290   10.1400 C   0  0  0  0  0  3  0  0  0  0  0  0
  -18.2590   23.9160   10.3880 C   0  0  0  0  0  0  0  0  0  0  0  0
  -19.2720   28.6430   12.4700 C   0  0  0  0  0  0  0  0  0  0  0  0
  -18.0680   27.9100   12.3900 C   0  0  0  0  0  3  0  0  0  0  0  0
  -18.0410   26.5610   12.0210 C   0  0  0  0  0  3  0  0  0  0  0  0
  -19.2170   25.8770   11.6950 C   0  0  0  0  0  0  0  0  0  0  0  0
  -20.4220   26.5830   11.7680 C   0  0  0  0  0  3  0  0  0  0  0  0
  -20.4460   27.9330   12.1490 C   0  0  0  0  0  3  0  0  0  0  0  0
  -19.2890   30.1600   12.9480 C   0  0  1  0  0  0  0  0  0  0  0  0
  -20.3420   31.1040   12.3210 C   0  0  0  0  0  2  0  0  0  0  0  0
  -20.7100   31.6670   13.7330 C   0  0  1  0  0  0  0  0  0  0  0  0
  -19.8530   30.5100   14.3450 C   0  0  0  0  0  2  0  0  0  0  0  0
  -17.9040   30.6580   12.7670 N   0  0  0  0  0  4  0  0  0  0  0  0
  -17.7800   31.6370   13.0460 H   0  0  0  0  0  0  0  0  0  0  0  0
  -17.6030   30.5780   11.7860 H   0  0  0  0  0  0  0  0  0  0  0  0
  -17.2360   30.0960   13.3130 H   0  0  0  0  0  0  0  0  0  0  0  0
  -20.2880   33.1090   14.0460 C   0  0  0  0  0  3  0  0  0  0  0  0
  -19.0640   33.5530   14.8060 C   0  0  0  0  0  2  0  0  0  0  0  0
  -19.2090   33.9040   13.3550 C   0  0  0  0  0  2  0  0  0  0  0  0
  -22.1220   31.5090   14.0290 O   0  0  0  0  0  0  0  0  0  0  0  0
  -22.3770   30.5910   13.8360 H   0  0  0  0  0  0  0  0  0  0  0  0
  -17.2380   24.7170    9.6940 C   0  0  0  0  0  0  0  0  0  0  0  0
  -15.8710   24.4810    9.9130 C   0  0  0  0  0  3  0  0  0  0  0  0
  -14.8980   25.2470    9.2650 C   0  0  0  0  0  3  0  0  0  0  0  0
  -15.2790   26.2630    8.3900 C   0  0  0  0  0  3  0  0  0  0  0  0
  -16.6300   26.5170    8.1670 C   0  0  0  0  0  3  0  0  0  0  0  0
  -17.6020   25.7510    8.8160 C   0  0  0  0  0  3  0  0  0  0  0  0
  -17.6300   19.5840    8.9950 C   0  0  0  0  0  3  0  0  0  0  0  0
  -17.0770   18.4000    8.6150 F   0  0  0  0  0  0  0  0  0  0  0  0
  -18.0040   20.2200    7.8510 F   0  0  0  0  0  0  0  0  0  0  0  0
  1 17  1  0  0  0  0
  1  2  1  0  0  0  0
  3  2  2  0  0  0  0
  3  4  1  0  0  0  0
  5  4  2  0  0  0  0
  6  5  1  0  0  0  0
  7  6  2  0  0  0  0
  8  7  1  0  0  0  0
  9  8  2  0  0  0  0
  9 10  1  0  0  0  0
 10 11  1  0  0  0  0
 10  6  1  0  0  0  0
 11  3  1  0  0  0  0
 12 13  1  0  0  0  0
 12 11  2  0  0  0  0
 13  1  2  0  0  0  0
 14 20  1  0  0  0  0
 15 14  1  0  0  0  0
 16 15  2  0  0  0  0
 17 18  2  0  0  0  0
 17 16  1  0  0  0  0
 18 19  1  0  0  0  0
 19 14  2  0  0  0  0
 20 24  1  6  0  0  0
 20 23  1  0  0  0  0
 21 20  1  0  0  0  0
 21 22  1  0  0  0  0
 22 31  1  1  0  0  0
 22 28  1  0  0  0  0
 22 23  1  0  0  0  0
 24 25  1  0  0  0  0
 24 27  1  0  0  0  0
 26 24  1  0  0  0  0
 28 29  1  0  0  0  0
 30 28  1  0  0  0  0
 30 29  1  0  0  0  0
 32 31  1  0  0  0  0
 33 34  1  0  0  0  0
 33 13  1  0  0  0  0
 35 34  2  0  0  0  0
 36 35  1  0  0  0  0
 37 36  2  0  0  0  0
 37 38  1  0  0  0  0
 38 33  2  0  0  0  0
 39  9  1  0  0  0  0
 40 39  1  0  0  0  0
 41 39  1  0  0  0  0
M  END
>  <minimizedAffinity>
-9.26925468

$$$$
