
 OpenBabel10152419303D

 30 33  0  0  0  0  0  0  0  0999 V2000
   -0.9580  -10.9180  -22.6280 C   0  0  0  0  0  0  0  0  0  0  0  0
   -0.4410   -9.9600  -23.4260 N   0  0  0  0  0  0  0  0  0  0  0  0
   -0.7800   -8.6910  -23.1650 C   0  0  0  0  0  0  0  0  0  0  0  0
   -0.2050   -7.6330  -23.8610 N   0  0  0  0  0  0  0  0  0  0  0  0
   -1.6130   -8.3440  -22.1690 N   0  0  0  0  0  0  0  0  0  0  0  0
   -2.1050   -9.3380  -21.3940 C   0  0  0  0  0  3  0  0  0  0  0  0
   -1.7950  -10.6640  -21.5640 C   0  0  0  0  0  0  0  0  0  0  0  0
   -2.4100  -11.8620  -20.5080 Cl  0  0  0  0  0  0  0  0  0  0  0  0
   -0.4570   -6.7550  -23.4350 H   0  0  0  0  0  0  0  0  0  0  0  0
    0.6750   -7.6010  -24.9460 C   0  0  0  0  0  0  0  0  0  0  0  0
    1.8120   -8.4210  -24.9230 C   0  0  0  0  0  3  0  0  0  0  0  0
    2.6730   -8.5030  -26.0260 C   0  0  0  0  0  3  0  0  0  0  0  0
    2.4230   -7.7510  -27.1790 C   0  0  0  0  0  0  0  0  0  0  0  0
    1.3060   -6.9090  -27.1960 C   0  0  0  0  0  3  0  0  0  0  0  0
    0.4350   -6.8530  -26.1020 C   0  0  0  0  0  3  0  0  0  0  0  0
    3.2790   -7.8310  -28.3530 C   0  0  0  0  0  0  0  0  0  0  0  0
    4.1240   -8.7910  -28.6790 N   0  0  0  0  0  0  0  0  0  0  0  0
    4.7220   -8.4040  -29.8540 N   0  0  0  0  0  0  0  0  0  0  0  0
    4.2800   -7.2190  -30.2440 N   0  0  0  0  0  0  0  0  0  0  0  0
    3.3910   -6.8580  -29.3080 N   0  0  0  0  0  0  0  0  0  0  0  0
    2.9420   -5.9540  -29.3660 H   0  0  0  0  0  0  0  0  0  0  0  0
   -0.4750  -12.1880  -22.8510 O   0  0  0  0  0  0  0  0  0  0  0  0
    2.4540  -12.6200  -25.8040 C   0  0  0  0  0  0  0  0  0  0  0  0
    1.0900  -12.6620  -26.0940 C   0  0  0  0  0  3  0  0  0  0  0  0
    0.1460  -12.5220  -25.0760 C   0  0  0  0  0  3  0  0  0  0  0  0
    0.5530  -12.3450  -23.7520 C   0  0  0  0  0  0  0  0  0  0  0  0
    1.9180  -12.3340  -23.4550 C   0  0  0  0  0  3  0  0  0  0  0  0
    2.8650  -12.4650  -24.4800 C   0  0  0  0  0  3  0  0  0  0  0  0
    4.3140  -11.7920  -27.0290 C   0  0  0  0  0  1  0  0  0  0  0  0
    3.2720  -12.7490  -26.8920 O   0  0  0  0  0  0  0  0  0  0  0  0
  1  7  1  0  0  0  0
  2  3  1  0  0  0  0
  2  1  2  0  0  0  0
  3  5  2  0  0  0  0
  4  9  1  0  0  0  0
  4  3  1  0  0  0  0
  5  6  1  0  0  0  0
  7  6  2  0  0  0  0
  7  8  1  0  0  0  0
 10 11  1  0  0  0  0
 10  4  1  0  0  0  0
 12 11  2  0  0  0  0
 13 12  1  0  0  0  0
 14 13  2  0  0  0  0
 14 15  1  0  0  0  0
 15 10  2  0  0  0  0
 16 13  1  0  0  0  0
 17 16  2  0  0  0  0
 18 17  1  0  0  0  0
 19 18  2  0  0  0  0
 19 20  1  0  0  0  0
 20 16  1  0  0  0  0
 21 20  1  0  0  0  0
 22  1  1  0  0  0  0
 23 28  1  0  0  0  0
 24 23  2  0  0  0  0
 24 25  1  0  0  0  0
 25 26  2  0  0  0  0
 26 27  1  0  0  0  0
 26 22  1  0  0  0  0
 28 27  2  0  0  0  0
 29 30  1  0  0  0  0
 30 23  1  0  0  0  0
M  END
>  <minimizedAffinity>
-8.18361759

$$$$
