
 OpenBabel10152419303D

 30 33  0  0  0  0  0  0  0  0999 V2000
   -0.7220  -10.9980  -22.1850 C   0  0  0  0  0  0  0  0  0  0  0  0
   -0.8870   -9.7830  -22.7510 N   0  0  0  0  0  0  0  0  0  0  0  0
   -1.8200   -8.9800  -22.2260 C   0  0  0  0  0  0  0  0  0  0  0  0
   -1.9790   -7.6720  -22.6690 N   0  0  0  0  0  0  0  0  0  0  0  0
   -2.5970   -9.3380  -21.1880 N   0  0  0  0  0  0  0  0  0  0  0  0
   -2.3940  -10.5630  -20.6520 C   0  0  0  0  0  3  0  0  0  0  0  0
   -1.4440  -11.4460  -21.1010 C   0  0  0  0  0  0  0  0  0  0  0  0
   -1.2050  -12.9580  -20.3360 Cl  0  0  0  0  0  0  0  0  0  0  0  0
   -2.6140   -7.1710  -22.0660 H   0  0  0  0  0  0  0  0  0  0  0  0
   -1.3760   -6.9620  -23.7110 C   0  0  0  0  0  0  0  0  0  0  0  0
   -1.6340   -7.3470  -25.0340 C   0  0  0  0  0  3  0  0  0  0  0  0
   -1.1360   -6.6110  -26.1170 C   0  0  0  0  0  3  0  0  0  0  0  0
   -0.3520   -5.4720  -25.9000 C   0  0  0  0  0  0  0  0  0  0  0  0
   -0.0680   -5.0990  -24.5820 C   0  0  0  0  0  3  0  0  0  0  0  0
   -0.5910   -5.8240  -23.5050 C   0  0  0  0  0  3  0  0  0  0  0  0
    0.1580   -4.6660  -27.0000 C   0  0  0  0  0  0  0  0  0  0  0  0
    0.0600   -3.3600  -27.1640 N   0  0  0  0  0  0  0  0  0  0  0  0
    0.6660   -3.0710  -28.3630 N   0  0  0  0  0  0  0  0  0  0  0  0
    1.1130   -4.1720  -28.9470 N   0  0  0  0  0  0  0  0  0  0  0  0
    0.7900   -5.1630  -28.1060 N   0  0  0  0  0  0  0  0  0  0  0  0
    0.9940   -6.1200  -28.3590 H   0  0  0  0  0  0  0  0  0  0  0  0
    0.3370  -11.7300  -22.6720 O   0  0  0  0  0  0  0  0  0  0  0  0
    2.5650  -10.3810  -25.9440 C   0  0  0  0  0  0  0  0  0  0  0  0
    2.3390  -11.7370  -25.7030 C   0  0  0  0  0  3  0  0  0  0  0  0
    1.5970  -12.1440  -24.5930 C   0  0  0  0  0  3  0  0  0  0  0  0
    1.0760  -11.2000  -23.7050 C   0  0  0  0  0  0  0  0  0  0  0  0
    1.3280   -9.8440  -23.9270 C   0  0  0  0  0  3  0  0  0  0  0  0
    2.0660   -9.4370  -25.0470 C   0  0  0  0  0  3  0  0  0  0  0  0
    3.9900   -8.8810  -27.1110 C   0  0  0  0  0  1  0  0  0  0  0  0
    3.2890  -10.1160  -27.0730 O   0  0  0  0  0  0  0  0  0  0  0  0
  1  7  1  0  0  0  0
  2  3  1  0  0  0  0
  2  1  2  0  0  0  0
  3  5  2  0  0  0  0
  4  3  1  0  0  0  0
  4  9  1  0  0  0  0
  5  6  1  0  0  0  0
  7  6  2  0  0  0  0
  7  8  1  0  0  0  0
 10 15  1  0  0  0  0
 10  4  1  0  0  0  0
 11 10  2  0  0  0  0
 12 13  2  0  0  0  0
 12 11  1  0  0  0  0
 13 14  1  0  0  0  0
 14 15  2  0  0  0  0
 16 13  1  0  0  0  0
 17 16  2  0  0  0  0
 18 17  1  0  0  0  0
 19 18  2  0  0  0  0
 19 20  1  0  0  0  0
 20 16  1  0  0  0  0
 21 20  1  0  0  0  0
 22  1  1  0  0  0  0
 23 24  2  0  0  0  0
 23 28  1  0  0  0  0
 24 25  1  0  0  0  0
 25 26  2  0  0  0  0
 26 22  1  0  0  0  0
 27 26  1  0  0  0  0
 28 27  2  0  0  0  0
 29 30  1  0  0  0  0
 30 23  1  0  0  0  0
M  END
>  <minimizedAffinity>
-8.15708542

$$$$
