
 OpenBabel10152419303D

 30 33  0  0  0  0  0  0  0  0999 V2000
    2.5280   -8.2190  -26.7030 C   0  0  0  0  0  0  0  0  0  0  0  0
    2.1230   -9.2150  -25.8870 N   0  0  0  0  0  0  0  0  0  0  0  0
    2.9240  -10.2800  -25.7680 C   0  0  0  0  0  0  0  0  0  0  0  0
    2.6440  -11.2970  -24.8630 N   0  0  0  0  0  0  0  0  0  0  0  0
    4.0870  -10.4010  -26.4330 N   0  0  0  0  0  0  0  0  0  0  0  0
    4.4530   -9.3780  -27.2380 C   0  0  0  0  0  3  0  0  0  0  0  0
    3.7140   -8.2340  -27.4040 C   0  0  0  0  0  0  0  0  0  0  0  0
    4.2690   -6.9540  -28.3950 Cl  0  0  0  0  0  0  0  0  0  0  0  0
    3.4230  -11.9350  -24.7980 H   0  0  0  0  0  0  0  0  0  0  0  0
    1.5490  -11.5210  -24.0240 C   0  0  0  0  0  0  0  0  0  0  0  0
    1.4730  -12.7260  -23.3120 C   0  0  0  0  0  3  0  0  0  0  0  0
    0.4510  -12.9590  -22.3820 C   0  0  0  0  0  3  0  0  0  0  0  0
   -0.5330  -11.9920  -22.1510 C   0  0  0  0  0  0  0  0  0  0  0  0
   -0.4780  -10.7990  -22.8800 C   0  0  0  0  0  3  0  0  0  0  0  0
    0.5600  -10.5610  -23.7870 C   0  0  0  0  0  3  0  0  0  0  0  0
   -1.5930  -12.1880  -21.1730 C   0  0  0  0  0  0  0  0  0  0  0  0
   -1.6530  -11.7290  -19.9370 N   0  0  0  0  0  0  0  0  0  0  0  0
   -2.8270  -12.2020  -19.4010 N   0  0  0  0  0  0  0  0  0  0  0  0
   -3.4760  -12.9590  -20.2730 N   0  0  0  0  0  0  0  0  0  0  0  0
   -2.7060  -12.9580  -21.3690 N   0  0  0  0  0  0  0  0  0  0  0  0
   -2.9770  -13.5110  -22.1710 H   0  0  0  0  0  0  0  0  0  0  0  0
    1.7380   -7.0920  -26.6870 O   0  0  0  0  0  0  0  0  0  0  0  0
   -1.7000   -7.2400  -24.3100 C   0  0  0  0  0  0  0  0  0  0  0  0
   -1.6520   -7.7950  -25.5890 C   0  0  0  0  0  3  0  0  0  0  0  0
   -0.4860   -7.7150  -26.3530 C   0  0  0  0  0  3  0  0  0  0  0  0
    0.6470   -7.0720  -25.8490 C   0  0  0  0  0  0  0  0  0  0  0  0
    0.5920   -6.4880  -24.5810 C   0  0  0  0  0  3  0  0  0  0  0  0
   -0.5770   -6.5780  -23.8120 C   0  0  0  0  0  3  0  0  0  0  0  0
   -2.8510   -8.0470  -22.3950 C   0  0  0  0  0  1  0  0  0  0  0  0
   -2.8920   -7.4040  -23.6620 O   0  0  0  0  0  0  0  0  0  0  0  0
  1 22  1  0  0  0  0
  1  2  2  0  0  0  0
  2  3  1  0  0  0  0
  3  4  1  0  0  0  0
  4  9  1  0  0  0  0
  4 10  1  0  0  0  0
  5  3  2  0  0  0  0
  6  5  1  0  0  0  0
  7  6  2  0  0  0  0
  7  1  1  0  0  0  0
  8  7  1  0  0  0  0
 10 15  2  0  0  0  0
 10 11  1  0  0  0  0
 11 12  2  0  0  0  0
 12 13  1  0  0  0  0
 13 16  1  0  0  0  0
 14 13  2  0  0  0  0
 15 14  1  0  0  0  0
 16 17  2  0  0  0  0
 17 18  1  0  0  0  0
 19 18  2  0  0  0  0
 20 16  1  0  0  0  0
 20 19  1  0  0  0  0
 21 20  1  0  0  0  0
 22 26  1  0  0  0  0
 23 28  1  0  0  0  0
 23 30  1  0  0  0  0
 24 23  2  0  0  0  0
 25 26  2  0  0  0  0
 25 24  1  0  0  0  0
 26 27  1  0  0  0  0
 27 28  2  0  0  0  0
 30 29  1  0  0  0  0
M  END
>  <minimizedAffinity>
-9.7617588

$$$$

 OpenBabel10152419303D

 30 33  0  0  0  0  0  0  0  0999 V2000
    1.1310   -6.8130  -26.3080 C   0  0  0  0  0  0  0  0  0  0  0  0
    0.3050   -7.3540  -25.3880 N   0  0  0  0  0  0  0  0  0  0  0  0
   -0.9610   -6.9220  -25.3650 C   0  0  0  0  0  0  0  0  0  0  0  0
   -1.9080   -7.5050  -24.5310 N   0  0  0  0  0  0  0  0  0  0  0  0
   -1.4270   -5.9730  -26.1960 N   0  0  0  0  0  0  0  0  0  0  0  0
   -0.5640   -5.4610  -27.1020 C   0  0  0  0  0  3  0  0  0  0  0  0
    0.7430   -5.8580  -27.2230 C   0  0  0  0  0  0  0  0  0  0  0  0
    1.7620   -5.2060  -28.4330 Cl  0  0  0  0  0  0  0  0  0  0  0  0
   -2.8310   -7.1620  -24.7520 H   0  0  0  0  0  0  0  0  0  0  0  0
   -1.8000   -8.4880  -23.5430 C   0  0  0  0  0  0  0  0  0  0  0  0
   -2.0850   -8.1500  -22.2130 C   0  0  0  0  0  3  0  0  0  0  0  0
   -2.0890   -9.1180  -21.2010 C   0  0  0  0  0  3  0  0  0  0  0  0
   -1.7930  -10.4540  -21.4950 C   0  0  0  0  0  0  0  0  0  0  0  0
   -1.4800  -10.7920  -22.8150 C   0  0  0  0  0  3  0  0  0  0  0  0
   -1.5040   -9.8250  -23.8260 C   0  0  0  0  0  3  0  0  0  0  0  0
   -1.8150  -11.4920  -20.4740 C   0  0  0  0  0  0  0  0  0  0  0  0
   -2.8670  -12.0670  -19.9220 N   0  0  0  0  0  0  0  0  0  0  0  0
   -2.3840  -12.9580  -18.9950 N   0  0  0  0  0  0  0  0  0  0  0  0
   -1.0610  -12.9260  -18.9490 N   0  0  0  0  0  0  0  0  0  0  0  0
   -0.7080  -12.0090  -19.8600 N   0  0  0  0  0  0  0  0  0  0  0  0
    0.2680  -11.7740  -19.9810 H   0  0  0  0  0  0  0  0  0  0  0  0
    2.3810   -7.3850  -26.3810 O   0  0  0  0  0  0  0  0  0  0  0  0
    2.5330  -11.4490  -25.4050 C   0  0  0  0  0  0  0  0  0  0  0  0
    1.9620  -10.4990  -24.5580 C   0  0  0  0  0  3  0  0  0  0  0  0
    1.9400   -9.1500  -24.9190 C   0  0  0  0  0  3  0  0  0  0  0  0
    2.4960   -8.7340  -26.1300 C   0  0  0  0  0  0  0  0  0  0  0  0
    3.0960   -9.6780  -26.9660 C   0  0  0  0  0  3  0  0  0  0  0  0
    3.1090  -11.0330  -26.6050 C   0  0  0  0  0  3  0  0  0  0  0  0
    2.0780  -12.9110  -23.5890 C   0  0  0  0  0  1  0  0  0  0  0  0
    2.4710  -12.7340  -24.9430 O   0  0  0  0  0  0  0  0  0  0  0  0
  1  2  2  0  0  0  0
  2  3  1  0  0  0  0
  3  4  1  0  0  0  0
  4 10  1  0  0  0  0
  5  3  2  0  0  0  0
  6  5  1  0  0  0  0
  7  6  2  0  0  0  0
  7  1  1  0  0  0  0
  8  7  1  0  0  0  0
  9  4  1  0  0  0  0
 10 11  1  0  0  0  0
 11 12  2  0  0  0  0
 13 12  1  0  0  0  0
 13 16  1  0  0  0  0
 14 13  2  0  0  0  0
 15 10  2  0  0  0  0
 15 14  1  0  0  0  0
 16 17  2  0  0  0  0
 16 20  1  0  0  0  0
 17 18  1  0  0  0  0
 18 19  2  0  0  0  0
 20 19  1  0  0  0  0
 21 20  1  0  0  0  0
 22  1  1  0  0  0  0
 22 26  1  0  0  0  0
 23 30  1  0  0  0  0
 23 24  1  0  0  0  0
 25 24  2  0  0  0  0
 26 25  1  0  0  0  0
 27 28  1  0  0  0  0
 27 26  2  0  0  0  0
 28 23  2  0  0  0  0
 30 29  1  0  0  0  0
M  END
>  <minimizedAffinity>
-8.903759

$$$$

 OpenBabel10152419303D

 30 33  0  0  0  0  0  0  0  0999 V2000
    3.0750   -7.8440  -27.5630 C   0  0  0  0  0  0  0  0  0  0  0  0
    2.0070   -7.4450  -26.8400 N   0  0  0  0  0  0  0  0  0  0  0  0
    1.2390   -6.4780  -27.3550 C   0  0  0  0  0  0  0  0  0  0  0  0
    0.0570   -6.0880  -26.7350 N   0  0  0  0  0  0  0  0  0  0  0  0
    1.4970   -5.8870  -28.5350 N   0  0  0  0  0  0  0  0  0  0  0  0
    2.5760   -6.3200  -29.2250 C   0  0  0  0  0  3  0  0  0  0  0  0
    3.4070   -7.3230  -28.7950 C   0  0  0  0  0  0  0  0  0  0  0  0
    4.7220   -7.8580  -29.7500 Cl  0  0  0  0  0  0  0  0  0  0  0  0
   -0.4640   -5.4650  -27.3330 H   0  0  0  0  0  0  0  0  0  0  0  0
   -0.5230   -6.4590  -25.5190 C   0  0  0  0  0  0  0  0  0  0  0  0
   -1.3830   -7.5660  -25.4870 C   0  0  0  0  0  3  0  0  0  0  0  0
   -1.9120   -8.0420  -24.2800 C   0  0  0  0  0  3  0  0  0  0  0  0
   -1.6020   -7.4100  -23.0710 C   0  0  0  0  0  0  0  0  0  0  0  0
   -0.7680   -6.2880  -23.1010 C   0  0  0  0  0  3  0  0  0  0  0  0
   -0.2210   -5.8340  -24.3060 C   0  0  0  0  0  3  0  0  0  0  0  0
   -2.1110   -7.8930  -21.7950 C   0  0  0  0  0  0  0  0  0  0  0  0
   -2.3460   -9.1400  -21.4340 N   0  0  0  0  0  0  0  0  0  0  0  0
   -2.8450   -9.0890  -20.1550 N   0  0  0  0  0  0  0  0  0  0  0  0
   -2.9440   -7.8380  -19.7330 N   0  0  0  0  0  0  0  0  0  0  0  0
   -2.4970   -7.0940  -20.7540 N   0  0  0  0  0  0  0  0  0  0  0  0
   -2.5140   -6.0860  -20.6840 H   0  0  0  0  0  0  0  0  0  0  0  0
    3.7530   -8.9290  -27.0560 O   0  0  0  0  0  0  0  0  0  0  0  0
    1.4100  -11.8590  -25.2080 C   0  0  0  0  0  0  0  0  0  0  0  0
    1.6270  -10.6060  -24.6350 C   0  0  0  0  0  3  0  0  0  0  0  0
    2.4240   -9.6600  -25.2820 C   0  0  0  0  0  3  0  0  0  0  0  0
    3.0200   -9.9580  -26.5090 C   0  0  0  0  0  0  0  0  0  0  0  0
    2.8310  -11.2230  -27.0700 C   0  0  0  0  0  3  0  0  0  0  0  0
    2.0230  -12.1690  -26.4220 C   0  0  0  0  0  3  0  0  0  0  0  0
   -0.5070  -12.0790  -23.8230 C   0  0  0  0  0  1  0  0  0  0  0  0
    0.5960  -12.6840  -24.4830 O   0  0  0  0  0  0  0  0  0  0  0  0
  1 22  1  0  0  0  0
  1  2  2  0  0  0  0
  3  2  1  0  0  0  0
  3  4  1  0  0  0  0
  4 10  1  0  0  0  0
  5  3  2  0  0  0  0
  6  7  2  0  0  0  0
  6  5  1  0  0  0  0
  7  1  1  0  0  0  0
  8  7  1  0  0  0  0
  9  4  1  0  0  0  0
 10 11  2  0  0  0  0
 10 15  1  0  0  0  0
 11 12  1  0  0  0  0
 12 13  2  0  0  0  0
 13 16  1  0  0  0  0
 14 13  1  0  0  0  0
 15 14  2  0  0  0  0
 16 17  2  0  0  0  0
 16 20  1  0  0  0  0
 17 18  1  0  0  0  0
 18 19  2  0  0  0  0
 20 21  1  0  0  0  0
 20 19  1  0  0  0  0
 22 26  1  0  0  0  0
 23 24  1  0  0  0  0
 23 30  1  0  0  0  0
 25 24  2  0  0  0  0
 26 25  1  0  0  0  0
 27 26  2  0  0  0  0
 27 28  1  0  0  0  0
 28 23  2  0  0  0  0
 30 29  1  0  0  0  0
M  END
>  <minimizedAffinity>
-8.38541412

$$$$

 OpenBabel10152419303D

 30 33  0  0  0  0  0  0  0  0999 V2000
   -1.1890   -9.0520  -23.2320 C   0  0  0  0  0  0  0  0  0  0  0  0
   -0.4970   -8.3590  -24.1610 N   0  0  0  0  0  0  0  0  0  0  0  0
   -0.5700   -7.0230  -24.1160 C   0  0  0  0  0  0  0  0  0  0  0  0
    0.2000   -6.2290  -24.9580 N   0  0  0  0  0  0  0  0  0  0  0  0
   -1.3070   -6.3590  -23.2080 N   0  0  0  0  0  0  0  0  0  0  0  0
   -1.9810   -7.0950  -22.2950 C   0  0  0  0  0  3  0  0  0  0  0  0
   -1.9470   -8.4650  -22.2430 C   0  0  0  0  0  0  0  0  0  0  0  0
   -2.7810   -9.3290  -21.0220 Cl  0  0  0  0  0  0  0  0  0  0  0  0
    0.1340   -5.2600  -24.6850 H   0  0  0  0  0  0  0  0  0  0  0  0
    1.0580   -6.5500  -26.0130 C   0  0  0  0  0  0  0  0  0  0  0  0
    1.9730   -7.5990  -25.8500 C   0  0  0  0  0  3  0  0  0  0  0  0
    2.7860   -8.0280  -26.9080 C   0  0  0  0  0  3  0  0  0  0  0  0
    2.7110   -7.4040  -28.1580 C   0  0  0  0  0  0  0  0  0  0  0  0
    1.8210   -6.3380  -28.3180 C   0  0  0  0  0  3  0  0  0  0  0  0
    0.9920   -5.9320  -27.2660 C   0  0  0  0  0  3  0  0  0  0  0  0
    3.5200   -7.8410  -29.2870 C   0  0  0  0  0  0  0  0  0  0  0  0
    3.9940   -9.0480  -29.5290 N   0  0  0  0  0  0  0  0  0  0  0  0
    4.7190   -8.9580  -30.6920 N   0  0  0  0  0  0  0  0  0  0  0  0
    4.7190   -7.7180  -31.1570 N   0  0  0  0  0  0  0  0  0  0  0  0
    3.9830   -7.0220  -30.2810 N   0  0  0  0  0  0  0  0  0  0  0  0
    3.8710   -6.0250  -30.4020 H   0  0  0  0  0  0  0  0  0  0  0  0
   -0.9740  -10.4110  -23.2380 O   0  0  0  0  0  0  0  0  0  0  0  0
    2.0000  -11.9790  -25.7240 C   0  0  0  0  0  0  0  0  0  0  0  0
    2.2840  -11.4400  -24.4690 C   0  0  0  0  0  3  0  0  0  0  0  0
    1.2610  -10.9190  -23.6750 C   0  0  0  0  0  3  0  0  0  0  0  0
   -0.0590  -10.9240  -24.1290 C   0  0  0  0  0  0  0  0  0  0  0  0
   -0.3420  -11.4340  -25.3980 C   0  0  0  0  0  3  0  0  0  0  0  0
    0.6850  -11.9650  -26.1910 C   0  0  0  0  0  3  0  0  0  0  0  0
    4.2320  -11.6350  -26.4610 C   0  0  0  0  0  1  0  0  0  0  0  0
    3.0870  -12.4730  -26.3910 O   0  0  0  0  0  0  0  0  0  0  0  0
  1  7  1  0  0  0  0
  2  3  1  0  0  0  0
  2  1  2  0  0  0  0
  3  5  2  0  0  0  0
  4  9  1  0  0  0  0
  4  3  1  0  0  0  0
  5  6  1  0  0  0  0
  6  7  2  0  0  0  0
  7  8  1  0  0  0  0
 10 11  1  0  0  0  0
 10  4  1  0  0  0  0
 12 11  2  0  0  0  0
 13 12  1  0  0  0  0
 14 13  2  0  0  0  0
 14 15  1  0  0  0  0
 15 10  2  0  0  0  0
 16 13  1  0  0  0  0
 17 16  2  0  0  0  0
 18 17  1  0  0  0  0
 19 18  2  0  0  0  0
 19 20  1  0  0  0  0
 20 16  1  0  0  0  0
 21 20  1  0  0  0  0
 22  1  1  0  0  0  0
 23 24  1  0  0  0  0
 24 25  2  0  0  0  0
 26 25  1  0  0  0  0
 26 22  1  0  0  0  0
 27 26  2  0  0  0  0
 28 23  2  0  0  0  0
 28 27  1  0  0  0  0
 29 30  1  0  0  0  0
 30 23  1  0  0  0  0
M  END
>  <minimizedAffinity>
-8.24540806

$$$$

 OpenBabel10152419303D

 30 33  0  0  0  0  0  0  0  0999 V2000
    1.2800   -7.1290  -25.9150 C   0  0  0  0  0  0  0  0  0  0  0  0
    0.3360   -7.6910  -25.1300 N   0  0  0  0  0  0  0  0  0  0  0  0
   -0.9420   -7.3860  -25.3870 C   0  0  0  0  0  0  0  0  0  0  0  0
   -1.9830   -8.0070  -24.7060 N   0  0  0  0  0  0  0  0  0  0  0  0
   -1.3120   -6.5440  -26.3680 N   0  0  0  0  0  0  0  0  0  0  0  0
   -0.3320   -6.0080  -27.1300 C   0  0  0  0  0  3  0  0  0  0  0  0
    1.0020   -6.2790  -26.9630 C   0  0  0  0  0  0  0  0  0  0  0  0
    2.1830   -5.6080  -28.0030 Cl  0  0  0  0  0  0  0  0  0  0  0  0
   -2.8690   -7.7730  -25.1290 H   0  0  0  0  0  0  0  0  0  0  0  0
   -1.9910   -8.9090  -23.6390 C   0  0  0  0  0  0  0  0  0  0  0  0
   -1.4770  -10.1980  -23.8350 C   0  0  0  0  0  3  0  0  0  0  0  0
   -1.3690  -11.1080  -22.7750 C   0  0  0  0  0  3  0  0  0  0  0  0
   -1.7860  -10.7510  -21.4880 C   0  0  0  0  0  0  0  0  0  0  0  0
   -2.3270   -9.4770  -21.2920 C   0  0  0  0  0  3  0  0  0  0  0  0
   -2.4070   -8.5630  -22.3500 C   0  0  0  0  0  3  0  0  0  0  0  0
   -1.6630  -11.6600  -20.3570 C   0  0  0  0  0  0  0  0  0  0  0  0
   -2.6290  -12.2020  -19.6410 N   0  0  0  0  0  0  0  0  0  0  0  0
   -2.0190  -12.9580  -18.6700 N   0  0  0  0  0  0  0  0  0  0  0  0
   -0.7010  -12.8740  -18.7600 N   0  0  0  0  0  0  0  0  0  0  0  0
   -0.4790  -12.0610  -19.8020 N   0  0  0  0  0  0  0  0  0  0  0  0
    0.4690  -11.8070  -20.0460 H   0  0  0  0  0  0  0  0  0  0  0  0
    2.5630   -7.5780  -25.6970 O   0  0  0  0  0  0  0  0  0  0  0  0
    3.7620  -10.8950  -27.9440 C   0  0  0  0  0  0  0  0  0  0  0  0
    2.8430  -10.9940  -26.8980 C   0  0  0  0  0  3  0  0  0  0  0  0
    2.4780   -9.8620  -26.1680 C   0  0  0  0  0  3  0  0  0  0  0  0
    3.0310   -8.6160  -26.4700 C   0  0  0  0  0  0  0  0  0  0  0  0
    3.9740   -8.5190  -27.4960 C   0  0  0  0  0  3  0  0  0  0  0  0
    4.3330   -9.6560  -28.2340 C   0  0  0  0  0  3  0  0  0  0  0  0
    3.7900  -12.0970  -29.9930 C   0  0  0  0  0  1  0  0  0  0  0  0
    4.0180  -12.0720  -28.5910 O   0  0  0  0  0  0  0  0  0  0  0  0
  1 22  1  0  0  0  0
  1  2  2  0  0  0  0
  3  2  1  0  0  0  0
  3  4  1  0  0  0  0
  4 10  1  0  0  0  0
  5  3  2  0  0  0  0
  6  7  2  0  0  0  0
  6  5  1  0  0  0  0
  7  1  1  0  0  0  0
  8  7  1  0  0  0  0
  9  4  1  0  0  0  0
 10 15  1  0  0  0  0
 11 10  2  0  0  0  0
 11 12  1  0  0  0  0
 12 13  2  0  0  0  0
 13 14  1  0  0  0  0
 13 16  1  0  0  0  0
 15 14  2  0  0  0  0
 16 20  1  0  0  0  0
 16 17  2  0  0  0  0
 17 18  1  0  0  0  0
 19 18  2  0  0  0  0
 20 19  1  0  0  0  0
 21 20  1  0  0  0  0
 23 24  1  0  0  0  0
 24 25  2  0  0  0  0
 26 25  1  0  0  0  0
 26 22  1  0  0  0  0
 27 26  2  0  0  0  0
 28 23  2  0  0  0  0
 28 27  1  0  0  0  0
 29 30  1  0  0  0  0
 30 23  1  0  0  0  0
M  END
>  <minimizedAffinity>
-8.2404232

$$$$

 OpenBabel10152419303D

 30 33  0  0  0  0  0  0  0  0999 V2000
   -0.9580  -10.9180  -22.6280 C   0  0  0  0  0  0  0  0  0  0  0  0
   -0.4410   -9.9600  -23.4260 N   0  0  0  0  0  0  0  0  0  0  0  0
   -0.7800   -8.6910  -23.1650 C   0  0  0  0  0  0  0  0  0  0  0  0
   -0.2050   -7.6330  -23.8610 N   0  0  0  0  0  0  0  0  0  0  0  0
   -1.6130   -8.3440  -22.1690 N   0  0  0  0  0  0  0  0  0  0  0  0
   -2.1050   -9.3380  -21.3940 C   0  0  0  0  0  3  0  0  0  0  0  0
   -1.7950  -10.6640  -21.5640 C   0  0  0  0  0  0  0  0  0  0  0  0
   -2.4100  -11.8620  -20.5080 Cl  0  0  0  0  0  0  0  0  0  0  0  0
   -0.4570   -6.7550  -23.4350 H   0  0  0  0  0  0  0  0  0  0  0  0
    0.6750   -7.6010  -24.9460 C   0  0  0  0  0  0  0  0  0  0  0  0
    1.8120   -8.4210  -24.9230 C   0  0  0  0  0  3  0  0  0  0  0  0
    2.6730   -8.5030  -26.0260 C   0  0  0  0  0  3  0  0  0  0  0  0
    2.4230   -7.7510  -27.1790 C   0  0  0  0  0  0  0  0  0  0  0  0
    1.3060   -6.9090  -27.1960 C   0  0  0  0  0  3  0  0  0  0  0  0
    0.4350   -6.8530  -26.1020 C   0  0  0  0  0  3  0  0  0  0  0  0
    3.2790   -7.8310  -28.3530 C   0  0  0  0  0  0  0  0  0  0  0  0
    4.1240   -8.7910  -28.6790 N   0  0  0  0  0  0  0  0  0  0  0  0
    4.7220   -8.4040  -29.8540 N   0  0  0  0  0  0  0  0  0  0  0  0
    4.2800   -7.2190  -30.2440 N   0  0  0  0  0  0  0  0  0  0  0  0
    3.3910   -6.8580  -29.3080 N   0  0  0  0  0  0  0  0  0  0  0  0
    2.9420   -5.9540  -29.3660 H   0  0  0  0  0  0  0  0  0  0  0  0
   -0.4750  -12.1880  -22.8510 O   0  0  0  0  0  0  0  0  0  0  0  0
    2.4540  -12.6200  -25.8040 C   0  0  0  0  0  0  0  0  0  0  0  0
    1.0900  -12.6620  -26.0940 C   0  0  0  0  0  3  0  0  0  0  0  0
    0.1460  -12.5220  -25.0760 C   0  0  0  0  0  3  0  0  0  0  0  0
    0.5530  -12.3450  -23.7520 C   0  0  0  0  0  0  0  0  0  0  0  0
    1.9180  -12.3340  -23.4550 C   0  0  0  0  0  3  0  0  0  0  0  0
    2.8650  -12.4650  -24.4800 C   0  0  0  0  0  3  0  0  0  0  0  0
    4.3140  -11.7920  -27.0290 C   0  0  0  0  0  1  0  0  0  0  0  0
    3.2720  -12.7490  -26.8920 O   0  0  0  0  0  0  0  0  0  0  0  0
  1  7  1  0  0  0  0
  2  3  1  0  0  0  0
  2  1  2  0  0  0  0
  3  5  2  0  0  0  0
  4  9  1  0  0  0  0
  4  3  1  0  0  0  0
  5  6  1  0  0  0  0
  7  6  2  0  0  0  0
  7  8  1  0  0  0  0
 10 11  1  0  0  0  0
 10  4  1  0  0  0  0
 12 11  2  0  0  0  0
 13 12  1  0  0  0  0
 14 13  2  0  0  0  0
 14 15  1  0  0  0  0
 15 10  2  0  0  0  0
 16 13  1  0  0  0  0
 17 16  2  0  0  0  0
 18 17  1  0  0  0  0
 19 18  2  0  0  0  0
 19 20  1  0  0  0  0
 20 16  1  0  0  0  0
 21 20  1  0  0  0  0
 22  1  1  0  0  0  0
 23 28  1  0  0  0  0
 24 23  2  0  0  0  0
 24 25  1  0  0  0  0
 25 26  2  0  0  0  0
 26 27  1  0  0  0  0
 26 22  1  0  0  0  0
 28 27  2  0  0  0  0
 29 30  1  0  0  0  0
 30 23  1  0  0  0  0
M  END
>  <minimizedAffinity>
-8.18361759

$$$$

 OpenBabel10152419303D

 30 33  0  0  0  0  0  0  0  0999 V2000
   -0.7220  -10.9980  -22.1850 C   0  0  0  0  0  0  0  0  0  0  0  0
   -0.8870   -9.7830  -22.7510 N   0  0  0  0  0  0  0  0  0  0  0  0
   -1.8200   -8.9800  -22.2260 C   0  0  0  0  0  0  0  0  0  0  0  0
   -1.9790   -7.6720  -22.6690 N   0  0  0  0  0  0  0  0  0  0  0  0
   -2.5970   -9.3380  -21.1880 N   0  0  0  0  0  0  0  0  0  0  0  0
   -2.3940  -10.5630  -20.6520 C   0  0  0  0  0  3  0  0  0  0  0  0
   -1.4440  -11.4460  -21.1010 C   0  0  0  0  0  0  0  0  0  0  0  0
   -1.2050  -12.9580  -20.3360 Cl  0  0  0  0  0  0  0  0  0  0  0  0
   -2.6140   -7.1710  -22.0660 H   0  0  0  0  0  0  0  0  0  0  0  0
   -1.3760   -6.9620  -23.7110 C   0  0  0  0  0  0  0  0  0  0  0  0
   -1.6340   -7.3470  -25.0340 C   0  0  0  0  0  3  0  0  0  0  0  0
   -1.1360   -6.6110  -26.1170 C   0  0  0  0  0  3  0  0  0  0  0  0
   -0.3520   -5.4720  -25.9000 C   0  0  0  0  0  0  0  0  0  0  0  0
   -0.0680   -5.0990  -24.5820 C   0  0  0  0  0  3  0  0  0  0  0  0
   -0.5910   -5.8240  -23.5050 C   0  0  0  0  0  3  0  0  0  0  0  0
    0.1580   -4.6660  -27.0000 C   0  0  0  0  0  0  0  0  0  0  0  0
    0.0600   -3.3600  -27.1640 N   0  0  0  0  0  0  0  0  0  0  0  0
    0.6660   -3.0710  -28.3630 N   0  0  0  0  0  0  0  0  0  0  0  0
    1.1130   -4.1720  -28.9470 N   0  0  0  0  0  0  0  0  0  0  0  0
    0.7900   -5.1630  -28.1060 N   0  0  0  0  0  0  0  0  0  0  0  0
    0.9940   -6.1200  -28.3590 H   0  0  0  0  0  0  0  0  0  0  0  0
    0.3370  -11.7300  -22.6720 O   0  0  0  0  0  0  0  0  0  0  0  0
    2.5650  -10.3810  -25.9440 C   0  0  0  0  0  0  0  0  0  0  0  0
    2.3390  -11.7370  -25.7030 C   0  0  0  0  0  3  0  0  0  0  0  0
    1.5970  -12.1440  -24.5930 C   0  0  0  0  0  3  0  0  0  0  0  0
    1.0760  -11.2000  -23.7050 C   0  0  0  0  0  0  0  0  0  0  0  0
    1.3280   -9.8440  -23.9270 C   0  0  0  0  0  3  0  0  0  0  0  0
    2.0660   -9.4370  -25.0470 C   0  0  0  0  0  3  0  0  0  0  0  0
    3.9900   -8.8810  -27.1110 C   0  0  0  0  0  1  0  0  0  0  0  0
    3.2890  -10.1160  -27.0730 O   0  0  0  0  0  0  0  0  0  0  0  0
  1  7  1  0  0  0  0
  2  3  1  0  0  0  0
  2  1  2  0  0  0  0
  3  5  2  0  0  0  0
  4  3  1  0  0  0  0
  4  9  1  0  0  0  0
  5  6  1  0  0  0  0
  7  6  2  0  0  0  0
  7  8  1  0  0  0  0
 10 15  1  0  0  0  0
 10  4  1  0  0  0  0
 11 10  2  0  0  0  0
 12 13  2  0  0  0  0
 12 11  1  0  0  0  0
 13 14  1  0  0  0  0
 14 15  2  0  0  0  0
 16 13  1  0  0  0  0
 17 16  2  0  0  0  0
 18 17  1  0  0  0  0
 19 18  2  0  0  0  0
 19 20  1  0  0  0  0
 20 16  1  0  0  0  0
 21 20  1  0  0  0  0
 22  1  1  0  0  0  0
 23 24  2  0  0  0  0
 23 28  1  0  0  0  0
 24 25  1  0  0  0  0
 25 26  2  0  0  0  0
 26 22  1  0  0  0  0
 27 26  1  0  0  0  0
 28 27  2  0  0  0  0
 29 30  1  0  0  0  0
 30 23  1  0  0  0  0
M  END
>  <minimizedAffinity>
-8.15708542

$$$$

 OpenBabel10152419303D

 30 33  0  0  0  0  0  0  0  0999 V2000
    2.9580  -10.4040  -27.1230 C   0  0  0  0  0  0  0  0  0  0  0  0
    1.9840  -10.6060  -26.2100 N   0  0  0  0  0  0  0  0  0  0  0  0
    1.4620  -11.8360  -26.1260 C   0  0  0  0  0  0  0  0  0  0  0  0
    0.5400  -12.1630  -25.1380 N   0  0  0  0  0  0  0  0  0  0  0  0
    1.8520  -12.8530  -26.9140 N   0  0  0  0  0  0  0  0  0  0  0  0
    2.8320  -12.6050  -27.8120 C   0  0  0  0  0  3  0  0  0  0  0  0
    3.4470  -11.3870  -27.9550 C   0  0  0  0  0  0  0  0  0  0  0  0
    4.7210  -11.1610  -29.0750 Cl  0  0  0  0  0  0  0  0  0  0  0  0
    0.3730  -13.1570  -25.1290 H   0  0  0  0  0  0  0  0  0  0  0  0
   -0.0970  -11.3870  -24.1660 C   0  0  0  0  0  0  0  0  0  0  0  0
   -0.4290  -10.0590  -24.4660 C   0  0  0  0  0  3  0  0  0  0  0  0
   -1.1560   -9.2690  -23.5660 C   0  0  0  0  0  3  0  0  0  0  0  0
   -1.5590   -9.7880  -22.3310 C   0  0  0  0  0  0  0  0  0  0  0  0
   -1.2050  -11.1030  -22.0140 C   0  0  0  0  0  3  0  0  0  0  0  0
   -0.5020  -11.8960  -22.9280 C   0  0  0  0  0  3  0  0  0  0  0  0
   -2.3390   -9.0060  -21.3820 C   0  0  0  0  0  0  0  0  0  0  0  0
   -3.5590   -8.5270  -21.5340 N   0  0  0  0  0  0  0  0  0  0  0  0
   -3.8530   -7.8340  -20.3840 N   0  0  0  0  0  0  0  0  0  0  0  0
   -2.8320   -7.8580  -19.5410 N   0  0  0  0  0  0  0  0  0  0  0  0
   -1.8880   -8.5770  -20.1640 N   0  0  0  0  0  0  0  0  0  0  0  0
   -0.9850   -8.7020  -19.7280 H   0  0  0  0  0  0  0  0  0  0  0  0
    3.5520   -9.1640  -27.0780 O   0  0  0  0  0  0  0  0  0  0  0  0
    1.0590   -5.8100  -27.2440 C   0  0  0  0  0  0  0  0  0  0  0  0
    1.0200   -6.7180  -26.1850 C   0  0  0  0  0  3  0  0  0  0  0  0
    1.8640   -7.8300  -26.1750 C   0  0  0  0  0  3  0  0  0  0  0  0
    2.7550   -8.0520  -27.2270 C   0  0  0  0  0  0  0  0  0  0  0  0
    2.7750   -7.1620  -28.3030 C   0  0  0  0  0  3  0  0  0  0  0  0
    1.9320   -6.0410  -28.3080 C   0  0  0  0  0  3  0  0  0  0  0  0
    0.4560   -3.6190  -27.9350 C   0  0  0  0  0  1  0  0  0  0  0  0
    0.1970   -4.7560  -27.1240 O   0  0  0  0  0  0  0  0  0  0  0  0
  1 22  1  0  0  0  0
  1  2  2  0  0  0  0
  2  3  1  0  0  0  0
  3  4  1  0  0  0  0
  4  9  1  0  0  0  0
  4 10  1  0  0  0  0
  5  3  2  0  0  0  0
  6  5  1  0  0  0  0
  7  6  2  0  0  0  0
  7  1  1  0  0  0  0
  8  7  1  0  0  0  0
 10 15  1  0  0  0  0
 11 10  2  0  0  0  0
 11 12  1  0  0  0  0
 12 13  2  0  0  0  0
 13 14  1  0  0  0  0
 13 16  1  0  0  0  0
 15 14  2  0  0  0  0
 16 20  1  0  0  0  0
 17 16  2  0  0  0  0
 17 18  1  0  0  0  0
 18 19  2  0  0  0  0
 20 21  1  0  0  0  0
 20 19  1  0  0  0  0
 23 30  1  0  0  0  0
 23 24  1  0  0  0  0
 24 25  2  0  0  0  0
 26 22  1  0  0  0  0
 26 25  1  0  0  0  0
 27 26  2  0  0  0  0
 28 27  1  0  0  0  0
 28 23  2  0  0  0  0
 29 30  1  0  0  0  0
M  END
>  <minimizedAffinity>
-7.92821884

$$$$

 OpenBabel10152419303D

 30 33  0  0  0  0  0  0  0  0999 V2000
    3.3690  -10.4590  -26.8420 C   0  0  0  0  0  0  0  0  0  0  0  0
    2.9780   -9.2170  -27.2000 N   0  0  0  0  0  0  0  0  0  0  0  0
    3.4820   -8.7140  -28.3340 C   0  0  0  0  0  0  0  0  0  0  0  0
    3.0480   -7.4940  -28.8380 N   0  0  0  0  0  0  0  0  0  0  0  0
    4.3600   -9.3800  -29.1050 N   0  0  0  0  0  0  0  0  0  0  0  0
    4.7210  -10.6210  -28.7070 C   0  0  0  0  0  3  0  0  0  0  0  0
    4.2390  -11.2330  -27.5780 C   0  0  0  0  0  0  0  0  0  0  0  0
    4.6970  -12.8300  -27.1680 Cl  0  0  0  0  0  0  0  0  0  0  0  0
    3.4160   -7.3450  -29.7650 H   0  0  0  0  0  0  0  0  0  0  0  0
    2.1730   -6.5330  -28.3240 C   0  0  0  0  0  0  0  0  0  0  0  0
    1.4040   -6.8480  -27.1950 C   0  0  0  0  0  3  0  0  0  0  0  0
    0.5870   -5.8900  -26.5810 C   0  0  0  0  0  3  0  0  0  0  0  0
    0.5090   -4.5900  -27.0920 C   0  0  0  0  0  0  0  0  0  0  0  0
    1.2510   -4.2780  -28.2350 C   0  0  0  0  0  3  0  0  0  0  0  0
    2.0870   -5.2310  -28.8280 C   0  0  0  0  0  3  0  0  0  0  0  0
   -0.3070   -3.5610  -26.4630 C   0  0  0  0  0  0  0  0  0  0  0  0
   -1.0760   -3.6730  -25.3970 N   0  0  0  0  0  0  0  0  0  0  0  0
   -1.6650   -2.4460  -25.2090 N   0  0  0  0  0  0  0  0  0  0  0  0
   -1.2930   -1.5920  -26.1500 N   0  0  0  0  0  0  0  0  0  0  0  0
   -0.4580   -2.2850  -26.9340 N   0  0  0  0  0  0  0  0  0  0  0  0
   -0.0690   -1.8510  -27.7600 H   0  0  0  0  0  0  0  0  0  0  0  0
    2.7220  -10.9810  -25.7450 O   0  0  0  0  0  0  0  0  0  0  0  0
   -1.1570   -9.6430  -24.9410 C   0  0  0  0  0  0  0  0  0  0  0  0
   -0.0390   -9.1260  -24.2870 C   0  0  0  0  0  3  0  0  0  0  0  0
    1.2380   -9.6090  -24.5790 C   0  0  0  0  0  3  0  0  0  0  0  0
    1.4120  -10.6190  -25.5270 C   0  0  0  0  0  0  0  0  0  0  0  0
    0.2920  -11.1610  -26.1610 C   0  0  0  0  0  3  0  0  0  0  0  0
   -0.9890  -10.6690  -25.8720 C   0  0  0  0  0  3  0  0  0  0  0  0
   -2.3090   -8.1480  -23.4990 C   0  0  0  0  0  1  0  0  0  0  0  0
   -2.3450   -9.0720  -24.5780 O   0  0  0  0  0  0  0  0  0  0  0  0
  1 22  1  0  0  0  0
  2  1  2  0  0  0  0
  3  2  1  0  0  0  0
  4  3  1  0  0  0  0
  4 10  1  0  0  0  0
  5  6  1  0  0  0  0
  5  3  2  0  0  0  0
  6  7  2  0  0  0  0
  7  8  1  0  0  0  0
  7  1  1  0  0  0  0
  9  4  1  0  0  0  0
 10 11  1  0  0  0  0
 11 12  2  0  0  0  0
 13 12  1  0  0  0  0
 13 16  1  0  0  0  0
 14 13  2  0  0  0  0
 15 10  2  0  0  0  0
 15 14  1  0  0  0  0
 16 17  2  0  0  0  0
 17 18  1  0  0  0  0
 19 18  2  0  0  0  0
 20 16  1  0  0  0  0
 20 19  1  0  0  0  0
 21 20  1  0  0  0  0
 22 26  1  0  0  0  0
 23 30  1  0  0  0  0
 23 24  1  0  0  0  0
 25 24  2  0  0  0  0
 26 25  1  0  0  0  0
 27 28  1  0  0  0  0
 27 26  2  0  0  0  0
 28 23  2  0  0  0  0
 30 29  1  0  0  0  0
M  END
>  <minimizedAffinity>
-7.6830163

$$$$
