
 OpenBabel10152419303D

 30 33  0  0  0  0  0  0  0  0999 V2000
    2.9580  -10.4040  -27.1230 C   0  0  0  0  0  0  0  0  0  0  0  0
    1.9840  -10.6060  -26.2100 N   0  0  0  0  0  0  0  0  0  0  0  0
    1.4620  -11.8360  -26.1260 C   0  0  0  0  0  0  0  0  0  0  0  0
    0.5400  -12.1630  -25.1380 N   0  0  0  0  0  0  0  0  0  0  0  0
    1.8520  -12.8530  -26.9140 N   0  0  0  0  0  0  0  0  0  0  0  0
    2.8320  -12.6050  -27.8120 C   0  0  0  0  0  3  0  0  0  0  0  0
    3.4470  -11.3870  -27.9550 C   0  0  0  0  0  0  0  0  0  0  0  0
    4.7210  -11.1610  -29.0750 Cl  0  0  0  0  0  0  0  0  0  0  0  0
    0.3730  -13.1570  -25.1290 H   0  0  0  0  0  0  0  0  0  0  0  0
   -0.0970  -11.3870  -24.1660 C   0  0  0  0  0  0  0  0  0  0  0  0
   -0.4290  -10.0590  -24.4660 C   0  0  0  0  0  3  0  0  0  0  0  0
   -1.1560   -9.2690  -23.5660 C   0  0  0  0  0  3  0  0  0  0  0  0
   -1.5590   -9.7880  -22.3310 C   0  0  0  0  0  0  0  0  0  0  0  0
   -1.2050  -11.1030  -22.0140 C   0  0  0  0  0  3  0  0  0  0  0  0
   -0.5020  -11.8960  -22.9280 C   0  0  0  0  0  3  0  0  0  0  0  0
   -2.3390   -9.0060  -21.3820 C   0  0  0  0  0  0  0  0  0  0  0  0
   -3.5590   -8.5270  -21.5340 N   0  0  0  0  0  0  0  0  0  0  0  0
   -3.8530   -7.8340  -20.3840 N   0  0  0  0  0  0  0  0  0  0  0  0
   -2.8320   -7.8580  -19.5410 N   0  0  0  0  0  0  0  0  0  0  0  0
   -1.8880   -8.5770  -20.1640 N   0  0  0  0  0  0  0  0  0  0  0  0
   -0.9850   -8.7020  -19.7280 H   0  0  0  0  0  0  0  0  0  0  0  0
    3.5520   -9.1640  -27.0780 O   0  0  0  0  0  0  0  0  0  0  0  0
    1.0590   -5.8100  -27.2440 C   0  0  0  0  0  0  0  0  0  0  0  0
    1.0200   -6.7180  -26.1850 C   0  0  0  0  0  3  0  0  0  0  0  0
    1.8640   -7.8300  -26.1750 C   0  0  0  0  0  3  0  0  0  0  0  0
    2.7550   -8.0520  -27.2270 C   0  0  0  0  0  0  0  0  0  0  0  0
    2.7750   -7.1620  -28.3030 C   0  0  0  0  0  3  0  0  0  0  0  0
    1.9320   -6.0410  -28.3080 C   0  0  0  0  0  3  0  0  0  0  0  0
    0.4560   -3.6190  -27.9350 C   0  0  0  0  0  1  0  0  0  0  0  0
    0.1970   -4.7560  -27.1240 O   0  0  0  0  0  0  0  0  0  0  0  0
  1 22  1  0  0  0  0
  1  2  2  0  0  0  0
  2  3  1  0  0  0  0
  3  4  1  0  0  0  0
  4  9  1  0  0  0  0
  4 10  1  0  0  0  0
  5  3  2  0  0  0  0
  6  5  1  0  0  0  0
  7  6  2  0  0  0  0
  7  1  1  0  0  0  0
  8  7  1  0  0  0  0
 10 15  1  0  0  0  0
 11 10  2  0  0  0  0
 11 12  1  0  0  0  0
 12 13  2  0  0  0  0
 13 14  1  0  0  0  0
 13 16  1  0  0  0  0
 15 14  2  0  0  0  0
 16 20  1  0  0  0  0
 17 16  2  0  0  0  0
 17 18  1  0  0  0  0
 18 19  2  0  0  0  0
 20 21  1  0  0  0  0
 20 19  1  0  0  0  0
 23 30  1  0  0  0  0
 23 24  1  0  0  0  0
 24 25  2  0  0  0  0
 26 22  1  0  0  0  0
 26 25  1  0  0  0  0
 27 26  2  0  0  0  0
 28 27  1  0  0  0  0
 28 23  2  0  0  0  0
 29 30  1  0  0  0  0
M  END
>  <minimizedAffinity>
-7.92821884

$$$$
