
 OpenBabel10152419303D

 30 33  0  0  0  0  0  0  0  0999 V2000
   -1.1890   -9.0520  -23.2320 C   0  0  0  0  0  0  0  0  0  0  0  0
   -0.4970   -8.3590  -24.1610 N   0  0  0  0  0  0  0  0  0  0  0  0
   -0.5700   -7.0230  -24.1160 C   0  0  0  0  0  0  0  0  0  0  0  0
    0.2000   -6.2290  -24.9580 N   0  0  0  0  0  0  0  0  0  0  0  0
   -1.3070   -6.3590  -23.2080 N   0  0  0  0  0  0  0  0  0  0  0  0
   -1.9810   -7.0950  -22.2950 C   0  0  0  0  0  3  0  0  0  0  0  0
   -1.9470   -8.4650  -22.2430 C   0  0  0  0  0  0  0  0  0  0  0  0
   -2.7810   -9.3290  -21.0220 Cl  0  0  0  0  0  0  0  0  0  0  0  0
    0.1340   -5.2600  -24.6850 H   0  0  0  0  0  0  0  0  0  0  0  0
    1.0580   -6.5500  -26.0130 C   0  0  0  0  0  0  0  0  0  0  0  0
    1.9730   -7.5990  -25.8500 C   0  0  0  0  0  3  0  0  0  0  0  0
    2.7860   -8.0280  -26.9080 C   0  0  0  0  0  3  0  0  0  0  0  0
    2.7110   -7.4040  -28.1580 C   0  0  0  0  0  0  0  0  0  0  0  0
    1.8210   -6.3380  -28.3180 C   0  0  0  0  0  3  0  0  0  0  0  0
    0.9920   -5.9320  -27.2660 C   0  0  0  0  0  3  0  0  0  0  0  0
    3.5200   -7.8410  -29.2870 C   0  0  0  0  0  0  0  0  0  0  0  0
    3.9940   -9.0480  -29.5290 N   0  0  0  0  0  0  0  0  0  0  0  0
    4.7190   -8.9580  -30.6920 N   0  0  0  0  0  0  0  0  0  0  0  0
    4.7190   -7.7180  -31.1570 N   0  0  0  0  0  0  0  0  0  0  0  0
    3.9830   -7.0220  -30.2810 N   0  0  0  0  0  0  0  0  0  0  0  0
    3.8710   -6.0250  -30.4020 H   0  0  0  0  0  0  0  0  0  0  0  0
   -0.9740  -10.4110  -23.2380 O   0  0  0  0  0  0  0  0  0  0  0  0
    2.0000  -11.9790  -25.7240 C   0  0  0  0  0  0  0  0  0  0  0  0
    2.2840  -11.4400  -24.4690 C   0  0  0  0  0  3  0  0  0  0  0  0
    1.2610  -10.9190  -23.6750 C   0  0  0  0  0  3  0  0  0  0  0  0
   -0.0590  -10.9240  -24.1290 C   0  0  0  0  0  0  0  0  0  0  0  0
   -0.3420  -11.4340  -25.3980 C   0  0  0  0  0  3  0  0  0  0  0  0
    0.6850  -11.9650  -26.1910 C   0  0  0  0  0  3  0  0  0  0  0  0
    4.2320  -11.6350  -26.4610 C   0  0  0  0  0  1  0  0  0  0  0  0
    3.0870  -12.4730  -26.3910 O   0  0  0  0  0  0  0  0  0  0  0  0
  1  7  1  0  0  0  0
  2  3  1  0  0  0  0
  2  1  2  0  0  0  0
  3  5  2  0  0  0  0
  4  9  1  0  0  0  0
  4  3  1  0  0  0  0
  5  6  1  0  0  0  0
  6  7  2  0  0  0  0
  7  8  1  0  0  0  0
 10 11  1  0  0  0  0
 10  4  1  0  0  0  0
 12 11  2  0  0  0  0
 13 12  1  0  0  0  0
 14 13  2  0  0  0  0
 14 15  1  0  0  0  0
 15 10  2  0  0  0  0
 16 13  1  0  0  0  0
 17 16  2  0  0  0  0
 18 17  1  0  0  0  0
 19 18  2  0  0  0  0
 19 20  1  0  0  0  0
 20 16  1  0  0  0  0
 21 20  1  0  0  0  0
 22  1  1  0  0  0  0
 23 24  1  0  0  0  0
 24 25  2  0  0  0  0
 26 25  1  0  0  0  0
 26 22  1  0  0  0  0
 27 26  2  0  0  0  0
 28 23  2  0  0  0  0
 28 27  1  0  0  0  0
 29 30  1  0  0  0  0
 30 23  1  0  0  0  0
M  END
>  <minimizedAffinity>
-8.24540806

$$$$
