
 OpenBabel10152419303D

 30 33  0  0  0  0  0  0  0  0999 V2000
    3.3690  -10.4590  -26.8420 C   0  0  0  0  0  0  0  0  0  0  0  0
    2.9780   -9.2170  -27.2000 N   0  0  0  0  0  0  0  0  0  0  0  0
    3.4820   -8.7140  -28.3340 C   0  0  0  0  0  0  0  0  0  0  0  0
    3.0480   -7.4940  -28.8380 N   0  0  0  0  0  0  0  0  0  0  0  0
    4.3600   -9.3800  -29.1050 N   0  0  0  0  0  0  0  0  0  0  0  0
    4.7210  -10.6210  -28.7070 C   0  0  0  0  0  3  0  0  0  0  0  0
    4.2390  -11.2330  -27.5780 C   0  0  0  0  0  0  0  0  0  0  0  0
    4.6970  -12.8300  -27.1680 Cl  0  0  0  0  0  0  0  0  0  0  0  0
    3.4160   -7.3450  -29.7650 H   0  0  0  0  0  0  0  0  0  0  0  0
    2.1730   -6.5330  -28.3240 C   0  0  0  0  0  0  0  0  0  0  0  0
    1.4040   -6.8480  -27.1950 C   0  0  0  0  0  3  0  0  0  0  0  0
    0.5870   -5.8900  -26.5810 C   0  0  0  0  0  3  0  0  0  0  0  0
    0.5090   -4.5900  -27.0920 C   0  0  0  0  0  0  0  0  0  0  0  0
    1.2510   -4.2780  -28.2350 C   0  0  0  0  0  3  0  0  0  0  0  0
    2.0870   -5.2310  -28.8280 C   0  0  0  0  0  3  0  0  0  0  0  0
   -0.3070   -3.5610  -26.4630 C   0  0  0  0  0  0  0  0  0  0  0  0
   -1.0760   -3.6730  -25.3970 N   0  0  0  0  0  0  0  0  0  0  0  0
   -1.6650   -2.4460  -25.2090 N   0  0  0  0  0  0  0  0  0  0  0  0
   -1.2930   -1.5920  -26.1500 N   0  0  0  0  0  0  0  0  0  0  0  0
   -0.4580   -2.2850  -26.9340 N   0  0  0  0  0  0  0  0  0  0  0  0
   -0.0690   -1.8510  -27.7600 H   0  0  0  0  0  0  0  0  0  0  0  0
    2.7220  -10.9810  -25.7450 O   0  0  0  0  0  0  0  0  0  0  0  0
   -1.1570   -9.6430  -24.9410 C   0  0  0  0  0  0  0  0  0  0  0  0
   -0.0390   -9.1260  -24.2870 C   0  0  0  0  0  3  0  0  0  0  0  0
    1.2380   -9.6090  -24.5790 C   0  0  0  0  0  3  0  0  0  0  0  0
    1.4120  -10.6190  -25.5270 C   0  0  0  0  0  0  0  0  0  0  0  0
    0.2920  -11.1610  -26.1610 C   0  0  0  0  0  3  0  0  0  0  0  0
   -0.9890  -10.6690  -25.8720 C   0  0  0  0  0  3  0  0  0  0  0  0
   -2.3090   -8.1480  -23.4990 C   0  0  0  0  0  1  0  0  0  0  0  0
   -2.3450   -9.0720  -24.5780 O   0  0  0  0  0  0  0  0  0  0  0  0
  1 22  1  0  0  0  0
  2  1  2  0  0  0  0
  3  2  1  0  0  0  0
  4  3  1  0  0  0  0
  4 10  1  0  0  0  0
  5  6  1  0  0  0  0
  5  3  2  0  0  0  0
  6  7  2  0  0  0  0
  7  8  1  0  0  0  0
  7  1  1  0  0  0  0
  9  4  1  0  0  0  0
 10 11  1  0  0  0  0
 11 12  2  0  0  0  0
 13 12  1  0  0  0  0
 13 16  1  0  0  0  0
 14 13  2  0  0  0  0
 15 10  2  0  0  0  0
 15 14  1  0  0  0  0
 16 17  2  0  0  0  0
 17 18  1  0  0  0  0
 19 18  2  0  0  0  0
 20 16  1  0  0  0  0
 20 19  1  0  0  0  0
 21 20  1  0  0  0  0
 22 26  1  0  0  0  0
 23 30  1  0  0  0  0
 23 24  1  0  0  0  0
 25 24  2  0  0  0  0
 26 25  1  0  0  0  0
 27 28  1  0  0  0  0
 27 26  2  0  0  0  0
 28 23  2  0  0  0  0
 30 29  1  0  0  0  0
M  END
>  <minimizedAffinity>
-7.6830163

$$$$
