
 OpenBabel10152419303D

 30 33  0  0  0  0  0  0  0  0999 V2000
    1.1310   -6.8130  -26.3080 C   0  0  0  0  0  0  0  0  0  0  0  0
    0.3050   -7.3540  -25.3880 N   0  0  0  0  0  0  0  0  0  0  0  0
   -0.9610   -6.9220  -25.3650 C   0  0  0  0  0  0  0  0  0  0  0  0
   -1.9080   -7.5050  -24.5310 N   0  0  0  0  0  0  0  0  0  0  0  0
   -1.4270   -5.9730  -26.1960 N   0  0  0  0  0  0  0  0  0  0  0  0
   -0.5640   -5.4610  -27.1020 C   0  0  0  0  0  3  0  0  0  0  0  0
    0.7430   -5.8580  -27.2230 C   0  0  0  0  0  0  0  0  0  0  0  0
    1.7620   -5.2060  -28.4330 Cl  0  0  0  0  0  0  0  0  0  0  0  0
   -2.8310   -7.1620  -24.7520 H   0  0  0  0  0  0  0  0  0  0  0  0
   -1.8000   -8.4880  -23.5430 C   0  0  0  0  0  0  0  0  0  0  0  0
   -2.0850   -8.1500  -22.2130 C   0  0  0  0  0  3  0  0  0  0  0  0
   -2.0890   -9.1180  -21.2010 C   0  0  0  0  0  3  0  0  0  0  0  0
   -1.7930  -10.4540  -21.4950 C   0  0  0  0  0  0  0  0  0  0  0  0
   -1.4800  -10.7920  -22.8150 C   0  0  0  0  0  3  0  0  0  0  0  0
   -1.5040   -9.8250  -23.8260 C   0  0  0  0  0  3  0  0  0  0  0  0
   -1.8150  -11.4920  -20.4740 C   0  0  0  0  0  0  0  0  0  0  0  0
   -2.8670  -12.0670  -19.9220 N   0  0  0  0  0  0  0  0  0  0  0  0
   -2.3840  -12.9580  -18.9950 N   0  0  0  0  0  0  0  0  0  0  0  0
   -1.0610  -12.9260  -18.9490 N   0  0  0  0  0  0  0  0  0  0  0  0
   -0.7080  -12.0090  -19.8600 N   0  0  0  0  0  0  0  0  0  0  0  0
    0.2680  -11.7740  -19.9810 H   0  0  0  0  0  0  0  0  0  0  0  0
    2.3810   -7.3850  -26.3810 O   0  0  0  0  0  0  0  0  0  0  0  0
    2.5330  -11.4490  -25.4050 C   0  0  0  0  0  0  0  0  0  0  0  0
    1.9620  -10.4990  -24.5580 C   0  0  0  0  0  3  0  0  0  0  0  0
    1.9400   -9.1500  -24.9190 C   0  0  0  0  0  3  0  0  0  0  0  0
    2.4960   -8.7340  -26.1300 C   0  0  0  0  0  0  0  0  0  0  0  0
    3.0960   -9.6780  -26.9660 C   0  0  0  0  0  3  0  0  0  0  0  0
    3.1090  -11.0330  -26.6050 C   0  0  0  0  0  3  0  0  0  0  0  0
    2.0780  -12.9110  -23.5890 C   0  0  0  0  0  1  0  0  0  0  0  0
    2.4710  -12.7340  -24.9430 O   0  0  0  0  0  0  0  0  0  0  0  0
  1  2  2  0  0  0  0
  2  3  1  0  0  0  0
  3  4  1  0  0  0  0
  4 10  1  0  0  0  0
  5  3  2  0  0  0  0
  6  5  1  0  0  0  0
  7  6  2  0  0  0  0
  7  1  1  0  0  0  0
  8  7  1  0  0  0  0
  9  4  1  0  0  0  0
 10 11  1  0  0  0  0
 11 12  2  0  0  0  0
 13 12  1  0  0  0  0
 13 16  1  0  0  0  0
 14 13  2  0  0  0  0
 15 10  2  0  0  0  0
 15 14  1  0  0  0  0
 16 17  2  0  0  0  0
 16 20  1  0  0  0  0
 17 18  1  0  0  0  0
 18 19  2  0  0  0  0
 20 19  1  0  0  0  0
 21 20  1  0  0  0  0
 22  1  1  0  0  0  0
 22 26  1  0  0  0  0
 23 30  1  0  0  0  0
 23 24  1  0  0  0  0
 25 24  2  0  0  0  0
 26 25  1  0  0  0  0
 27 28  1  0  0  0  0
 27 26  2  0  0  0  0
 28 23  2  0  0  0  0
 30 29  1  0  0  0  0
M  END
>  <minimizedAffinity>
-8.903759

$$$$
