
 OpenBabel10152419303D

 30 33  0  0  0  0  0  0  0  0999 V2000
    1.2800   -7.1290  -25.9150 C   0  0  0  0  0  0  0  0  0  0  0  0
    0.3360   -7.6910  -25.1300 N   0  0  0  0  0  0  0  0  0  0  0  0
   -0.9420   -7.3860  -25.3870 C   0  0  0  0  0  0  0  0  0  0  0  0
   -1.9830   -8.0070  -24.7060 N   0  0  0  0  0  0  0  0  0  0  0  0
   -1.3120   -6.5440  -26.3680 N   0  0  0  0  0  0  0  0  0  0  0  0
   -0.3320   -6.0080  -27.1300 C   0  0  0  0  0  3  0  0  0  0  0  0
    1.0020   -6.2790  -26.9630 C   0  0  0  0  0  0  0  0  0  0  0  0
    2.1830   -5.6080  -28.0030 Cl  0  0  0  0  0  0  0  0  0  0  0  0
   -2.8690   -7.7730  -25.1290 H   0  0  0  0  0  0  0  0  0  0  0  0
   -1.9910   -8.9090  -23.6390 C   0  0  0  0  0  0  0  0  0  0  0  0
   -1.4770  -10.1980  -23.8350 C   0  0  0  0  0  3  0  0  0  0  0  0
   -1.3690  -11.1080  -22.7750 C   0  0  0  0  0  3  0  0  0  0  0  0
   -1.7860  -10.7510  -21.4880 C   0  0  0  0  0  0  0  0  0  0  0  0
   -2.3270   -9.4770  -21.2920 C   0  0  0  0  0  3  0  0  0  0  0  0
   -2.4070   -8.5630  -22.3500 C   0  0  0  0  0  3  0  0  0  0  0  0
   -1.6630  -11.6600  -20.3570 C   0  0  0  0  0  0  0  0  0  0  0  0
   -2.6290  -12.2020  -19.6410 N   0  0  0  0  0  0  0  0  0  0  0  0
   -2.0190  -12.9580  -18.6700 N   0  0  0  0  0  0  0  0  0  0  0  0
   -0.7010  -12.8740  -18.7600 N   0  0  0  0  0  0  0  0  0  0  0  0
   -0.4790  -12.0610  -19.8020 N   0  0  0  0  0  0  0  0  0  0  0  0
    0.4690  -11.8070  -20.0460 H   0  0  0  0  0  0  0  0  0  0  0  0
    2.5630   -7.5780  -25.6970 O   0  0  0  0  0  0  0  0  0  0  0  0
    3.7620  -10.8950  -27.9440 C   0  0  0  0  0  0  0  0  0  0  0  0
    2.8430  -10.9940  -26.8980 C   0  0  0  0  0  3  0  0  0  0  0  0
    2.4780   -9.8620  -26.1680 C   0  0  0  0  0  3  0  0  0  0  0  0
    3.0310   -8.6160  -26.4700 C   0  0  0  0  0  0  0  0  0  0  0  0
    3.9740   -8.5190  -27.4960 C   0  0  0  0  0  3  0  0  0  0  0  0
    4.3330   -9.6560  -28.2340 C   0  0  0  0  0  3  0  0  0  0  0  0
    3.7900  -12.0970  -29.9930 C   0  0  0  0  0  1  0  0  0  0  0  0
    4.0180  -12.0720  -28.5910 O   0  0  0  0  0  0  0  0  0  0  0  0
  1 22  1  0  0  0  0
  1  2  2  0  0  0  0
  3  2  1  0  0  0  0
  3  4  1  0  0  0  0
  4 10  1  0  0  0  0
  5  3  2  0  0  0  0
  6  7  2  0  0  0  0
  6  5  1  0  0  0  0
  7  1  1  0  0  0  0
  8  7  1  0  0  0  0
  9  4  1  0  0  0  0
 10 15  1  0  0  0  0
 11 10  2  0  0  0  0
 11 12  1  0  0  0  0
 12 13  2  0  0  0  0
 13 14  1  0  0  0  0
 13 16  1  0  0  0  0
 15 14  2  0  0  0  0
 16 20  1  0  0  0  0
 16 17  2  0  0  0  0
 17 18  1  0  0  0  0
 19 18  2  0  0  0  0
 20 19  1  0  0  0  0
 21 20  1  0  0  0  0
 23 24  1  0  0  0  0
 24 25  2  0  0  0  0
 26 25  1  0  0  0  0
 26 22  1  0  0  0  0
 27 26  2  0  0  0  0
 28 23  2  0  0  0  0
 28 27  1  0  0  0  0
 29 30  1  0  0  0  0
 30 23  1  0  0  0  0
M  END
>  <minimizedAffinity>
-8.2404232

$$$$
