
 OpenBabel11232420213D

 35 39  0  0  1  0  0  0  0  0999 V2000
    0.0380    3.3240   -8.4400 O   0  0  0  0  0  0  0  0  0  0  0  0
    3.0570    5.4180   -7.8510 C   0  0  0  0  0  0  0  0  0  0  0  0
    3.8710    4.7340   -8.7510 C   0  0  0  0  0  3  0  0  0  0  0  0
    3.4510    3.7100   -9.5310 N   0  0  0  0  0  0  0  0  0  0  0  0
    2.1600    3.3360   -9.4140 C   0  0  0  0  0  3  0  0  0  0  0  0
    1.2600    3.9200   -8.5330 C   0  0  0  0  0  0  0  0  0  0  0  0
    1.7160    4.9970   -7.7790 C   0  0  0  0  0  3  0  0  0  0  0  0
    1.5390    9.2500   -3.7320 C   0  0  0  0  0  1  0  0  0  0  0  0
    2.9020    9.0800   -4.2930 C   0  0  0  0  0  0  0  0  0  0  0  0
    3.9120    9.8430   -3.8610 N   0  0  0  0  0  0  0  0  0  0  0  0
    4.9690    9.4220   -4.5720 N   0  0  0  0  0  0  0  0  0  0  0  0
    4.6810    8.4140   -5.4500 C   0  0  0  0  0  0  0  0  0  0  0  0
    5.4680    7.7120   -6.3460 C   0  0  0  0  0  3  0  0  0  0  0  0
    4.8910    6.7440   -7.1030 N   0  0  0  0  0  0  0  0  0  0  0  0
    3.5550    6.4820   -6.9670 C   0  0  0  0  0  0  0  0  0  0  0  0
    2.7300    7.1640   -6.0720 C   0  0  0  0  0  3  0  0  0  0  0  0
    3.3260    8.1640   -5.2940 C   0  0  0  0  0  0  0  0  0  0  0  0
    5.8620    9.8720   -4.4030 H   0  0  0  0  0  0  0  0  0  0  0  0
   -0.9250    3.5040   -9.4850 C   0  0  0  0  0  2  0  0  0  0  0  0
   -2.2710    2.8380   -9.1170 C   0  0  1  0  0  3  0  0  0  0  0  0
   -2.0760    1.8220   -8.0210 N   0  0  0  0  0  4  0  0  0  0  0  0
   -1.7120    2.2280   -7.1470 H   0  0  0  0  0  0  0  0  0  0  0  0
   -2.9450    1.3190   -7.7980 H   0  0  0  0  0  0  0  0  0  0  0  0
   -1.3920    1.1110   -8.3210 H   0  0  0  0  0  0  0  0  0  0  0  0
   -3.3310    3.8510   -8.6610 C   0  0  0  0  0  2  0  0  0  0  0  0
   -3.0150    4.4550   -7.3340 C   0  0  0  0  0  0  0  0  0  0  0  0
   -3.3630    3.9440   -6.0990 C   0  0  0  0  0  3  0  0  0  0  0  0
   -2.8770    4.7860   -5.1310 N   0  0  0  0  0  0  0  0  0  0  0  0
   -2.2110    5.8380   -5.7150 C   0  0  0  0  0  0  0  0  0  0  0  0
   -1.5560    6.9220   -5.1200 C   0  0  0  0  0  3  0  0  0  0  0  0
   -0.9680    7.8670   -5.9640 C   0  0  0  0  0  3  0  0  0  0  0  0
   -1.0400    7.7330   -7.3480 C   0  0  0  0  0  3  0  0  0  0  0  0
   -1.6980    6.6420   -7.9270 C   0  0  0  0  0  3  0  0  0  0  0  0
   -2.2930    5.6690   -7.0960 C   0  0  0  0  0  0  0  0  0  0  0  0
   -2.9920    4.6650   -4.1340 H   0  0  0  0  0  0  0  0  0  0  0  0
  2  7  1  0  0  0  0
  2 15  1  0  0  0  0
  3  2  2  0  0  0  0
  4  5  2  0  0  0  0
  4  3  1  0  0  0  0
  5  6  1  0  0  0  0
  6  1  1  0  0  0  0
  6  7  2  0  0  0  0
  9 10  2  0  0  0  0
  9  8  1  0  0  0  0
 11 18  1  0  0  0  0
 11 10  1  0  0  0  0
 12 17  1  0  0  0  0
 12 11  1  0  0  0  0
 13 12  2  0  0  0  0
 14 15  2  0  0  0  0
 14 13  1  0  0  0  0
 15 16  1  0  0  0  0
 16 17  2  0  0  0  0
 17  9  1  0  0  0  0
 19  1  1  0  0  0  0
 20 19  1  1  0  0  0
 20 25  1  0  0  0  0
 20 21  1  0  0  0  0
 21 23  1  0  0  0  0
 21 22  1  0  0  0  0
 24 21  1  0  0  0  0
 25 26  1  0  0  0  0
 26 34  1  0  0  0  0
 26 27  2  0  0  0  0
 27 28  1  0  0  0  0
 28 35  1  0  0  0  0
 29 28  1  0  0  0  0
 29 30  1  0  0  0  0
 31 30  2  0  0  0  0
 32 31  1  0  0  0  0
 33 32  2  0  0  0  0
 33 34  1  0  0  0  0
 34 29  2  0  0  0  0
M  END
>  <minimizedAffinity>
-10.0170746

$$$$
