
 OpenBabel11232420213D

 35 39  0  0  1  0  0  0  0  0999 V2000
   -1.5330    8.1050   -5.4800 O   0  0  0  0  0  0  0  0  0  0  0  0
    0.3650    5.3510   -7.1100 C   0  0  0  0  0  0  0  0  0  0  0  0
   -0.5830    4.3640   -6.8510 C   0  0  0  0  0  3  0  0  0  0  0  0
   -1.7720    4.5910   -6.2450 N   0  0  0  0  0  0  0  0  0  0  0  0
   -2.0400    5.8590   -5.8690 C   0  0  0  0  0  3  0  0  0  0  0  0
   -1.1650    6.9220   -6.0480 C   0  0  0  0  0  0  0  0  0  0  0  0
    0.0300    6.6580   -6.7120 C   0  0  0  0  0  3  0  0  0  0  0  0
    5.9600    6.9750   -7.2480 C   0  0  0  0  0  1  0  0  0  0  0  0
    5.3620    5.8690   -8.0370 C   0  0  0  0  0  0  0  0  0  0  0  0
    6.1180    5.1470   -8.8720 N   0  0  0  0  0  0  0  0  0  0  0  0
    5.2640    4.2590   -9.4030 N   0  0  0  0  0  0  0  0  0  0  0  0
    3.9820    4.3780   -8.9420 C   0  0  0  0  0  0  0  0  0  0  0  0
    2.8250    3.6730   -9.2250 C   0  0  0  0  0  3  0  0  0  0  0  0
    1.6740    4.0280   -8.6000 N   0  0  0  0  0  0  0  0  0  0  0  0
    1.6780    5.0660   -7.7080 C   0  0  0  0  0  0  0  0  0  0  0  0
    2.8230    5.7980   -7.3930 C   0  0  0  0  0  3  0  0  0  0  0  0
    4.0090    5.4320   -8.0410 C   0  0  0  0  0  0  0  0  0  0  0  0
    5.6300    3.5950  -10.0760 H   0  0  0  0  0  0  0  0  0  0  0  0
   -1.7100    8.1920   -4.0620 C   0  0  0  0  0  2  0  0  0  0  0  0
   -0.6880    9.1680   -3.4350 C   0  0  1  0  0  3  0  0  0  0  0  0
   -1.3110    9.9210   -2.2880 N   0  0  0  0  0  4  0  0  0  0  0  0
   -1.6260    9.3090   -1.5210 H   0  0  0  0  0  0  0  0  0  0  0  0
   -0.6720   10.6220   -1.8910 H   0  0  0  0  0  0  0  0  0  0  0  0
   -2.1430   10.4330   -2.6170 H   0  0  0  0  0  0  0  0  0  0  0  0
    0.5760    8.4590   -2.9260 C   0  0  0  0  0  2  0  0  0  0  0  0
    1.7920    8.8210   -3.7090 C   0  0  0  0  0  0  0  0  0  0  0  0
    1.8980    8.8640   -5.0850 C   0  0  0  0  0  3  0  0  0  0  0  0
    3.1730    9.2520   -5.4080 N   0  0  0  0  0  0  0  0  0  0  0  0
    3.9020    9.4710   -4.2630 C   0  0  0  0  0  0  0  0  0  0  0  0
    5.2320    9.8820   -4.1150 C   0  0  0  0  0  3  0  0  0  0  0  0
    5.7290   10.0100   -2.8160 C   0  0  0  0  0  3  0  0  0  0  0  0
    4.9280    9.7330   -1.7120 C   0  0  0  0  0  3  0  0  0  0  0  0
    3.6000    9.3240   -1.8780 C   0  0  0  0  0  3  0  0  0  0  0  0
    3.0710    9.1930   -3.1800 C   0  0  0  0  0  0  0  0  0  0  0  0
    3.5360    9.3580   -6.3460 H   0  0  0  0  0  0  0  0  0  0  0  0
  1 19  1  0  0  0  0
  2  3  2  0  0  0  0
  2  7  1  0  0  0  0
  3  4  1  0  0  0  0
  4  5  2  0  0  0  0
  6  5  1  0  0  0  0
  6  1  1  0  0  0  0
  7  6  2  0  0  0  0
  9  8  1  0  0  0  0
 10  9  2  0  0  0  0
 11 12  1  0  0  0  0
 11 10  1  0  0  0  0
 12 17  1  0  0  0  0
 13 12  2  0  0  0  0
 13 14  1  0  0  0  0
 14 15  2  0  0  0  0
 15 16  1  0  0  0  0
 15  2  1  0  0  0  0
 17  9  1  0  0  0  0
 17 16  2  0  0  0  0
 18 11  1  0  0  0  0
 20 19  1  1  0  0  0
 20 25  1  0  0  0  0
 20 21  1  0  0  0  0
 21 23  1  0  0  0  0
 21 22  1  0  0  0  0
 24 21  1  0  0  0  0
 26 34  1  0  0  0  0
 26 25  1  0  0  0  0
 27 26  2  0  0  0  0
 28 27  1  0  0  0  0
 28 29  1  0  0  0  0
 29 30  2  0  0  0  0
 29 34  1  0  0  0  0
 30 31  1  0  0  0  0
 31 32  2  0  0  0  0
 33 32  1  0  0  0  0
 34 33  2  0  0  0  0
 35 28  1  0  0  0  0
M  END
>  <minimizedAffinity>
-10.009388

$$$$
