
 OpenBabel11232420213D

 35 39  0  0  1  0  0  0  0  0999 V2000
    1.1790    6.3930   -7.0070 O   0  0  0  0  0  0  0  0  0  0  0  0
   -1.3170    3.6380   -7.1650 C   0  0  0  0  0  0  0  0  0  0  0  0
   -0.5710    2.8310   -8.0210 C   0  0  0  0  0  3  0  0  0  0  0  0
    0.6730    3.1360   -8.4640 N   0  0  0  0  0  0  0  0  0  0  0  0
    1.2070    4.3010   -8.0440 C   0  0  0  0  0  3  0  0  0  0  0  0
    0.5520    5.2020   -7.2140 C   0  0  0  0  0  0  0  0  0  0  0  0
   -0.7070    4.8340   -6.7460 C   0  0  0  0  0  3  0  0  0  0  0  0
   -5.6090    5.0360   -3.4790 C   0  0  0  0  0  1  0  0  0  0  0  0
   -5.6660    3.9650   -4.5060 C   0  0  0  0  0  0  0  0  0  0  0  0
   -6.7670    3.2190   -4.6450 N   0  0  0  0  0  0  0  0  0  0  0  0
   -6.4670    2.3740   -5.6420 N   0  0  0  0  0  0  0  0  0  0  0  0
   -5.2110    2.5440   -6.1550 C   0  0  0  0  0  0  0  0  0  0  0  0
   -4.5280    1.8960   -7.1690 C   0  0  0  0  0  3  0  0  0  0  0  0
   -3.2630    2.2930   -7.4610 N   0  0  0  0  0  0  0  0  0  0  0  0
   -2.6920    3.3160   -6.7540 C   0  0  0  0  0  0  0  0  0  0  0  0
   -3.3490    3.9960   -5.7290 C   0  0  0  0  0  3  0  0  0  0  0  0
   -4.6530    3.5850   -5.4270 C   0  0  0  0  0  0  0  0  0  0  0  0
   -7.1750    1.7030   -5.9230 H   0  0  0  0  0  0  0  0  0  0  0  0
    2.5950    6.4960   -7.1930 C   0  0  0  0  0  2  0  0  0  0  0  0
    3.2500    7.2750   -6.0280 C   0  0  1  0  0  3  0  0  0  0  0  0
    4.7460    7.3310   -6.2050 N   0  0  0  0  0  4  0  0  0  0  0  0
    5.0370    7.8130   -7.0690 H   0  0  0  0  0  0  0  0  0  0  0  0
    5.2140    7.7900   -5.4130 H   0  0  0  0  0  0  0  0  0  0  0  0
    5.1270    6.3750   -6.2600 H   0  0  0  0  0  0  0  0  0  0  0  0
    2.7190    8.7100   -5.8990 C   0  0  0  0  0  2  0  0  0  0  0  0
    1.9240    8.9180   -4.6540 C   0  0  0  0  0  0  0  0  0  0  0  0
    2.4090    8.9040   -3.3620 C   0  0  0  0  0  3  0  0  0  0  0  0
    1.3650    9.1480   -2.5070 N   0  0  0  0  0  0  0  0  0  0  0  0
    0.2040    9.3290   -3.2210 C   0  0  0  0  0  0  0  0  0  0  0  0
   -1.0910    9.6050   -2.7690 C   0  0  0  0  0  3  0  0  0  0  0  0
   -2.1010    9.7240   -3.7260 C   0  0  0  0  0  3  0  0  0  0  0  0
   -1.8230    9.5680   -5.0820 C   0  0  0  0  0  3  0  0  0  0  0  0
   -0.5220    9.2920   -5.5180 C   0  0  0  0  0  3  0  0  0  0  0  0
    0.5170    9.1740   -4.5700 C   0  0  0  0  0  0  0  0  0  0  0  0
    1.4270    9.1850   -1.4970 H   0  0  0  0  0  0  0  0  0  0  0  0
  2 15  1  0  0  0  0
  2  7  1  0  0  0  0
  3  2  2  0  0  0  0
  4  5  2  0  0  0  0
  4  3  1  0  0  0  0
  5  6  1  0  0  0  0
  6  1  1  0  0  0  0
  6  7  2  0  0  0  0
  9  8  1  0  0  0  0
 10  9  2  0  0  0  0
 11 10  1  0  0  0  0
 12 11  1  0  0  0  0
 12 17  1  0  0  0  0
 13 12  2  0  0  0  0
 14 13  1  0  0  0  0
 14 15  2  0  0  0  0
 15 16  1  0  0  0  0
 16 17  2  0  0  0  0
 17  9  1  0  0  0  0
 18 11  1  0  0  0  0
 19  1  1  0  0  0  0
 20 19  1  6  0  0  0
 20 25  1  0  0  0  0
 21 20  1  0  0  0  0
 21 23  1  0  0  0  0
 22 21  1  0  0  0  0
 24 21  1  0  0  0  0
 25 26  1  0  0  0  0
 26 34  1  0  0  0  0
 26 27  2  0  0  0  0
 27 28  1  0  0  0  0
 28 35  1  0  0  0  0
 29 30  1  0  0  0  0
 29 28  1  0  0  0  0
 31 30  2  0  0  0  0
 32 31  1  0  0  0  0
 33 32  2  0  0  0  0
 33 34  1  0  0  0  0
 34 29  2  0  0  0  0
M  END
>  <minimizedAffinity>
-10.6004248

$$$$

 OpenBabel11232420213D

 35 39  0  0  1  0  0  0  0  0999 V2000
   -0.5190    7.9740   -5.7370 O   0  0  0  0  0  0  0  0  0  0  0  0
   -2.4500    4.7990   -5.9370 C   0  0  0  0  0  0  0  0  0  0  0  0
   -1.4760    4.0950   -6.6400 C   0  0  0  0  0  3  0  0  0  0  0  0
   -0.2620    4.5970   -6.9700 N   0  0  0  0  0  0  0  0  0  0  0  0
    0.0030    5.8640   -6.5910 C   0  0  0  0  0  3  0  0  0  0  0  0
   -0.8960    6.6760   -5.9120 C   0  0  0  0  0  0  0  0  0  0  0  0
   -2.1170    6.1110   -5.5540 C   0  0  0  0  0  3  0  0  0  0  0  0
   -7.3060    5.5600   -2.8070 C   0  0  0  0  0  1  0  0  0  0  0  0
   -7.0610    4.4540   -3.7660 C   0  0  0  0  0  0  0  0  0  0  0  0
   -7.9940    3.5180   -3.9720 N   0  0  0  0  0  0  0  0  0  0  0  0
   -7.4410    2.6980   -4.8790 N   0  0  0  0  0  0  0  0  0  0  0  0
   -6.1840    3.0690   -5.2690 C   0  0  0  0  0  0  0  0  0  0  0  0
   -5.2890    2.5120   -6.1650 C   0  0  0  0  0  3  0  0  0  0  0  0
   -4.0870    3.1160   -6.3490 N   0  0  0  0  0  0  0  0  0  0  0  0
   -3.7860    4.2540   -5.6510 C   0  0  0  0  0  0  0  0  0  0  0  0
   -4.6620    4.8490   -4.7430 C   0  0  0  0  0  3  0  0  0  0  0  0
   -5.9000    4.2230   -4.5530 C   0  0  0  0  0  0  0  0  0  0  0  0
   -7.9850    1.9010   -5.1890 H   0  0  0  0  0  0  0  0  0  0  0  0
   -1.3210    8.8470   -4.9350 C   0  0  0  0  0  2  0  0  0  0  0  0
   -0.4930    9.4510   -3.7760 C   0  0  1  0  0  3  0  0  0  0  0  0
   -1.3880    9.8070   -2.6170 N   0  0  0  0  0  4  0  0  0  0  0  0
   -1.8830    8.9960   -2.2190 H   0  0  0  0  0  0  0  0  0  0  0  0
   -0.8720   10.2670   -1.8550 H   0  0  0  0  0  0  0  0  0  0  0  0
   -2.1130   10.4710   -2.9260 H   0  0  0  0  0  0  0  0  0  0  0  0
    0.6050    8.5030   -3.2730 C   0  0  0  0  0  2  0  0  0  0  0  0
    1.9760    9.0530   -3.4740 C   0  0  0  0  0  0  0  0  0  0  0  0
    2.5790   10.0420   -2.7220 C   0  0  0  0  0  3  0  0  0  0  0  0
    3.8400   10.2530   -3.2180 N   0  0  0  0  0  0  0  0  0  0  0  0
    4.0740    9.4130   -4.2810 C   0  0  0  0  0  0  0  0  0  0  0  0
    5.2150    9.2770   -5.0800 C   0  0  0  0  0  3  0  0  0  0  0  0
    5.1730    8.3420   -6.1170 C   0  0  0  0  0  3  0  0  0  0  0  0
    4.0320    7.5780   -6.3460 C   0  0  0  0  0  3  0  0  0  0  0  0
    2.8990    7.7260   -5.5370 C   0  0  0  0  0  3  0  0  0  0  0  0
    2.9190    8.6590   -4.4780 C   0  0  0  0  0  0  0  0  0  0  0  0
    4.5050   10.9290   -2.8670 H   0  0  0  0  0  0  0  0  0  0  0  0
  1 19  1  0  0  0  0
  2 15  1  0  0  0  0
  2  7  1  0  0  0  0
  3  2  2  0  0  0  0
  4  3  1  0  0  0  0
  4  5  2  0  0  0  0
  5  6  1  0  0  0  0
  6  1  1  0  0  0  0
  6  7  2  0  0  0  0
  9  8  1  0  0  0  0
 10  9  2  0  0  0  0
 11 10  1  0  0  0  0
 12 11  1  0  0  0  0
 12 17  1  0  0  0  0
 13 12  2  0  0  0  0
 14 13  1  0  0  0  0
 14 15  2  0  0  0  0
 15 16  1  0  0  0  0
 16 17  2  0  0  0  0
 17  9  1  0  0  0  0
 18 11  1  0  0  0  0
 20 19  1  6  0  0  0
 20 25  1  0  0  0  0
 20 21  1  0  0  0  0
 21 22  1  0  0  0  0
 21 23  1  0  0  0  0
 24 21  1  0  0  0  0
 26 25  1  0  0  0  0
 26 27  2  0  0  0  0
 28 35  1  0  0  0  0
 28 27  1  0  0  0  0
 29 28  1  0  0  0  0
 30 29  2  0  0  0  0
 31 30  1  0  0  0  0
 32 31  2  0  0  0  0
 32 33  1  0  0  0  0
 33 34  2  0  0  0  0
 34 29  1  0  0  0  0
 34 26  1  0  0  0  0
M  END
>  <minimizedAffinity>
-10.3271637

$$$$

 OpenBabel11232420213D

 35 39  0  0  1  0  0  0  0  0999 V2000
   -0.5530    8.0680   -5.6180 O   0  0  0  0  0  0  0  0  0  0  0  0
   -2.3810    4.8550   -6.0460 C   0  0  0  0  0  0  0  0  0  0  0  0
   -1.4350    4.2750   -6.8880 C   0  0  0  0  0  3  0  0  0  0  0  0
   -0.2670    4.8620   -7.2400 N   0  0  0  0  0  0  0  0  0  0  0  0
   -0.0190    6.0900   -6.7390 C   0  0  0  0  0  3  0  0  0  0  0  0
   -0.8950    6.7830   -5.9130 C   0  0  0  0  0  0  0  0  0  0  0  0
   -2.0670    6.1300   -5.5400 C   0  0  0  0  0  3  0  0  0  0  0  0
   -6.0360    0.5660   -7.5280 C   0  0  0  0  0  1  0  0  0  0  0  0
   -6.2620    1.5590   -6.4470 C   0  0  0  0  0  0  0  0  0  0  0  0
   -7.3820    1.5210   -5.7170 N   0  0  0  0  0  0  0  0  0  0  0  0
   -7.2470    2.5420   -4.8570 N   0  0  0  0  0  0  0  0  0  0  0  0
   -6.0800    3.2400   -5.0030 C   0  0  0  0  0  0  0  0  0  0  0  0
   -5.5640    4.3340   -4.3310 C   0  0  0  0  0  3  0  0  0  0  0  0
   -4.3540    4.8200   -4.7080 N   0  0  0  0  0  0  0  0  0  0  0  0
   -3.6730    4.2250   -5.7350 C   0  0  0  0  0  0  0  0  0  0  0  0
   -4.1570    3.1180   -6.4330 C   0  0  0  0  0  3  0  0  0  0  0  0
   -5.4060    2.6200   -6.0450 C   0  0  0  0  0  0  0  0  0  0  0  0
   -7.9960    2.7020   -4.1930 H   0  0  0  0  0  0  0  0  0  0  0  0
   -1.3330    8.8160   -4.6790 C   0  0  0  0  0  2  0  0  0  0  0  0
   -0.4370    9.4210   -3.5720 C   0  0  1  0  0  3  0  0  0  0  0  0
   -1.2540    9.7390   -2.3470 N   0  0  0  0  0  4  0  0  0  0  0  0
   -1.7030    8.9110   -1.9280 H   0  0  0  0  0  0  0  0  0  0  0  0
   -0.6950   10.1990   -1.6160 H   0  0  0  0  0  0  0  0  0  0  0  0
   -2.0130   10.3920   -2.5930 H   0  0  0  0  0  0  0  0  0  0  0  0
    0.7130    8.4890   -3.1640 C   0  0  0  0  0  2  0  0  0  0  0  0
    2.0550    9.0860   -3.4240 C   0  0  0  0  0  0  0  0  0  0  0  0
    2.6500   10.1050   -2.7060 C   0  0  0  0  0  3  0  0  0  0  0  0
    3.8830   10.3540   -3.2530 N   0  0  0  0  0  0  0  0  0  0  0  0
    4.1070    9.5090   -4.3150 C   0  0  0  0  0  0  0  0  0  0  0  0
    5.2210    9.4030   -5.1550 C   0  0  0  0  0  3  0  0  0  0  0  0
    5.1730    8.4540   -6.1790 C   0  0  0  0  0  3  0  0  0  0  0  0
    4.0520    7.6470   -6.3550 C   0  0  0  0  0  3  0  0  0  0  0  0
    2.9470    7.7650   -5.5050 C   0  0  0  0  0  3  0  0  0  0  0  0
    2.9730    8.7110   -4.4590 C   0  0  0  0  0  0  0  0  0  0  0  0
    4.5370   11.0580   -2.9360 H   0  0  0  0  0  0  0  0  0  0  0  0
  1 19  1  0  0  0  0
  2 15  1  0  0  0  0
  2  7  1  0  0  0  0
  3  2  2  0  0  0  0
  4  3  1  0  0  0  0
  4  5  2  0  0  0  0
  5  6  1  0  0  0  0
  6  1  1  0  0  0  0
  6  7  2  0  0  0  0
  8  9  1  0  0  0  0
  9 17  1  0  0  0  0
  9 10  2  0  0  0  0
 10 11  1  0  0  0  0
 11 18  1  0  0  0  0
 12 11  1  0  0  0  0
 12 13  1  0  0  0  0
 14 13  2  0  0  0  0
 15 14  1  0  0  0  0
 16 17  1  0  0  0  0
 16 15  2  0  0  0  0
 17 12  2  0  0  0  0
 20 19  1  6  0  0  0
 20 25  1  0  0  0  0
 20 21  1  0  0  0  0
 21 22  1  0  0  0  0
 21 23  1  0  0  0  0
 24 21  1  0  0  0  0
 26 25  1  0  0  0  0
 26 27  2  0  0  0  0
 28 35  1  0  0  0  0
 28 27  1  0  0  0  0
 29 28  1  0  0  0  0
 30 29  2  0  0  0  0
 31 30  1  0  0  0  0
 32 31  2  0  0  0  0
 32 33  1  0  0  0  0
 33 34  2  0  0  0  0
 34 29  1  0  0  0  0
 34 26  1  0  0  0  0
M  END
>  <minimizedAffinity>
-10.2840252

$$$$

 OpenBabel11232420213D

 35 39  0  0  1  0  0  0  0  0999 V2000
    0.0380    3.3240   -8.4400 O   0  0  0  0  0  0  0  0  0  0  0  0
    3.0570    5.4180   -7.8510 C   0  0  0  0  0  0  0  0  0  0  0  0
    3.8710    4.7340   -8.7510 C   0  0  0  0  0  3  0  0  0  0  0  0
    3.4510    3.7100   -9.5310 N   0  0  0  0  0  0  0  0  0  0  0  0
    2.1600    3.3360   -9.4140 C   0  0  0  0  0  3  0  0  0  0  0  0
    1.2600    3.9200   -8.5330 C   0  0  0  0  0  0  0  0  0  0  0  0
    1.7160    4.9970   -7.7790 C   0  0  0  0  0  3  0  0  0  0  0  0
    1.5390    9.2500   -3.7320 C   0  0  0  0  0  1  0  0  0  0  0  0
    2.9020    9.0800   -4.2930 C   0  0  0  0  0  0  0  0  0  0  0  0
    3.9120    9.8430   -3.8610 N   0  0  0  0  0  0  0  0  0  0  0  0
    4.9690    9.4220   -4.5720 N   0  0  0  0  0  0  0  0  0  0  0  0
    4.6810    8.4140   -5.4500 C   0  0  0  0  0  0  0  0  0  0  0  0
    5.4680    7.7120   -6.3460 C   0  0  0  0  0  3  0  0  0  0  0  0
    4.8910    6.7440   -7.1030 N   0  0  0  0  0  0  0  0  0  0  0  0
    3.5550    6.4820   -6.9670 C   0  0  0  0  0  0  0  0  0  0  0  0
    2.7300    7.1640   -6.0720 C   0  0  0  0  0  3  0  0  0  0  0  0
    3.3260    8.1640   -5.2940 C   0  0  0  0  0  0  0  0  0  0  0  0
    5.8620    9.8720   -4.4030 H   0  0  0  0  0  0  0  0  0  0  0  0
   -0.9250    3.5040   -9.4850 C   0  0  0  0  0  2  0  0  0  0  0  0
   -2.2710    2.8380   -9.1170 C   0  0  1  0  0  3  0  0  0  0  0  0
   -2.0760    1.8220   -8.0210 N   0  0  0  0  0  4  0  0  0  0  0  0
   -1.7120    2.2280   -7.1470 H   0  0  0  0  0  0  0  0  0  0  0  0
   -2.9450    1.3190   -7.7980 H   0  0  0  0  0  0  0  0  0  0  0  0
   -1.3920    1.1110   -8.3210 H   0  0  0  0  0  0  0  0  0  0  0  0
   -3.3310    3.8510   -8.6610 C   0  0  0  0  0  2  0  0  0  0  0  0
   -3.0150    4.4550   -7.3340 C   0  0  0  0  0  0  0  0  0  0  0  0
   -3.3630    3.9440   -6.0990 C   0  0  0  0  0  3  0  0  0  0  0  0
   -2.8770    4.7860   -5.1310 N   0  0  0  0  0  0  0  0  0  0  0  0
   -2.2110    5.8380   -5.7150 C   0  0  0  0  0  0  0  0  0  0  0  0
   -1.5560    6.9220   -5.1200 C   0  0  0  0  0  3  0  0  0  0  0  0
   -0.9680    7.8670   -5.9640 C   0  0  0  0  0  3  0  0  0  0  0  0
   -1.0400    7.7330   -7.3480 C   0  0  0  0  0  3  0  0  0  0  0  0
   -1.6980    6.6420   -7.9270 C   0  0  0  0  0  3  0  0  0  0  0  0
   -2.2930    5.6690   -7.0960 C   0  0  0  0  0  0  0  0  0  0  0  0
   -2.9920    4.6650   -4.1340 H   0  0  0  0  0  0  0  0  0  0  0  0
  2  7  1  0  0  0  0
  2 15  1  0  0  0  0
  3  2  2  0  0  0  0
  4  5  2  0  0  0  0
  4  3  1  0  0  0  0
  5  6  1  0  0  0  0
  6  1  1  0  0  0  0
  6  7  2  0  0  0  0
  9 10  2  0  0  0  0
  9  8  1  0  0  0  0
 11 18  1  0  0  0  0
 11 10  1  0  0  0  0
 12 17  1  0  0  0  0
 12 11  1  0  0  0  0
 13 12  2  0  0  0  0
 14 15  2  0  0  0  0
 14 13  1  0  0  0  0
 15 16  1  0  0  0  0
 16 17  2  0  0  0  0
 17  9  1  0  0  0  0
 19  1  1  0  0  0  0
 20 19  1  1  0  0  0
 20 25  1  0  0  0  0
 20 21  1  0  0  0  0
 21 23  1  0  0  0  0
 21 22  1  0  0  0  0
 24 21  1  0  0  0  0
 25 26  1  0  0  0  0
 26 34  1  0  0  0  0
 26 27  2  0  0  0  0
 27 28  1  0  0  0  0
 28 35  1  0  0  0  0
 29 28  1  0  0  0  0
 29 30  1  0  0  0  0
 31 30  2  0  0  0  0
 32 31  1  0  0  0  0
 33 32  2  0  0  0  0
 33 34  1  0  0  0  0
 34 29  2  0  0  0  0
M  END
>  <minimizedAffinity>
-10.0170746

$$$$

 OpenBabel11232420213D

 35 39  0  0  1  0  0  0  0  0999 V2000
   -1.5330    8.1050   -5.4800 O   0  0  0  0  0  0  0  0  0  0  0  0
    0.3650    5.3510   -7.1100 C   0  0  0  0  0  0  0  0  0  0  0  0
   -0.5830    4.3640   -6.8510 C   0  0  0  0  0  3  0  0  0  0  0  0
   -1.7720    4.5910   -6.2450 N   0  0  0  0  0  0  0  0  0  0  0  0
   -2.0400    5.8590   -5.8690 C   0  0  0  0  0  3  0  0  0  0  0  0
   -1.1650    6.9220   -6.0480 C   0  0  0  0  0  0  0  0  0  0  0  0
    0.0300    6.6580   -6.7120 C   0  0  0  0  0  3  0  0  0  0  0  0
    5.9600    6.9750   -7.2480 C   0  0  0  0  0  1  0  0  0  0  0  0
    5.3620    5.8690   -8.0370 C   0  0  0  0  0  0  0  0  0  0  0  0
    6.1180    5.1470   -8.8720 N   0  0  0  0  0  0  0  0  0  0  0  0
    5.2640    4.2590   -9.4030 N   0  0  0  0  0  0  0  0  0  0  0  0
    3.9820    4.3780   -8.9420 C   0  0  0  0  0  0  0  0  0  0  0  0
    2.8250    3.6730   -9.2250 C   0  0  0  0  0  3  0  0  0  0  0  0
    1.6740    4.0280   -8.6000 N   0  0  0  0  0  0  0  0  0  0  0  0
    1.6780    5.0660   -7.7080 C   0  0  0  0  0  0  0  0  0  0  0  0
    2.8230    5.7980   -7.3930 C   0  0  0  0  0  3  0  0  0  0  0  0
    4.0090    5.4320   -8.0410 C   0  0  0  0  0  0  0  0  0  0  0  0
    5.6300    3.5950  -10.0760 H   0  0  0  0  0  0  0  0  0  0  0  0
   -1.7100    8.1920   -4.0620 C   0  0  0  0  0  2  0  0  0  0  0  0
   -0.6880    9.1680   -3.4350 C   0  0  1  0  0  3  0  0  0  0  0  0
   -1.3110    9.9210   -2.2880 N   0  0  0  0  0  4  0  0  0  0  0  0
   -1.6260    9.3090   -1.5210 H   0  0  0  0  0  0  0  0  0  0  0  0
   -0.6720   10.6220   -1.8910 H   0  0  0  0  0  0  0  0  0  0  0  0
   -2.1430   10.4330   -2.6170 H   0  0  0  0  0  0  0  0  0  0  0  0
    0.5760    8.4590   -2.9260 C   0  0  0  0  0  2  0  0  0  0  0  0
    1.7920    8.8210   -3.7090 C   0  0  0  0  0  0  0  0  0  0  0  0
    1.8980    8.8640   -5.0850 C   0  0  0  0  0  3  0  0  0  0  0  0
    3.1730    9.2520   -5.4080 N   0  0  0  0  0  0  0  0  0  0  0  0
    3.9020    9.4710   -4.2630 C   0  0  0  0  0  0  0  0  0  0  0  0
    5.2320    9.8820   -4.1150 C   0  0  0  0  0  3  0  0  0  0  0  0
    5.7290   10.0100   -2.8160 C   0  0  0  0  0  3  0  0  0  0  0  0
    4.9280    9.7330   -1.7120 C   0  0  0  0  0  3  0  0  0  0  0  0
    3.6000    9.3240   -1.8780 C   0  0  0  0  0  3  0  0  0  0  0  0
    3.0710    9.1930   -3.1800 C   0  0  0  0  0  0  0  0  0  0  0  0
    3.5360    9.3580   -6.3460 H   0  0  0  0  0  0  0  0  0  0  0  0
  1 19  1  0  0  0  0
  2  3  2  0  0  0  0
  2  7  1  0  0  0  0
  3  4  1  0  0  0  0
  4  5  2  0  0  0  0
  6  5  1  0  0  0  0
  6  1  1  0  0  0  0
  7  6  2  0  0  0  0
  9  8  1  0  0  0  0
 10  9  2  0  0  0  0
 11 12  1  0  0  0  0
 11 10  1  0  0  0  0
 12 17  1  0  0  0  0
 13 12  2  0  0  0  0
 13 14  1  0  0  0  0
 14 15  2  0  0  0  0
 15 16  1  0  0  0  0
 15  2  1  0  0  0  0
 17  9  1  0  0  0  0
 17 16  2  0  0  0  0
 18 11  1  0  0  0  0
 20 19  1  1  0  0  0
 20 25  1  0  0  0  0
 20 21  1  0  0  0  0
 21 23  1  0  0  0  0
 21 22  1  0  0  0  0
 24 21  1  0  0  0  0
 26 34  1  0  0  0  0
 26 25  1  0  0  0  0
 27 26  2  0  0  0  0
 28 27  1  0  0  0  0
 28 29  1  0  0  0  0
 29 30  2  0  0  0  0
 29 34  1  0  0  0  0
 30 31  1  0  0  0  0
 31 32  2  0  0  0  0
 33 32  1  0  0  0  0
 34 33  2  0  0  0  0
 35 28  1  0  0  0  0
M  END
>  <minimizedAffinity>
-10.009388

$$$$

 OpenBabel11232420213D

 35 39  0  0  1  0  0  0  0  0999 V2000
    3.8900    7.8820   -7.2140 O   0  0  0  0  0  0  0  0  0  0  0  0
    1.3230    5.1930   -7.3720 C   0  0  0  0  0  0  0  0  0  0  0  0
    2.0450    4.3710   -8.2340 C   0  0  0  0  0  3  0  0  0  0  0  0
    3.2940    4.6450   -8.6810 N   0  0  0  0  0  0  0  0  0  0  0  0
    3.8600    5.7940   -8.2580 C   0  0  0  0  0  3  0  0  0  0  0  0
    3.2320    6.7080   -7.4230 C   0  0  0  0  0  0  0  0  0  0  0  0
    1.9660    6.3720   -6.9510 C   0  0  0  0  0  3  0  0  0  0  0  0
   -2.9190    1.2000   -7.4790 C   0  0  0  0  0  1  0  0  0  0  0  0
   -3.0130    2.5440   -6.8560 C   0  0  0  0  0  0  0  0  0  0  0  0
   -4.1430    2.9330   -6.2550 N   0  0  0  0  0  0  0  0  0  0  0  0
   -3.8710    4.1720   -5.8180 N   0  0  0  0  0  0  0  0  0  0  0  0
   -2.6070    4.6000   -6.1140 C   0  0  0  0  0  0  0  0  0  0  0  0
   -1.9430    5.7850   -5.8470 C   0  0  0  0  0  3  0  0  0  0  0  0
   -0.6630    5.9270   -6.2760 N   0  0  0  0  0  0  0  0  0  0  0  0
   -0.0580    4.9060   -6.9580 C   0  0  0  0  0  0  0  0  0  0  0  0
   -0.6920    3.6960   -7.2420 C   0  0  0  0  0  3  0  0  0  0  0  0
   -2.0130    3.5520   -6.8010 C   0  0  0  0  0  0  0  0  0  0  0  0
   -4.6020    4.6680   -5.3200 H   0  0  0  0  0  0  0  0  0  0  0  0
    4.9510    7.9440   -6.2540 C   0  0  0  0  0  2  0  0  0  0  0  0
    4.4910    8.6650   -4.9660 C   0  0  1  0  0  3  0  0  0  0  0  0
    5.5690    9.5900   -4.4630 N   0  0  0  0  0  4  0  0  0  0  0  0
    5.8140   10.3350   -5.1330 H   0  0  0  0  0  0  0  0  0  0  0  0
    5.3140   10.0370   -3.5730 H   0  0  0  0  0  0  0  0  0  0  0  0
    6.4340    9.0560   -4.2890 H   0  0  0  0  0  0  0  0  0  0  0  0
    3.2040    9.4780   -5.1670 C   0  0  0  0  0  2  0  0  0  0  0  0
    2.1530    9.1480   -4.1620 C   0  0  0  0  0  0  0  0  0  0  0  0
    2.3650    8.7290   -2.8630 C   0  0  0  0  0  3  0  0  0  0  0  0
    1.1450    8.5440   -2.2650 N   0  0  0  0  0  0  0  0  0  0  0  0
    0.1360    8.8420   -3.1500 C   0  0  0  0  0  0  0  0  0  0  0  0
   -1.2510    8.8040   -2.9720 C   0  0  0  0  0  3  0  0  0  0  0  0
   -2.0540    9.1480   -4.0620 C   0  0  0  0  0  3  0  0  0  0  0  0
   -1.4890    9.5110   -5.2810 C   0  0  0  0  0  3  0  0  0  0  0  0
   -0.0990    9.5450   -5.4420 C   0  0  0  0  0  3  0  0  0  0  0  0
    0.7350    9.2090   -4.3550 C   0  0  0  0  0  0  0  0  0  0  0  0
    0.9970    8.2280   -1.3150 H   0  0  0  0  0  0  0  0  0  0  0  0
  1 19  1  0  0  0  0
  2 15  1  0  0  0  0
  2  7  1  0  0  0  0
  3  2  2  0  0  0  0
  4  5  2  0  0  0  0
  4  3  1  0  0  0  0
  5  6  1  0  0  0  0
  6  1  1  0  0  0  0
  6  7  2  0  0  0  0
  8  9  1  0  0  0  0
  9 17  1  0  0  0  0
  9 10  2  0  0  0  0
 10 11  1  0  0  0  0
 11 18  1  0  0  0  0
 12 13  1  0  0  0  0
 12 11  1  0  0  0  0
 14 13  2  0  0  0  0
 15 14  1  0  0  0  0
 16 15  2  0  0  0  0
 16 17  1  0  0  0  0
 17 12  2  0  0  0  0
 20 19  1  6  0  0  0
 20 21  1  0  0  0  0
 21 24  1  0  0  0  0
 21 23  1  0  0  0  0
 22 21  1  0  0  0  0
 25 20  1  0  0  0  0
 25 26  1  0  0  0  0
 26 27  2  0  0  0  0
 27 28  1  0  0  0  0
 28 35  1  0  0  0  0
 29 30  1  0  0  0  0
 29 28  1  0  0  0  0
 31 30  2  0  0  0  0
 32 31  1  0  0  0  0
 33 32  2  0  0  0  0
 33 34  1  0  0  0  0
 34 26  1  0  0  0  0
 34 29  2  0  0  0  0
M  END
>  <minimizedAffinity>
-9.94995022

$$$$

 OpenBabel11232420213D

 35 39  0  0  1  0  0  0  0  0999 V2000
   -1.0850    8.0860   -5.5840 O   0  0  0  0  0  0  0  0  0  0  0  0
   -2.6190    4.7030   -5.8070 C   0  0  0  0  0  0  0  0  0  0  0  0
   -1.5310    4.1050   -6.4390 C   0  0  0  0  0  3  0  0  0  0  0  0
   -0.3670    4.7400   -6.7160 N   0  0  0  0  0  0  0  0  0  0  0  0
   -0.2730    6.0370   -6.3560 C   0  0  0  0  0  3  0  0  0  0  0  0
   -1.2970    6.7500   -5.7470 C   0  0  0  0  0  0  0  0  0  0  0  0
   -2.4620    6.0520   -5.4400 C   0  0  0  0  0  3  0  0  0  0  0  0
   -6.1350    0.4890   -7.7670 C   0  0  0  0  0  1  0  0  0  0  0  0
   -6.4000    1.3610   -6.5950 C   0  0  0  0  0  0  0  0  0  0  0  0
   -7.5270    1.2200   -5.8880 N   0  0  0  0  0  0  0  0  0  0  0  0
   -7.4310    2.1510   -4.9270 N   0  0  0  0  0  0  0  0  0  0  0  0
   -6.2830    2.8920   -4.9860 C   0  0  0  0  0  0  0  0  0  0  0  0
   -5.8050    3.9250   -4.1990 C   0  0  0  0  0  3  0  0  0  0  0  0
   -4.6050    4.4800   -4.5080 N   0  0  0  0  0  0  0  0  0  0  0  0
   -3.8960    4.0100   -5.5790 C   0  0  0  0  0  0  0  0  0  0  0  0
   -4.3410    2.9670   -6.3930 C   0  0  0  0  0  3  0  0  0  0  0  0
   -5.5800    2.3990   -6.0750 C   0  0  0  0  0  0  0  0  0  0  0  0
   -8.1920    2.2230   -4.2610 H   0  0  0  0  0  0  0  0  0  0  0  0
   -1.6480    8.7660   -4.4570 C   0  0  0  0  0  2  0  0  0  0  0  0
   -0.5400    9.3680   -3.5630 C   0  0  1  0  0  3  0  0  0  0  0  0
   -1.1160    9.8430   -2.2540 N   0  0  0  0  0  4  0  0  0  0  0  0
   -1.5490    9.0880   -1.7000 H   0  0  0  0  0  0  0  0  0  0  0  0
   -0.4110   10.3030   -1.6630 H   0  0  0  0  0  0  0  0  0  0  0  0
   -1.8550   10.5390   -2.4290 H   0  0  0  0  0  0  0  0  0  0  0  0
    0.5910    8.3720   -3.2660 C   0  0  0  0  0  2  0  0  0  0  0  0
    1.8720    8.7420   -3.9350 C   0  0  0  0  0  0  0  0  0  0  0  0
    2.1130    8.7510   -5.2940 C   0  0  0  0  0  3  0  0  0  0  0  0
    3.4060    9.1610   -5.5010 N   0  0  0  0  0  0  0  0  0  0  0  0
    4.0130    9.4260   -4.2960 C   0  0  0  0  0  0  0  0  0  0  0  0
    5.3120    9.8720   -4.0280 C   0  0  0  0  0  3  0  0  0  0  0  0
    5.6750   10.0460   -2.6900 C   0  0  0  0  0  3  0  0  0  0  0  0
    4.7730    9.7790   -1.6640 C   0  0  0  0  0  3  0  0  0  0  0  0
    3.4770    9.3340   -1.9490 C   0  0  0  0  0  3  0  0  0  0  0  0
    3.0840    9.1580   -3.2920 C   0  0  0  0  0  0  0  0  0  0  0  0
    3.8580    9.2510   -6.4010 H   0  0  0  0  0  0  0  0  0  0  0  0
  1 19  1  0  0  0  0
  2 15  1  0  0  0  0
  2  7  1  0  0  0  0
  3  2  2  0  0  0  0
  4  3  1  0  0  0  0
  4  5  2  0  0  0  0
  5  6  1  0  0  0  0
  6  1  1  0  0  0  0
  6  7  2  0  0  0  0
  8  9  1  0  0  0  0
  9 17  1  0  0  0  0
  9 10  2  0  0  0  0
 10 11  1  0  0  0  0
 11 18  1  0  0  0  0
 12 11  1  0  0  0  0
 12 13  1  0  0  0  0
 14 13  2  0  0  0  0
 15 14  1  0  0  0  0
 16 17  1  0  0  0  0
 16 15  2  0  0  0  0
 17 12  2  0  0  0  0
 20 19  1  6  0  0  0
 20 25  1  0  0  0  0
 20 21  1  0  0  0  0
 21 22  1  0  0  0  0
 21 23  1  0  0  0  0
 24 21  1  0  0  0  0
 26 34  1  0  0  0  0
 26 25  1  0  0  0  0
 27 26  2  0  0  0  0
 28 27  1  0  0  0  0
 28 29  1  0  0  0  0
 29 30  2  0  0  0  0
 29 34  1  0  0  0  0
 30 31  1  0  0  0  0
 31 32  2  0  0  0  0
 33 32  1  0  0  0  0
 34 33  2  0  0  0  0
 35 28  1  0  0  0  0
M  END
>  <minimizedAffinity>
-9.93698883

$$$$

 OpenBabel11232420213D

 35 39  0  0  1  0  0  0  0  0999 V2000
   -0.4430    4.7410   -7.1670 O   0  0  0  0  0  0  0  0  0  0  0  0
    2.8530    6.4680   -7.2380 C   0  0  0  0  0  0  0  0  0  0  0  0
    3.5010    5.4870   -7.9840 C   0  0  0  0  0  3  0  0  0  0  0  0
    2.8960    4.3790   -8.4750 N   0  0  0  0  0  0  0  0  0  0  0  0
    1.5810    4.2280   -8.2120 C   0  0  0  0  0  3  0  0  0  0  0  0
    0.8330    5.1210   -7.4570 C   0  0  0  0  0  0  0  0  0  0  0  0
    1.4800    6.2690   -7.0050 C   0  0  0  0  0  3  0  0  0  0  0  0
    3.3360    9.8160   -2.4930 C   0  0  0  0  0  1  0  0  0  0  0  0
    4.0990    9.9900   -3.7550 C   0  0  0  0  0  0  0  0  0  0  0  0
    4.9860   10.9840   -3.8780 N   0  0  0  0  0  0  0  0  0  0  0  0
    5.4720   10.8380   -5.1200 N   0  0  0  0  0  0  0  0  0  0  0  0
    4.9320    9.7860   -5.8060 C   0  0  0  0  0  0  0  0  0  0  0  0
    5.1560    9.2990   -7.0820 C   0  0  0  0  0  3  0  0  0  0  0  0
    4.4550    8.2140   -7.5000 N   0  0  0  0  0  0  0  0  0  0  0  0
    3.5490    7.6270   -6.6590 C   0  0  0  0  0  0  0  0  0  0  0  0
    3.2990    8.0840   -5.3650 C   0  0  0  0  0  3  0  0  0  0  0  0
    4.0210    9.2050   -4.9370 C   0  0  0  0  0  0  0  0  0  0  0  0
    6.1760   11.4970   -5.4320 H   0  0  0  0  0  0  0  0  0  0  0  0
   -0.8100    3.3590   -7.2410 C   0  0  0  0  0  2  0  0  0  0  0  0
   -1.9360    3.0310   -6.2340 C   0  0  1  0  0  3  0  0  0  0  0  0
   -1.3980    3.0170   -4.8260 N   0  0  0  0  0  4  0  0  0  0  0  0
   -1.0060    3.9220   -4.5290 H   0  0  0  0  0  0  0  0  0  0  0  0
   -2.1130    2.7410   -4.1400 H   0  0  0  0  0  0  0  0  0  0  0  0
   -0.6350    2.3270   -4.7510 H   0  0  0  0  0  0  0  0  0  0  0  0
   -3.1030    4.0280   -6.3000 C   0  0  0  0  0  2  0  0  0  0  0  0
   -4.3470    3.5000   -5.6700 C   0  0  0  0  0  0  0  0  0  0  0  0
   -4.8910    3.9050   -4.4680 C   0  0  0  0  0  3  0  0  0  0  0  0
   -6.0390    3.1870   -4.2500 N   0  0  0  0  0  0  0  0  0  0  0  0
   -6.2580    2.3210   -5.2960 C   0  0  0  0  0  0  0  0  0  0  0  0
   -7.3000    1.4100   -5.4990 C   0  0  0  0  0  3  0  0  0  0  0  0
   -7.2650    0.6330   -6.6600 C   0  0  0  0  0  3  0  0  0  0  0  0
   -6.2240    0.7620   -7.5760 C   0  0  0  0  0  3  0  0  0  0  0  0
   -5.1890    1.6790   -7.3570 C   0  0  0  0  0  3  0  0  0  0  0  0
   -5.2060    2.4800   -6.1960 C   0  0  0  0  0  0  0  0  0  0  0  0
   -6.6390    3.2680   -3.4400 H   0  0  0  0  0  0  0  0  0  0  0  0
  2  7  1  0  0  0  0
  2 15  1  0  0  0  0
  3  2  2  0  0  0  0
  4  5  2  0  0  0  0
  4  3  1  0  0  0  0
  5  6  1  0  0  0  0
  6  1  1  0  0  0  0
  6  7  2  0  0  0  0
  9  8  1  0  0  0  0
 10  9  2  0  0  0  0
 11 10  1  0  0  0  0
 12 11  1  0  0  0  0
 12 17  1  0  0  0  0
 13 12  2  0  0  0  0
 14 13  1  0  0  0  0
 14 15  2  0  0  0  0
 15 16  1  0  0  0  0
 16 17  2  0  0  0  0
 17  9  1  0  0  0  0
 18 11  1  0  0  0  0
 19  1  1  0  0  0  0
 20 19  1  6  0  0  0
 20 21  1  0  0  0  0
 21 24  1  0  0  0  0
 21 22  1  0  0  0  0
 21 23  1  0  0  0  0
 25 20  1  0  0  0  0
 25 26  1  0  0  0  0
 26 27  2  0  0  0  0
 27 28  1  0  0  0  0
 28 35  1  0  0  0  0
 29 28  1  0  0  0  0
 30 29  1  0  0  0  0
 31 30  2  0  0  0  0
 32 33  2  0  0  0  0
 32 31  1  0  0  0  0
 33 34  1  0  0  0  0
 34 26  1  0  0  0  0
 34 29  2  0  0  0  0
M  END
>  <minimizedAffinity>
-9.73054886

$$$$

 OpenBabel11232420213D

 35 39  0  0  1  0  0  0  0  0999 V2000
   -1.4550    4.9940   -7.7670 O   0  0  0  0  0  0  0  0  0  0  0  0
    0.4310    7.1650   -5.4060 C   0  0  0  0  0  0  0  0  0  0  0  0
   -0.6710    7.4940   -4.6190 C   0  0  0  0  0  3  0  0  0  0  0  0
   -1.9170    7.0000   -4.8090 N   0  0  0  0  0  0  0  0  0  0  0  0
   -2.0880    6.1380   -5.8330 C   0  0  0  0  0  3  0  0  0  0  0  0
   -1.0760    5.7560   -6.7030 C   0  0  0  0  0  0  0  0  0  0  0  0
    0.2000    6.2520   -6.4510 C   0  0  0  0  0  3  0  0  0  0  0  0
    3.5150   10.9310   -2.2020 C   0  0  0  0  0  1  0  0  0  0  0  0
    4.0350   10.1420   -3.3470 C   0  0  0  0  0  0  0  0  0  0  0  0
    5.3110   10.2630   -3.7280 N   0  0  0  0  0  0  0  0  0  0  0  0
    5.4250    9.4220   -4.7670 N   0  0  0  0  0  0  0  0  0  0  0  0
    4.2680    8.7600   -5.0740 C   0  0  0  0  0  0  0  0  0  0  0  0
    3.9650    7.8250   -6.0490 C   0  0  0  0  0  3  0  0  0  0  0  0
    2.7010    7.3350   -6.1120 N   0  0  0  0  0  0  0  0  0  0  0  0
    1.7590    7.7680   -5.2200 C   0  0  0  0  0  0  0  0  0  0  0  0
    2.0260    8.7050   -4.2210 C   0  0  0  0  0  3  0  0  0  0  0  0
    3.3300    9.2120   -4.1580 C   0  0  0  0  0  0  0  0  0  0  0  0
    6.3290    9.3500   -5.2200 H   0  0  0  0  0  0  0  0  0  0  0  0
   -2.7630    5.1520   -8.3280 C   0  0  0  0  0  2  0  0  0  0  0  0
   -3.3990    3.7780   -8.6440 C   0  0  1  0  0  3  0  0  0  0  0  0
   -2.8860    3.2470   -9.9570 N   0  0  0  0  0  4  0  0  0  0  0  0
   -1.8660    3.0970   -9.9680 H   0  0  0  0  0  0  0  0  0  0  0  0
   -3.3380    2.3620  -10.2230 H   0  0  0  0  0  0  0  0  0  0  0  0
   -3.0910    3.9210  -10.7110 H   0  0  0  0  0  0  0  0  0  0  0  0
   -3.1250    2.7310   -7.5530 C   0  0  0  0  0  2  0  0  0  0  0  0
   -4.1860    2.7020   -6.5060 C   0  0  0  0  0  0  0  0  0  0  0  0
   -4.1740    3.3900   -5.3090 C   0  0  0  0  0  3  0  0  0  0  0  0
   -5.3340    3.1060   -4.6360 N   0  0  0  0  0  0  0  0  0  0  0  0
   -6.1100    2.2460   -5.3770 C   0  0  0  0  0  0  0  0  0  0  0  0
   -7.3660    1.7000   -5.0900 C   0  0  0  0  0  3  0  0  0  0  0  0
   -7.9250    0.8300   -6.0290 C   0  0  0  0  0  3  0  0  0  0  0  0
   -7.2500    0.5170   -7.2050 C   0  0  0  0  0  3  0  0  0  0  0  0
   -5.9950    1.0730   -7.4780 C   0  0  0  0  0  3  0  0  0  0  0  0
   -5.4110    1.9600   -6.5490 C   0  0  0  0  0  0  0  0  0  0  0  0
   -5.5890    3.4640   -3.7250 H   0  0  0  0  0  0  0  0  0  0  0  0
  1  6  1  0  0  0  0
  2 15  1  0  0  0  0
  2  3  1  0  0  0  0
  4  3  2  0  0  0  0
  5  4  1  0  0  0  0
  6  7  1  0  0  0  0
  6  5  2  0  0  0  0
  7  2  2  0  0  0  0
  9  8  1  0  0  0  0
 10  9  2  0  0  0  0
 11 10  1  0  0  0  0
 12 11  1  0  0  0  0
 12 17  1  0  0  0  0
 13 12  2  0  0  0  0
 14 13  1  0  0  0  0
 14 15  2  0  0  0  0
 15 16  1  0  0  0  0
 16 17  2  0  0  0  0
 17  9  1  0  0  0  0
 18 11  1  0  0  0  0
 19  1  1  0  0  0  0
 20 19  1  1  0  0  0
 20 25  1  0  0  0  0
 21 20  1  0  0  0  0
 22 21  1  0  0  0  0
 23 21  1  0  0  0  0
 24 21  1  0  0  0  0
 25 26  1  0  0  0  0
 26 27  2  0  0  0  0
 27 28  1  0  0  0  0
 28 35  1  0  0  0  0
 29 30  1  0  0  0  0
 29 28  1  0  0  0  0
 31 30  2  0  0  0  0
 32 31  1  0  0  0  0
 33 32  2  0  0  0  0
 33 34  1  0  0  0  0
 34 26  1  0  0  0  0
 34 29  2  0  0  0  0
M  END
>  <minimizedAffinity>
-9.66070652

$$$$
