
 OpenBabel11232420213D

 35 39  0  0  1  0  0  0  0  0999 V2000
    1.1790    6.3930   -7.0070 O   0  0  0  0  0  0  0  0  0  0  0  0
   -1.3170    3.6380   -7.1650 C   0  0  0  0  0  0  0  0  0  0  0  0
   -0.5710    2.8310   -8.0210 C   0  0  0  0  0  3  0  0  0  0  0  0
    0.6730    3.1360   -8.4640 N   0  0  0  0  0  0  0  0  0  0  0  0
    1.2070    4.3010   -8.0440 C   0  0  0  0  0  3  0  0  0  0  0  0
    0.5520    5.2020   -7.2140 C   0  0  0  0  0  0  0  0  0  0  0  0
   -0.7070    4.8340   -6.7460 C   0  0  0  0  0  3  0  0  0  0  0  0
   -5.6090    5.0360   -3.4790 C   0  0  0  0  0  1  0  0  0  0  0  0
   -5.6660    3.9650   -4.5060 C   0  0  0  0  0  0  0  0  0  0  0  0
   -6.7670    3.2190   -4.6450 N   0  0  0  0  0  0  0  0  0  0  0  0
   -6.4670    2.3740   -5.6420 N   0  0  0  0  0  0  0  0  0  0  0  0
   -5.2110    2.5440   -6.1550 C   0  0  0  0  0  0  0  0  0  0  0  0
   -4.5280    1.8960   -7.1690 C   0  0  0  0  0  3  0  0  0  0  0  0
   -3.2630    2.2930   -7.4610 N   0  0  0  0  0  0  0  0  0  0  0  0
   -2.6920    3.3160   -6.7540 C   0  0  0  0  0  0  0  0  0  0  0  0
   -3.3490    3.9960   -5.7290 C   0  0  0  0  0  3  0  0  0  0  0  0
   -4.6530    3.5850   -5.4270 C   0  0  0  0  0  0  0  0  0  0  0  0
   -7.1750    1.7030   -5.9230 H   0  0  0  0  0  0  0  0  0  0  0  0
    2.5950    6.4960   -7.1930 C   0  0  0  0  0  2  0  0  0  0  0  0
    3.2500    7.2750   -6.0280 C   0  0  1  0  0  3  0  0  0  0  0  0
    4.7460    7.3310   -6.2050 N   0  0  0  0  0  4  0  0  0  0  0  0
    5.0370    7.8130   -7.0690 H   0  0  0  0  0  0  0  0  0  0  0  0
    5.2140    7.7900   -5.4130 H   0  0  0  0  0  0  0  0  0  0  0  0
    5.1270    6.3750   -6.2600 H   0  0  0  0  0  0  0  0  0  0  0  0
    2.7190    8.7100   -5.8990 C   0  0  0  0  0  2  0  0  0  0  0  0
    1.9240    8.9180   -4.6540 C   0  0  0  0  0  0  0  0  0  0  0  0
    2.4090    8.9040   -3.3620 C   0  0  0  0  0  3  0  0  0  0  0  0
    1.3650    9.1480   -2.5070 N   0  0  0  0  0  0  0  0  0  0  0  0
    0.2040    9.3290   -3.2210 C   0  0  0  0  0  0  0  0  0  0  0  0
   -1.0910    9.6050   -2.7690 C   0  0  0  0  0  3  0  0  0  0  0  0
   -2.1010    9.7240   -3.7260 C   0  0  0  0  0  3  0  0  0  0  0  0
   -1.8230    9.5680   -5.0820 C   0  0  0  0  0  3  0  0  0  0  0  0
   -0.5220    9.2920   -5.5180 C   0  0  0  0  0  3  0  0  0  0  0  0
    0.5170    9.1740   -4.5700 C   0  0  0  0  0  0  0  0  0  0  0  0
    1.4270    9.1850   -1.4970 H   0  0  0  0  0  0  0  0  0  0  0  0
  2 15  1  0  0  0  0
  2  7  1  0  0  0  0
  3  2  2  0  0  0  0
  4  5  2  0  0  0  0
  4  3  1  0  0  0  0
  5  6  1  0  0  0  0
  6  1  1  0  0  0  0
  6  7  2  0  0  0  0
  9  8  1  0  0  0  0
 10  9  2  0  0  0  0
 11 10  1  0  0  0  0
 12 11  1  0  0  0  0
 12 17  1  0  0  0  0
 13 12  2  0  0  0  0
 14 13  1  0  0  0  0
 14 15  2  0  0  0  0
 15 16  1  0  0  0  0
 16 17  2  0  0  0  0
 17  9  1  0  0  0  0
 18 11  1  0  0  0  0
 19  1  1  0  0  0  0
 20 19  1  6  0  0  0
 20 25  1  0  0  0  0
 21 20  1  0  0  0  0
 21 23  1  0  0  0  0
 22 21  1  0  0  0  0
 24 21  1  0  0  0  0
 25 26  1  0  0  0  0
 26 34  1  0  0  0  0
 26 27  2  0  0  0  0
 27 28  1  0  0  0  0
 28 35  1  0  0  0  0
 29 30  1  0  0  0  0
 29 28  1  0  0  0  0
 31 30  2  0  0  0  0
 32 31  1  0  0  0  0
 33 32  2  0  0  0  0
 33 34  1  0  0  0  0
 34 29  2  0  0  0  0
M  END
>  <minimizedAffinity>
-10.6004248

$$$$
