
 OpenBabel11232420213D

 35 39  0  0  1  0  0  0  0  0999 V2000
   -0.5190    7.9740   -5.7370 O   0  0  0  0  0  0  0  0  0  0  0  0
   -2.4500    4.7990   -5.9370 C   0  0  0  0  0  0  0  0  0  0  0  0
   -1.4760    4.0950   -6.6400 C   0  0  0  0  0  3  0  0  0  0  0  0
   -0.2620    4.5970   -6.9700 N   0  0  0  0  0  0  0  0  0  0  0  0
    0.0030    5.8640   -6.5910 C   0  0  0  0  0  3  0  0  0  0  0  0
   -0.8960    6.6760   -5.9120 C   0  0  0  0  0  0  0  0  0  0  0  0
   -2.1170    6.1110   -5.5540 C   0  0  0  0  0  3  0  0  0  0  0  0
   -7.3060    5.5600   -2.8070 C   0  0  0  0  0  1  0  0  0  0  0  0
   -7.0610    4.4540   -3.7660 C   0  0  0  0  0  0  0  0  0  0  0  0
   -7.9940    3.5180   -3.9720 N   0  0  0  0  0  0  0  0  0  0  0  0
   -7.4410    2.6980   -4.8790 N   0  0  0  0  0  0  0  0  0  0  0  0
   -6.1840    3.0690   -5.2690 C   0  0  0  0  0  0  0  0  0  0  0  0
   -5.2890    2.5120   -6.1650 C   0  0  0  0  0  3  0  0  0  0  0  0
   -4.0870    3.1160   -6.3490 N   0  0  0  0  0  0  0  0  0  0  0  0
   -3.7860    4.2540   -5.6510 C   0  0  0  0  0  0  0  0  0  0  0  0
   -4.6620    4.8490   -4.7430 C   0  0  0  0  0  3  0  0  0  0  0  0
   -5.9000    4.2230   -4.5530 C   0  0  0  0  0  0  0  0  0  0  0  0
   -7.9850    1.9010   -5.1890 H   0  0  0  0  0  0  0  0  0  0  0  0
   -1.3210    8.8470   -4.9350 C   0  0  0  0  0  2  0  0  0  0  0  0
   -0.4930    9.4510   -3.7760 C   0  0  1  0  0  3  0  0  0  0  0  0
   -1.3880    9.8070   -2.6170 N   0  0  0  0  0  4  0  0  0  0  0  0
   -1.8830    8.9960   -2.2190 H   0  0  0  0  0  0  0  0  0  0  0  0
   -0.8720   10.2670   -1.8550 H   0  0  0  0  0  0  0  0  0  0  0  0
   -2.1130   10.4710   -2.9260 H   0  0  0  0  0  0  0  0  0  0  0  0
    0.6050    8.5030   -3.2730 C   0  0  0  0  0  2  0  0  0  0  0  0
    1.9760    9.0530   -3.4740 C   0  0  0  0  0  0  0  0  0  0  0  0
    2.5790   10.0420   -2.7220 C   0  0  0  0  0  3  0  0  0  0  0  0
    3.8400   10.2530   -3.2180 N   0  0  0  0  0  0  0  0  0  0  0  0
    4.0740    9.4130   -4.2810 C   0  0  0  0  0  0  0  0  0  0  0  0
    5.2150    9.2770   -5.0800 C   0  0  0  0  0  3  0  0  0  0  0  0
    5.1730    8.3420   -6.1170 C   0  0  0  0  0  3  0  0  0  0  0  0
    4.0320    7.5780   -6.3460 C   0  0  0  0  0  3  0  0  0  0  0  0
    2.8990    7.7260   -5.5370 C   0  0  0  0  0  3  0  0  0  0  0  0
    2.9190    8.6590   -4.4780 C   0  0  0  0  0  0  0  0  0  0  0  0
    4.5050   10.9290   -2.8670 H   0  0  0  0  0  0  0  0  0  0  0  0
  1 19  1  0  0  0  0
  2 15  1  0  0  0  0
  2  7  1  0  0  0  0
  3  2  2  0  0  0  0
  4  3  1  0  0  0  0
  4  5  2  0  0  0  0
  5  6  1  0  0  0  0
  6  1  1  0  0  0  0
  6  7  2  0  0  0  0
  9  8  1  0  0  0  0
 10  9  2  0  0  0  0
 11 10  1  0  0  0  0
 12 11  1  0  0  0  0
 12 17  1  0  0  0  0
 13 12  2  0  0  0  0
 14 13  1  0  0  0  0
 14 15  2  0  0  0  0
 15 16  1  0  0  0  0
 16 17  2  0  0  0  0
 17  9  1  0  0  0  0
 18 11  1  0  0  0  0
 20 19  1  6  0  0  0
 20 25  1  0  0  0  0
 20 21  1  0  0  0  0
 21 22  1  0  0  0  0
 21 23  1  0  0  0  0
 24 21  1  0  0  0  0
 26 25  1  0  0  0  0
 26 27  2  0  0  0  0
 28 35  1  0  0  0  0
 28 27  1  0  0  0  0
 29 28  1  0  0  0  0
 30 29  2  0  0  0  0
 31 30  1  0  0  0  0
 32 31  2  0  0  0  0
 32 33  1  0  0  0  0
 33 34  2  0  0  0  0
 34 29  1  0  0  0  0
 34 26  1  0  0  0  0
M  END
>  <minimizedAffinity>
-10.3271637

$$$$
