
 OpenBabel11232420213D

 35 39  0  0  1  0  0  0  0  0999 V2000
   -0.4430    4.7410   -7.1670 O   0  0  0  0  0  0  0  0  0  0  0  0
    2.8530    6.4680   -7.2380 C   0  0  0  0  0  0  0  0  0  0  0  0
    3.5010    5.4870   -7.9840 C   0  0  0  0  0  3  0  0  0  0  0  0
    2.8960    4.3790   -8.4750 N   0  0  0  0  0  0  0  0  0  0  0  0
    1.5810    4.2280   -8.2120 C   0  0  0  0  0  3  0  0  0  0  0  0
    0.8330    5.1210   -7.4570 C   0  0  0  0  0  0  0  0  0  0  0  0
    1.4800    6.2690   -7.0050 C   0  0  0  0  0  3  0  0  0  0  0  0
    3.3360    9.8160   -2.4930 C   0  0  0  0  0  1  0  0  0  0  0  0
    4.0990    9.9900   -3.7550 C   0  0  0  0  0  0  0  0  0  0  0  0
    4.9860   10.9840   -3.8780 N   0  0  0  0  0  0  0  0  0  0  0  0
    5.4720   10.8380   -5.1200 N   0  0  0  0  0  0  0  0  0  0  0  0
    4.9320    9.7860   -5.8060 C   0  0  0  0  0  0  0  0  0  0  0  0
    5.1560    9.2990   -7.0820 C   0  0  0  0  0  3  0  0  0  0  0  0
    4.4550    8.2140   -7.5000 N   0  0  0  0  0  0  0  0  0  0  0  0
    3.5490    7.6270   -6.6590 C   0  0  0  0  0  0  0  0  0  0  0  0
    3.2990    8.0840   -5.3650 C   0  0  0  0  0  3  0  0  0  0  0  0
    4.0210    9.2050   -4.9370 C   0  0  0  0  0  0  0  0  0  0  0  0
    6.1760   11.4970   -5.4320 H   0  0  0  0  0  0  0  0  0  0  0  0
   -0.8100    3.3590   -7.2410 C   0  0  0  0  0  2  0  0  0  0  0  0
   -1.9360    3.0310   -6.2340 C   0  0  1  0  0  3  0  0  0  0  0  0
   -1.3980    3.0170   -4.8260 N   0  0  0  0  0  4  0  0  0  0  0  0
   -1.0060    3.9220   -4.5290 H   0  0  0  0  0  0  0  0  0  0  0  0
   -2.1130    2.7410   -4.1400 H   0  0  0  0  0  0  0  0  0  0  0  0
   -0.6350    2.3270   -4.7510 H   0  0  0  0  0  0  0  0  0  0  0  0
   -3.1030    4.0280   -6.3000 C   0  0  0  0  0  2  0  0  0  0  0  0
   -4.3470    3.5000   -5.6700 C   0  0  0  0  0  0  0  0  0  0  0  0
   -4.8910    3.9050   -4.4680 C   0  0  0  0  0  3  0  0  0  0  0  0
   -6.0390    3.1870   -4.2500 N   0  0  0  0  0  0  0  0  0  0  0  0
   -6.2580    2.3210   -5.2960 C   0  0  0  0  0  0  0  0  0  0  0  0
   -7.3000    1.4100   -5.4990 C   0  0  0  0  0  3  0  0  0  0  0  0
   -7.2650    0.6330   -6.6600 C   0  0  0  0  0  3  0  0  0  0  0  0
   -6.2240    0.7620   -7.5760 C   0  0  0  0  0  3  0  0  0  0  0  0
   -5.1890    1.6790   -7.3570 C   0  0  0  0  0  3  0  0  0  0  0  0
   -5.2060    2.4800   -6.1960 C   0  0  0  0  0  0  0  0  0  0  0  0
   -6.6390    3.2680   -3.4400 H   0  0  0  0  0  0  0  0  0  0  0  0
  2  7  1  0  0  0  0
  2 15  1  0  0  0  0
  3  2  2  0  0  0  0
  4  5  2  0  0  0  0
  4  3  1  0  0  0  0
  5  6  1  0  0  0  0
  6  1  1  0  0  0  0
  6  7  2  0  0  0  0
  9  8  1  0  0  0  0
 10  9  2  0  0  0  0
 11 10  1  0  0  0  0
 12 11  1  0  0  0  0
 12 17  1  0  0  0  0
 13 12  2  0  0  0  0
 14 13  1  0  0  0  0
 14 15  2  0  0  0  0
 15 16  1  0  0  0  0
 16 17  2  0  0  0  0
 17  9  1  0  0  0  0
 18 11  1  0  0  0  0
 19  1  1  0  0  0  0
 20 19  1  6  0  0  0
 20 21  1  0  0  0  0
 21 24  1  0  0  0  0
 21 22  1  0  0  0  0
 21 23  1  0  0  0  0
 25 20  1  0  0  0  0
 25 26  1  0  0  0  0
 26 27  2  0  0  0  0
 27 28  1  0  0  0  0
 28 35  1  0  0  0  0
 29 28  1  0  0  0  0
 30 29  1  0  0  0  0
 31 30  2  0  0  0  0
 32 33  2  0  0  0  0
 32 31  1  0  0  0  0
 33 34  1  0  0  0  0
 34 26  1  0  0  0  0
 34 29  2  0  0  0  0
M  END
>  <minimizedAffinity>
-9.73054886

$$$$
