
 OpenBabel11232420213D

 35 39  0  0  1  0  0  0  0  0999 V2000
   -0.5530    8.0680   -5.6180 O   0  0  0  0  0  0  0  0  0  0  0  0
   -2.3810    4.8550   -6.0460 C   0  0  0  0  0  0  0  0  0  0  0  0
   -1.4350    4.2750   -6.8880 C   0  0  0  0  0  3  0  0  0  0  0  0
   -0.2670    4.8620   -7.2400 N   0  0  0  0  0  0  0  0  0  0  0  0
   -0.0190    6.0900   -6.7390 C   0  0  0  0  0  3  0  0  0  0  0  0
   -0.8950    6.7830   -5.9130 C   0  0  0  0  0  0  0  0  0  0  0  0
   -2.0670    6.1300   -5.5400 C   0  0  0  0  0  3  0  0  0  0  0  0
   -6.0360    0.5660   -7.5280 C   0  0  0  0  0  1  0  0  0  0  0  0
   -6.2620    1.5590   -6.4470 C   0  0  0  0  0  0  0  0  0  0  0  0
   -7.3820    1.5210   -5.7170 N   0  0  0  0  0  0  0  0  0  0  0  0
   -7.2470    2.5420   -4.8570 N   0  0  0  0  0  0  0  0  0  0  0  0
   -6.0800    3.2400   -5.0030 C   0  0  0  0  0  0  0  0  0  0  0  0
   -5.5640    4.3340   -4.3310 C   0  0  0  0  0  3  0  0  0  0  0  0
   -4.3540    4.8200   -4.7080 N   0  0  0  0  0  0  0  0  0  0  0  0
   -3.6730    4.2250   -5.7350 C   0  0  0  0  0  0  0  0  0  0  0  0
   -4.1570    3.1180   -6.4330 C   0  0  0  0  0  3  0  0  0  0  0  0
   -5.4060    2.6200   -6.0450 C   0  0  0  0  0  0  0  0  0  0  0  0
   -7.9960    2.7020   -4.1930 H   0  0  0  0  0  0  0  0  0  0  0  0
   -1.3330    8.8160   -4.6790 C   0  0  0  0  0  2  0  0  0  0  0  0
   -0.4370    9.4210   -3.5720 C   0  0  1  0  0  3  0  0  0  0  0  0
   -1.2540    9.7390   -2.3470 N   0  0  0  0  0  4  0  0  0  0  0  0
   -1.7030    8.9110   -1.9280 H   0  0  0  0  0  0  0  0  0  0  0  0
   -0.6950   10.1990   -1.6160 H   0  0  0  0  0  0  0  0  0  0  0  0
   -2.0130   10.3920   -2.5930 H   0  0  0  0  0  0  0  0  0  0  0  0
    0.7130    8.4890   -3.1640 C   0  0  0  0  0  2  0  0  0  0  0  0
    2.0550    9.0860   -3.4240 C   0  0  0  0  0  0  0  0  0  0  0  0
    2.6500   10.1050   -2.7060 C   0  0  0  0  0  3  0  0  0  0  0  0
    3.8830   10.3540   -3.2530 N   0  0  0  0  0  0  0  0  0  0  0  0
    4.1070    9.5090   -4.3150 C   0  0  0  0  0  0  0  0  0  0  0  0
    5.2210    9.4030   -5.1550 C   0  0  0  0  0  3  0  0  0  0  0  0
    5.1730    8.4540   -6.1790 C   0  0  0  0  0  3  0  0  0  0  0  0
    4.0520    7.6470   -6.3550 C   0  0  0  0  0  3  0  0  0  0  0  0
    2.9470    7.7650   -5.5050 C   0  0  0  0  0  3  0  0  0  0  0  0
    2.9730    8.7110   -4.4590 C   0  0  0  0  0  0  0  0  0  0  0  0
    4.5370   11.0580   -2.9360 H   0  0  0  0  0  0  0  0  0  0  0  0
  1 19  1  0  0  0  0
  2 15  1  0  0  0  0
  2  7  1  0  0  0  0
  3  2  2  0  0  0  0
  4  3  1  0  0  0  0
  4  5  2  0  0  0  0
  5  6  1  0  0  0  0
  6  1  1  0  0  0  0
  6  7  2  0  0  0  0
  8  9  1  0  0  0  0
  9 17  1  0  0  0  0
  9 10  2  0  0  0  0
 10 11  1  0  0  0  0
 11 18  1  0  0  0  0
 12 11  1  0  0  0  0
 12 13  1  0  0  0  0
 14 13  2  0  0  0  0
 15 14  1  0  0  0  0
 16 17  1  0  0  0  0
 16 15  2  0  0  0  0
 17 12  2  0  0  0  0
 20 19  1  6  0  0  0
 20 25  1  0  0  0  0
 20 21  1  0  0  0  0
 21 22  1  0  0  0  0
 21 23  1  0  0  0  0
 24 21  1  0  0  0  0
 26 25  1  0  0  0  0
 26 27  2  0  0  0  0
 28 35  1  0  0  0  0
 28 27  1  0  0  0  0
 29 28  1  0  0  0  0
 30 29  2  0  0  0  0
 31 30  1  0  0  0  0
 32 31  2  0  0  0  0
 32 33  1  0  0  0  0
 33 34  2  0  0  0  0
 34 29  1  0  0  0  0
 34 26  1  0  0  0  0
M  END
>  <minimizedAffinity>
-10.2840252

$$$$
