
 OpenBabel11232420213D

 35 39  0  0  1  0  0  0  0  0999 V2000
    3.8900    7.8820   -7.2140 O   0  0  0  0  0  0  0  0  0  0  0  0
    1.3230    5.1930   -7.3720 C   0  0  0  0  0  0  0  0  0  0  0  0
    2.0450    4.3710   -8.2340 C   0  0  0  0  0  3  0  0  0  0  0  0
    3.2940    4.6450   -8.6810 N   0  0  0  0  0  0  0  0  0  0  0  0
    3.8600    5.7940   -8.2580 C   0  0  0  0  0  3  0  0  0  0  0  0
    3.2320    6.7080   -7.4230 C   0  0  0  0  0  0  0  0  0  0  0  0
    1.9660    6.3720   -6.9510 C   0  0  0  0  0  3  0  0  0  0  0  0
   -2.9190    1.2000   -7.4790 C   0  0  0  0  0  1  0  0  0  0  0  0
   -3.0130    2.5440   -6.8560 C   0  0  0  0  0  0  0  0  0  0  0  0
   -4.1430    2.9330   -6.2550 N   0  0  0  0  0  0  0  0  0  0  0  0
   -3.8710    4.1720   -5.8180 N   0  0  0  0  0  0  0  0  0  0  0  0
   -2.6070    4.6000   -6.1140 C   0  0  0  0  0  0  0  0  0  0  0  0
   -1.9430    5.7850   -5.8470 C   0  0  0  0  0  3  0  0  0  0  0  0
   -0.6630    5.9270   -6.2760 N   0  0  0  0  0  0  0  0  0  0  0  0
   -0.0580    4.9060   -6.9580 C   0  0  0  0  0  0  0  0  0  0  0  0
   -0.6920    3.6960   -7.2420 C   0  0  0  0  0  3  0  0  0  0  0  0
   -2.0130    3.5520   -6.8010 C   0  0  0  0  0  0  0  0  0  0  0  0
   -4.6020    4.6680   -5.3200 H   0  0  0  0  0  0  0  0  0  0  0  0
    4.9510    7.9440   -6.2540 C   0  0  0  0  0  2  0  0  0  0  0  0
    4.4910    8.6650   -4.9660 C   0  0  1  0  0  3  0  0  0  0  0  0
    5.5690    9.5900   -4.4630 N   0  0  0  0  0  4  0  0  0  0  0  0
    5.8140   10.3350   -5.1330 H   0  0  0  0  0  0  0  0  0  0  0  0
    5.3140   10.0370   -3.5730 H   0  0  0  0  0  0  0  0  0  0  0  0
    6.4340    9.0560   -4.2890 H   0  0  0  0  0  0  0  0  0  0  0  0
    3.2040    9.4780   -5.1670 C   0  0  0  0  0  2  0  0  0  0  0  0
    2.1530    9.1480   -4.1620 C   0  0  0  0  0  0  0  0  0  0  0  0
    2.3650    8.7290   -2.8630 C   0  0  0  0  0  3  0  0  0  0  0  0
    1.1450    8.5440   -2.2650 N   0  0  0  0  0  0  0  0  0  0  0  0
    0.1360    8.8420   -3.1500 C   0  0  0  0  0  0  0  0  0  0  0  0
   -1.2510    8.8040   -2.9720 C   0  0  0  0  0  3  0  0  0  0  0  0
   -2.0540    9.1480   -4.0620 C   0  0  0  0  0  3  0  0  0  0  0  0
   -1.4890    9.5110   -5.2810 C   0  0  0  0  0  3  0  0  0  0  0  0
   -0.0990    9.5450   -5.4420 C   0  0  0  0  0  3  0  0  0  0  0  0
    0.7350    9.2090   -4.3550 C   0  0  0  0  0  0  0  0  0  0  0  0
    0.9970    8.2280   -1.3150 H   0  0  0  0  0  0  0  0  0  0  0  0
  1 19  1  0  0  0  0
  2 15  1  0  0  0  0
  2  7  1  0  0  0  0
  3  2  2  0  0  0  0
  4  5  2  0  0  0  0
  4  3  1  0  0  0  0
  5  6  1  0  0  0  0
  6  1  1  0  0  0  0
  6  7  2  0  0  0  0
  8  9  1  0  0  0  0
  9 17  1  0  0  0  0
  9 10  2  0  0  0  0
 10 11  1  0  0  0  0
 11 18  1  0  0  0  0
 12 13  1  0  0  0  0
 12 11  1  0  0  0  0
 14 13  2  0  0  0  0
 15 14  1  0  0  0  0
 16 15  2  0  0  0  0
 16 17  1  0  0  0  0
 17 12  2  0  0  0  0
 20 19  1  6  0  0  0
 20 21  1  0  0  0  0
 21 24  1  0  0  0  0
 21 23  1  0  0  0  0
 22 21  1  0  0  0  0
 25 20  1  0  0  0  0
 25 26  1  0  0  0  0
 26 27  2  0  0  0  0
 27 28  1  0  0  0  0
 28 35  1  0  0  0  0
 29 30  1  0  0  0  0
 29 28  1  0  0  0  0
 31 30  2  0  0  0  0
 32 31  1  0  0  0  0
 33 32  2  0  0  0  0
 33 34  1  0  0  0  0
 34 26  1  0  0  0  0
 34 29  2  0  0  0  0
M  END
>  <minimizedAffinity>
-9.94995022

$$$$
