
 OpenBabel11232420053D

 41 46  0  0  1  0  0  0  0  0999 V2000
  -13.8200   -5.5900   14.0580 C   0  0  0  0  0  0  0  0  0  0  0  0
  -13.6970   -4.2380   14.4050 C   0  0  0  0  0  3  0  0  0  0  0  0
  -12.4680   -3.5910   14.2640 C   0  0  0  0  0  3  0  0  0  0  0  0
  -11.3600   -4.3030   13.8070 C   0  0  0  0  0  0  0  0  0  0  0  0
  -11.4800   -5.6580   13.4720 C   0  0  0  0  0  0  0  0  0  0  0  0
  -12.7080   -6.3060   13.6050 C   0  0  0  0  0  3  0  0  0  0  0  0
  -10.3010   -6.3250   12.9750 C   0  0  0  0  0  0  0  0  0  0  0  0
  -10.1710   -7.5110   12.4280 N   0  0  0  0  0  0  0  0  0  0  0  0
   -8.8280   -7.6390   12.1330 C   0  0  0  0  0  0  0  0  0  0  0  0
   -8.1240   -6.5000   12.5120 C   0  0  0  0  0  0  0  0  0  0  0  0
   -9.1000   -5.6800   13.0340 N   0  0  0  0  0  0  0  0  0  0  0  0
   -8.9650   -4.3720   13.6470 C   0  0  0  0  0  2  0  0  0  0  0  0
  -10.1890   -3.6060   13.6500 O   0  0  0  0  0  0  0  0  0  0  0  0
   -6.7250   -6.1130   12.3920 C   0  0  0  0  0  0  0  0  0  0  0  0
   -5.8140   -6.4270   13.4080 C   0  0  0  0  0  3  0  0  0  0  0  0
   -4.4750   -6.0460   13.2930 C   0  0  0  0  0  3  0  0  0  0  0  0
   -4.0420   -5.3530   12.1640 C   0  0  0  0  0  3  0  0  0  0  0  0
   -4.9440   -5.0400   11.1480 C   0  0  0  0  0  3  0  0  0  0  0  0
   -6.2830   -5.4190   11.2600 C   0  0  0  0  0  3  0  0  0  0  0  0
   -8.3180   -8.8470   11.5020 C   0  0  0  0  0  0  0  0  0  0  0  0
   -8.1200  -10.0410   12.1950 C   0  0  0  0  0  3  0  0  0  0  0  0
   -7.6680  -11.1880   11.5280 C   0  0  0  0  0  3  0  0  0  0  0  0
   -7.4040  -11.1980   10.1410 C   0  0  0  0  0  0  0  0  0  0  0  0
   -7.6120   -9.9800    9.4650 C   0  0  0  0  0  3  0  0  0  0  0  0
   -8.0620   -8.8320   10.1270 C   0  0  0  0  0  3  0  0  0  0  0  0
   -6.9570  -12.5030    9.3830 C   0  0  1  0  0  0  0  0  0  0  0  0
   -7.7190  -12.9520    8.0980 C   0  0  0  0  0  2  0  0  0  0  0  0
   -6.3720  -13.5670    7.6110 C   0  0  1  0  0  0  0  0  0  0  0  0
   -6.1330  -13.4920    6.1150 C   0  0  0  0  0  1  0  0  0  0  0  0
   -5.6800  -12.4780    8.4840 C   0  0  0  0  0  2  0  0  0  0  0  0
   -6.9000  -13.6050   10.3790 N   0  0  0  0  0  4  0  0  0  0  0  0
   -6.2180  -13.4200   11.1220 H   0  0  0  0  0  0  0  0  0  0  0  0
   -7.8110  -13.7620   10.8260 H   0  0  0  0  0  0  0  0  0  0  0  0
   -6.6270  -14.4910    9.9100 H   0  0  0  0  0  0  0  0  0  0  0  0
   -6.1520  -14.9130    8.1130 O   0  0  0  0  0  0  0  0  0  0  0  0
   -5.5620  -15.3510    7.4640 H   0  0  0  0  0  0  0  0  0  0  0  0
  -15.9220   -5.7380   11.8910 C   0  0  0  0  0  1  0  0  0  0  0  0
  -16.0460   -6.2690   13.2300 N   0  0  0  0  0  0  0  0  0  0  0  0
  -15.1000   -6.3130   14.2200 C   0  0  0  0  0  0  0  0  0  0  0  0
  -15.2980   -6.9670   15.2410 O   0  0  0  0  0  0  0  0  0  0  0  0
  -16.8990   -6.7600   13.4700 H   0  0  0  0  0  0  0  0  0  0  0  0
  1 39  1  0  0  0  0
  1  2  1  0  0  0  0
  3  2  2  0  0  0  0
  4  3  1  0  0  0  0
  5  6  1  0  0  0  0
  5  4  2  0  0  0  0
  6  1  2  0  0  0  0
  7 11  1  0  0  0  0
  7  5  1  0  0  0  0
  8  7  2  0  0  0  0
  9  8  1  0  0  0  0
  9 10  2  0  0  0  0
 10 11  1  0  0  0  0
 11 12  1  0  0  0  0
 12 13  1  0  0  0  0
 13  4  1  0  0  0  0
 14 10  1  0  0  0  0
 14 15  1  0  0  0  0
 16 15  2  0  0  0  0
 17 16  1  0  0  0  0
 18 19  1  0  0  0  0
 18 17  2  0  0  0  0
 19 14  2  0  0  0  0
 20  9  1  0  0  0  0
 20 21  1  0  0  0  0
 22 21  2  0  0  0  0
 23 22  1  0  0  0  0
 24 25  1  0  0  0  0
 24 23  2  0  0  0  0
 25 20  2  0  0  0  0
 26 23  1  0  0  0  0
 26 31  1  1  0  0  0
 27 26  1  0  0  0  0
 28 29  1  6  0  0  0
 28 27  1  0  0  0  0
 28 35  1  0  0  0  0
 28 30  1  0  0  0  0
 30 26  1  0  0  0  0
 31 33  1  0  0  0  0
 31 32  1  0  0  0  0
 34 31  1  0  0  0  0
 36 35  1  0  0  0  0
 37 38  1  0  0  0  0
 38 41  1  0  0  0  0
 38 39  1  0  0  0  0
 39 40  2  0  0  0  0
M  END
>  <minimizedAffinity>
-4.66717815

$$$$
