
 OpenBabel11232420053D

 41 46  0  0  1  0  0  0  0  0999 V2000
   -2.3690  -11.5130   15.5270 C   0  0  0  0  0  0  0  0  0  0  0  0
   -1.4210  -10.5990   16.0050 C   0  0  0  0  0  3  0  0  0  0  0  0
   -1.4480   -9.2730   15.5660 C   0  0  0  0  0  3  0  0  0  0  0  0
   -2.4000   -8.8740   14.6300 C   0  0  0  0  0  0  0  0  0  0  0  0
   -3.3400   -9.7910   14.1440 C   0  0  0  0  0  0  0  0  0  0  0  0
   -3.3220  -11.1150   14.5840 C   0  0  0  0  0  3  0  0  0  0  0  0
   -4.3170   -9.3030   13.2010 C   0  0  0  0  0  0  0  0  0  0  0  0
   -5.3990   -9.8800   12.7320 N   0  0  0  0  0  0  0  0  0  0  0  0
   -5.9660   -8.9620   11.8700 C   0  0  0  0  0  0  0  0  0  0  0  0
   -5.2070   -7.7960   11.8140 C   0  0  0  0  0  0  0  0  0  0  0  0
   -4.1710   -8.0480   12.6850 N   0  0  0  0  0  0  0  0  0  0  0  0
   -3.0220   -7.2200   13.0040 C   0  0  0  0  0  2  0  0  0  0  0  0
   -2.4040   -7.5510   14.2660 O   0  0  0  0  0  0  0  0  0  0  0  0
   -5.3790   -6.5350   11.1070 C   0  0  0  0  0  0  0  0  0  0  0  0
   -5.5550   -5.3420   11.8180 C   0  0  0  0  0  3  0  0  0  0  0  0
   -5.7270   -4.1360   11.1360 C   0  0  0  0  0  3  0  0  0  0  0  0
   -5.7240   -4.1160    9.7420 C   0  0  0  0  0  3  0  0  0  0  0  0
   -5.5460   -5.3000    9.0280 C   0  0  0  0  0  3  0  0  0  0  0  0
   -5.3730   -6.5070    9.7070 C   0  0  0  0  0  3  0  0  0  0  0  0
   -7.2010   -9.2690   11.1650 C   0  0  0  0  0  0  0  0  0  0  0  0
   -8.4640   -9.0730   11.7240 C   0  0  0  0  0  3  0  0  0  0  0  0
   -9.6230   -9.3440   10.9830 C   0  0  0  0  0  3  0  0  0  0  0  0
   -9.5740   -9.8140    9.6540 C   0  0  0  0  0  0  0  0  0  0  0  0
   -8.2880  -10.0050    9.1130 C   0  0  0  0  0  3  0  0  0  0  0  0
   -7.1280   -9.7360    9.8490 C   0  0  0  0  0  3  0  0  0  0  0  0
  -10.8770  -10.0590    8.8030 C   0  0  1  0  0  0  0  0  0  0  0  0
  -12.2210   -9.4000    9.2390 C   0  0  0  0  0  2  0  0  0  0  0  0
  -12.6030   -9.3700    7.7270 C   0  0  1  0  0  0  0  0  0  0  0  0
  -13.4230   -8.1700    7.2930 C   0  0  0  0  0  1  0  0  0  0  0  0
  -11.0710   -9.3060    7.4490 C   0  0  0  0  0  2  0  0  0  0  0  0
  -11.0350  -11.5270    8.6370 N   0  0  0  0  0  4  0  0  0  0  0  0
  -10.2450  -11.9480    8.1360 H   0  0  0  0  0  0  0  0  0  0  0  0
  -11.1190  -12.0080    9.5400 H   0  0  0  0  0  0  0  0  0  0  0  0
  -11.8990  -11.7310    8.0950 H   0  0  0  0  0  0  0  0  0  0  0  0
  -13.2040  -10.6130    7.2720 O   0  0  0  0  0  0  0  0  0  0  0  0
  -13.7680  -10.3760    6.5060 H   0  0  0  0  0  0  0  0  0  0  0  0
   -0.6970  -13.6270   14.1600 C   0  0  0  0  0  1  0  0  0  0  0  0
   -1.6390  -13.8540   15.2330 N   0  0  0  0  0  0  0  0  0  0  0  0
   -2.3530  -12.9310   15.9500 C   0  0  0  0  0  0  0  0  0  0  0  0
   -2.9690  -13.2660   16.9570 O   0  0  0  0  0  0  0  0  0  0  0  0
   -1.7390  -14.7990   15.5860 H   0  0  0  0  0  0  0  0  0  0  0  0
  1 39  1  0  0  0  0
  1  2  1  0  0  0  0
  3  2  2  0  0  0  0
  4  3  1  0  0  0  0
  5  6  1  0  0  0  0
  5  4  2  0  0  0  0
  6  1  2  0  0  0  0
  7  5  1  0  0  0  0
  8  7  2  0  0  0  0
  9  8  1  0  0  0  0
 10  9  2  0  0  0  0
 10 11  1  0  0  0  0
 11 12  1  0  0  0  0
 11  7  1  0  0  0  0
 12 13  1  0  0  0  0
 13  4  1  0  0  0  0
 14 10  1  0  0  0  0
 14 15  1  0  0  0  0
 16 15  2  0  0  0  0
 17 16  1  0  0  0  0
 18 19  1  0  0  0  0
 18 17  2  0  0  0  0
 19 14  2  0  0  0  0
 20 21  1  0  0  0  0
 20  9  1  0  0  0  0
 22 21  2  0  0  0  0
 23 22  1  0  0  0  0
 24 23  2  0  0  0  0
 24 25  1  0  0  0  0
 25 20  2  0  0  0  0
 26 31  1  6  0  0  0
 26 27  1  0  0  0  0
 26 23  1  0  0  0  0
 28 29  1  6  0  0  0
 28 27  1  0  0  0  0
 30 28  1  0  0  0  0
 30 26  1  0  0  0  0
 31 33  1  0  0  0  0
 32 31  1  0  0  0  0
 34 31  1  0  0  0  0
 35 28  1  0  0  0  0
 36 35  1  0  0  0  0
 37 38  1  0  0  0  0
 38 41  1  0  0  0  0
 38 39  1  0  0  0  0
 39 40  2  0  0  0  0
M  END
>  <minimizedAffinity>
-5.45890379

$$$$

 OpenBabel11232420053D

 41 46  0  0  1  0  0  0  0  0999 V2000
   -7.8240  -13.4600    8.4390 C   0  0  0  0  0  0  0  0  0  0  0  0
   -6.5770  -13.5440    7.8080 C   0  0  0  0  0  3  0  0  0  0  0  0
   -5.6560  -12.5020    7.9420 C   0  0  0  0  0  3  0  0  0  0  0  0
   -5.9980  -11.3680    8.6780 C   0  0  0  0  0  0  0  0  0  0  0  0
   -7.2500  -11.2800    9.2980 C   0  0  0  0  0  0  0  0  0  0  0  0
   -8.1700  -12.3210    9.1730 C   0  0  0  0  0  3  0  0  0  0  0  0
   -7.5260  -10.0930   10.0710 C   0  0  0  0  0  0  0  0  0  0  0  0
   -8.5190   -9.8290   10.8870 N   0  0  0  0  0  0  0  0  0  0  0  0
   -8.2820   -8.5530   11.3600 C   0  0  0  0  0  0  0  0  0  0  0  0
   -7.1140   -8.0280   10.8160 C   0  0  0  0  0  0  0  0  0  0  0  0
   -6.6540   -9.0440   10.0070 N   0  0  0  0  0  0  0  0  0  0  0  0
   -5.4980   -9.0630    9.1310 C   0  0  0  0  0  2  0  0  0  0  0  0
   -5.0410  -10.3950    8.8070 O   0  0  0  0  0  0  0  0  0  0  0  0
   -6.4100   -6.7690   11.0080 C   0  0  0  0  0  0  0  0  0  0  0  0
   -5.5650   -6.5890   12.1100 C   0  0  0  0  0  3  0  0  0  0  0  0
   -4.8980   -5.3770   12.2950 C   0  0  0  0  0  3  0  0  0  0  0  0
   -5.0710   -4.3400   11.3800 C   0  0  0  0  0  3  0  0  0  0  0  0
   -5.9080   -4.5120   10.2790 C   0  0  0  0  0  3  0  0  0  0  0  0
   -6.5760   -5.7240   10.0910 C   0  0  0  0  0  3  0  0  0  0  0  0
   -9.1950   -7.9310   12.3080 C   0  0  0  0  0  0  0  0  0  0  0  0
   -9.0890   -6.5980   12.7020 C   0  0  0  0  0  3  0  0  0  0  0  0
  -10.0230   -6.0370   13.5840 C   0  0  0  0  0  3  0  0  0  0  0  0
  -11.1070   -6.7770   14.1040 C   0  0  0  0  0  0  0  0  0  0  0  0
  -11.1910   -8.1210   13.6910 C   0  0  0  0  0  3  0  0  0  0  0  0
  -10.2600   -8.6850   12.8100 C   0  0  0  0  0  3  0  0  0  0  0  0
  -12.1900   -6.1280   15.0450 C   0  0  1  0  0  0  0  0  0  0  0  0
  -12.3550   -4.5780   15.0820 C   0  0  0  0  0  2  0  0  0  0  0  0
  -13.8590   -4.8270   15.4100 C   0  0  1  0  0  0  0  0  0  0  0  0
  -14.8230   -3.8160   14.8180 C   0  0  0  0  0  1  0  0  0  0  0  0
  -13.6970   -6.1710   14.6370 C   0  0  0  0  0  2  0  0  0  0  0  0
  -11.9810   -6.6720   16.4120 N   0  0  0  0  0  4  0  0  0  0  0  0
  -12.0990   -7.6910   16.4460 H   0  0  0  0  0  0  0  0  0  0  0  0
  -11.0420   -6.4580   16.7700 H   0  0  0  0  0  0  0  0  0  0  0  0
  -12.6670   -6.2510   17.0690 H   0  0  0  0  0  0  0  0  0  0  0  0
  -14.1030   -5.0220   16.8290 O   0  0  0  0  0  0  0  0  0  0  0  0
  -15.0330   -4.7500   16.9830 H   0  0  0  0  0  0  0  0  0  0  0  0
   -8.1300  -15.7160   10.4270 C   0  0  0  0  0  1  0  0  0  0  0  0
   -8.8610  -15.5740    9.1890 N   0  0  0  0  0  0  0  0  0  0  0  0
   -8.8330  -14.5340    8.2970 C   0  0  0  0  0  0  0  0  0  0  0  0
   -9.6530  -14.4730    7.3860 O   0  0  0  0  0  0  0  0  0  0  0  0
   -9.5600  -16.2720    8.9660 H   0  0  0  0  0  0  0  0  0  0  0  0
  1  6  1  0  0  0  0
  2  3  1  0  0  0  0
  2  1  2  0  0  0  0
  3  4  2  0  0  0  0
  4 13  1  0  0  0  0
  4  5  1  0  0  0  0
  5  7  1  0  0  0  0
  6  5  2  0  0  0  0
  7  8  2  0  0  0  0
  8  9  1  0  0  0  0
  9 20  1  0  0  0  0
 10 14  1  0  0  0  0
 10  9  2  0  0  0  0
 11  7  1  0  0  0  0
 11 10  1  0  0  0  0
 12 11  1  0  0  0  0
 13 12  1  0  0  0  0
 14 15  1  0  0  0  0
 15 16  2  0  0  0  0
 17 16  1  0  0  0  0
 18 17  2  0  0  0  0
 19 18  1  0  0  0  0
 19 14  2  0  0  0  0
 20 21  2  0  0  0  0
 20 25  1  0  0  0  0
 21 22  1  0  0  0  0
 22 23  2  0  0  0  0
 23 26  1  0  0  0  0
 24 23  1  0  0  0  0
 25 24  2  0  0  0  0
 26 27  1  0  0  0  0
 26 31  1  1  0  0  0
 27 28  1  0  0  0  0
 28 29  1  6  0  0  0
 28 35  1  0  0  0  0
 30 26  1  0  0  0  0
 30 28  1  0  0  0  0
 31 32  1  0  0  0  0
 31 33  1  0  0  0  0
 31 34  1  0  0  0  0
 35 36  1  0  0  0  0
 38 37  1  0  0  0  0
 39  1  1  0  0  0  0
 39 38  1  0  0  0  0
 40 39  2  0  0  0  0
 41 38  1  0  0  0  0
M  END
>  <minimizedAffinity>
-5.44050884

$$$$

 OpenBabel11232420053D

 41 46  0  0  1  0  0  0  0  0999 V2000
    0.0700   -9.8450   15.6750 C   0  0  0  0  0  0  0  0  0  0  0  0
    0.5790   -8.6820   16.2660 C   0  0  0  0  0  3  0  0  0  0  0  0
   -0.0600   -7.4570   16.0590 C   0  0  0  0  0  3  0  0  0  0  0  0
   -1.1850   -7.3950   15.2380 C   0  0  0  0  0  0  0  0  0  0  0  0
   -1.6860   -8.5570   14.6370 C   0  0  0  0  0  0  0  0  0  0  0  0
   -1.0550   -9.7830   14.8460 C   0  0  0  0  0  3  0  0  0  0  0  0
   -2.8720   -8.4250   13.8250 C   0  0  0  0  0  0  0  0  0  0  0  0
   -3.6440   -9.3490   13.3040 N   0  0  0  0  0  0  0  0  0  0  0  0
   -4.6370   -8.6670   12.6300 C   0  0  0  0  0  0  0  0  0  0  0  0
   -4.4630   -7.2910   12.7440 C   0  0  0  0  0  0  0  0  0  0  0  0
   -3.3330   -7.1760   13.5240 N   0  0  0  0  0  0  0  0  0  0  0  0
   -2.6240   -5.9790   13.9370 C   0  0  0  0  0  2  0  0  0  0  0  0
   -1.7940   -6.1730   15.1030 O   0  0  0  0  0  0  0  0  0  0  0  0
   -5.2320   -6.1510   12.2670 C   0  0  0  0  0  0  0  0  0  0  0  0
   -6.3450   -5.6960   12.9840 C   0  0  0  0  0  3  0  0  0  0  0  0
   -7.0850   -4.6080   12.5180 C   0  0  0  0  0  3  0  0  0  0  0  0
   -6.7170   -3.9690   11.3350 C   0  0  0  0  0  3  0  0  0  0  0  0
   -5.6080   -4.4160   10.6180 C   0  0  0  0  0  3  0  0  0  0  0  0
   -4.8660   -5.5030   11.0810 C   0  0  0  0  0  3  0  0  0  0  0  0
   -5.6880   -9.3880   11.9270 C   0  0  0  0  0  0  0  0  0  0  0  0
   -6.6300  -10.1850   12.5790 C   0  0  0  0  0  3  0  0  0  0  0  0
   -7.6490  -10.8220   11.8570 C   0  0  0  0  0  3  0  0  0  0  0  0
   -7.7780  -10.6870   10.4580 C   0  0  0  0  0  0  0  0  0  0  0  0
   -6.8150   -9.8780    9.8240 C   0  0  0  0  0  3  0  0  0  0  0  0
   -5.7960   -9.2400   10.5410 C   0  0  0  0  0  3  0  0  0  0  0  0
   -8.9600  -11.3530    9.6580 C   0  0  1  0  0  0  0  0  0  0  0  0
  -10.2510  -11.7970   10.4110 C   0  0  0  0  0  2  0  0  0  0  0  0
  -11.0250  -11.5020    9.0900 C   0  0  1  0  0  0  0  0  0  0  0  0
  -12.4270  -10.9530    9.2730 C   0  0  0  0  0  1  0  0  0  0  0  0
   -9.9040  -10.4640    8.7870 C   0  0  0  0  0  2  0  0  0  0  0  0
   -8.3910  -12.4770    8.8700 N   0  0  0  0  0  4  0  0  0  0  0  0
   -7.6880  -12.1600    8.1940 H   0  0  0  0  0  0  0  0  0  0  0  0
   -7.9460  -13.1790    9.4730 H   0  0  0  0  0  0  0  0  0  0  0  0
   -9.1470  -12.9570    8.3420 H   0  0  0  0  0  0  0  0  0  0  0  0
  -11.0150  -12.6250    8.1670 O   0  0  0  0  0  0  0  0  0  0  0  0
  -11.8200  -12.5290    7.6150 H   0  0  0  0  0  0  0  0  0  0  0  0
    2.1150  -10.9340   13.7340 C   0  0  0  0  0  1  0  0  0  0  0  0
    1.5910  -11.6260   14.8890 N   0  0  0  0  0  0  0  0  0  0  0  0
    0.7380  -11.1540   15.8510 C   0  0  0  0  0  0  0  0  0  0  0  0
    0.5330  -11.8010   16.8740 O   0  0  0  0  0  0  0  0  0  0  0  0
    1.9520  -12.5500   15.0940 H   0  0  0  0  0  0  0  0  0  0  0  0
  1 39  1  0  0  0  0
  1  2  1  0  0  0  0
  3  2  2  0  0  0  0
  4  3  1  0  0  0  0
  5  6  1  0  0  0  0
  5  4  2  0  0  0  0
  6  1  2  0  0  0  0
  7  5  1  0  0  0  0
  8  7  2  0  0  0  0
  9 10  2  0  0  0  0
  9  8  1  0  0  0  0
 10 11  1  0  0  0  0
 11  7  1  0  0  0  0
 11 12  1  0  0  0  0
 12 13  1  0  0  0  0
 13  4  1  0  0  0  0
 14 10  1  0  0  0  0
 14 15  1  0  0  0  0
 16 15  2  0  0  0  0
 17 16  1  0  0  0  0
 18 19  1  0  0  0  0
 18 17  2  0  0  0  0
 19 14  2  0  0  0  0
 20 21  1  0  0  0  0
 20  9  1  0  0  0  0
 22 21  2  0  0  0  0
 23 22  1  0  0  0  0
 24 23  2  0  0  0  0
 24 25  1  0  0  0  0
 25 20  2  0  0  0  0
 26 31  1  6  0  0  0
 26 27  1  0  0  0  0
 26 23  1  0  0  0  0
 28 29  1  1  0  0  0
 28 27  1  0  0  0  0
 30 28  1  0  0  0  0
 30 26  1  0  0  0  0
 31 33  1  0  0  0  0
 32 31  1  0  0  0  0
 34 31  1  0  0  0  0
 35 28  1  0  0  0  0
 36 35  1  0  0  0  0
 37 38  1  0  0  0  0
 38 41  1  0  0  0  0
 38 39  1  0  0  0  0
 39 40  2  0  0  0  0
M  END
>  <minimizedAffinity>
-5.28701401

$$$$

 OpenBabel11232420053D

 41 46  0  0  1  0  0  0  0  0999 V2000
   -5.2700   -5.0270   12.5930 C   0  0  0  0  0  0  0  0  0  0  0  0
   -5.3990   -4.3370   11.3810 C   0  0  0  0  0  3  0  0  0  0  0  0
   -5.7230   -5.0320   10.2140 C   0  0  0  0  0  3  0  0  0  0  0  0
   -5.8850   -6.4160   10.2570 C   0  0  0  0  0  0  0  0  0  0  0  0
   -5.7430   -7.1070   11.4660 C   0  0  0  0  0  0  0  0  0  0  0  0
   -5.4270   -6.4160   12.6360 C   0  0  0  0  0  3  0  0  0  0  0  0
   -5.9560   -8.5340   11.4440 C   0  0  0  0  0  0  0  0  0  0  0  0
   -6.0650   -9.3860   12.4360 N   0  0  0  0  0  0  0  0  0  0  0  0
   -6.2670  -10.6190   11.8470 C   0  0  0  0  0  0  0  0  0  0  0  0
   -6.2810  -10.5120   10.4600 C   0  0  0  0  0  0  0  0  0  0  0  0
   -6.0910   -9.1650   10.2420 N   0  0  0  0  0  0  0  0  0  0  0  0
   -5.9550   -8.4520    8.9850 C   0  0  0  0  0  2  0  0  0  0  0  0
   -6.2410   -7.0410    9.0880 O   0  0  0  0  0  0  0  0  0  0  0  0
   -6.4920  -11.4800    9.3930 C   0  0  0  0  0  0  0  0  0  0  0  0
   -7.7120  -12.1570    9.2800 C   0  0  0  0  0  3  0  0  0  0  0  0
   -7.9070  -13.0900    8.2610 C   0  0  0  0  0  3  0  0  0  0  0  0
   -6.8850  -13.3510    7.3500 C   0  0  0  0  0  3  0  0  0  0  0  0
   -5.6680  -12.6790    7.4550 C   0  0  0  0  0  3  0  0  0  0  0  0
   -5.4710  -11.7450    8.4730 C   0  0  0  0  0  3  0  0  0  0  0  0
   -6.4390  -11.8120   12.6630 C   0  0  0  0  0  0  0  0  0  0  0  0
   -5.3830  -12.4390   13.3230 C   0  0  0  0  0  3  0  0  0  0  0  0
   -5.6120  -13.5610   14.1320 C   0  0  0  0  0  3  0  0  0  0  0  0
   -6.9020  -14.1000   14.3250 C   0  0  0  0  0  0  0  0  0  0  0  0
   -7.9510  -13.4490   13.6470 C   0  0  0  0  0  3  0  0  0  0  0  0
   -7.7270  -12.3290   12.8370 C   0  0  0  0  0  3  0  0  0  0  0  0
   -7.1650  -15.3220   15.2830 C   0  0  1  0  0  0  0  0  0  0  0  0
   -6.5910  -16.7270   14.9220 C   0  0  0  0  0  2  0  0  0  0  0  0
   -6.5060  -16.9960   16.4560 C   0  0  1  0  0  0  0  0  0  0  0  0
   -5.3250  -17.8400   16.8960 C   0  0  0  0  0  1  0  0  0  0  0  0
   -6.3560  -15.4530   16.6120 C   0  0  0  0  0  2  0  0  0  0  0  0
   -8.6290  -15.3940   15.5270 N   0  0  0  0  0  4  0  0  0  0  0  0
   -8.9880  -14.5480   15.9850 H   0  0  0  0  0  0  0  0  0  0  0  0
   -9.1570  -15.5210   14.6560 H   0  0  0  0  0  0  0  0  0  0  0  0
   -8.8460  -16.2030   16.1420 H   0  0  0  0  0  0  0  0  0  0  0  0
   -7.7510  -17.4980   17.0120 O   0  0  0  0  0  0  0  0  0  0  0  0
   -7.5030  -18.0150   17.8070 H   0  0  0  0  0  0  0  0  0  0  0  0
   -7.2720   -4.3210   14.7450 C   0  0  0  0  0  1  0  0  0  0  0  0
   -5.8730   -3.9590   14.7380 N   0  0  0  0  0  0  0  0  0  0  0  0
   -4.9020   -4.3250   13.8430 C   0  0  0  0  0  0  0  0  0  0  0  0
   -3.7190   -4.0930   14.0770 O   0  0  0  0  0  0  0  0  0  0  0  0
   -5.5100   -3.4450   15.5320 H   0  0  0  0  0  0  0  0  0  0  0  0
  1  6  1  0  0  0  0
  1 39  1  0  0  0  0
  2  1  2  0  0  0  0
  3  4  2  0  0  0  0
  3  2  1  0  0  0  0
  4  5  1  0  0  0  0
  5  6  2  0  0  0  0
  7  5  1  0  0  0  0
  7  8  2  0  0  0  0
  9  8  1  0  0  0  0
  9 20  1  0  0  0  0
 10  9  2  0  0  0  0
 11 10  1  0  0  0  0
 11  7  1  0  0  0  0
 12 13  1  0  0  0  0
 12 11  1  0  0  0  0
 13  4  1  0  0  0  0
 14 10  1  0  0  0  0
 15 14  1  0  0  0  0
 16 15  2  0  0  0  0
 17 18  2  0  0  0  0
 17 16  1  0  0  0  0
 18 19  1  0  0  0  0
 19 14  2  0  0  0  0
 20 25  2  0  0  0  0
 20 21  1  0  0  0  0
 21 22  2  0  0  0  0
 22 23  1  0  0  0  0
 23 26  1  0  0  0  0
 24 23  2  0  0  0  0
 25 24  1  0  0  0  0
 26 31  1  1  0  0  0
 26 30  1  0  0  0  0
 27 26  1  0  0  0  0
 27 28  1  0  0  0  0
 28 30  1  0  0  0  0
 28 29  1  1  0  0  0
 28 35  1  0  0  0  0
 31 32  1  0  0  0  0
 31 34  1  0  0  0  0
 33 31  1  0  0  0  0
 35 36  1  0  0  0  0
 38 37  1  0  0  0  0
 38 41  1  0  0  0  0
 39 40  2  0  0  0  0
 39 38  1  0  0  0  0
M  END
>  <minimizedAffinity>
-4.94685555

$$$$

 OpenBabel11232420053D

 41 46  0  0  1  0  0  0  0  0999 V2000
  -13.8210   -8.9960    7.3010 C   0  0  0  0  0  0  0  0  0  0  0  0
  -14.3810  -10.2540    7.0480 C   0  0  0  0  0  3  0  0  0  0  0  0
  -13.6820  -11.4120    7.3980 C   0  0  0  0  0  3  0  0  0  0  0  0
  -12.4140  -11.3080    7.9690 C   0  0  0  0  0  0  0  0  0  0  0  0
  -11.8500  -10.0490    8.2110 C   0  0  0  0  0  0  0  0  0  0  0  0
  -12.5470   -8.8910    7.8690 C   0  0  0  0  0  3  0  0  0  0  0  0
  -10.5490  -10.0140    8.8340 C   0  0  0  0  0  0  0  0  0  0  0  0
   -9.8770   -9.0010    9.3300 N   0  0  0  0  0  0  0  0  0  0  0  0
   -8.6970   -9.5350    9.8060 C   0  0  0  0  0  0  0  0  0  0  0  0
   -8.6490  -10.9090    9.5930 C   0  0  0  0  0  0  0  0  0  0  0  0
   -9.8530  -11.1790    8.9810 N   0  0  0  0  0  0  0  0  0  0  0  0
  -10.3550  -12.4400    8.4650 C   0  0  0  0  0  2  0  0  0  0  0  0
  -11.7920  -12.4770    8.3280 O   0  0  0  0  0  0  0  0  0  0  0  0
   -7.6690  -11.9320    9.9310 C   0  0  0  0  0  0  0  0  0  0  0  0
   -7.6810  -12.5350   11.1950 C   0  0  0  0  0  3  0  0  0  0  0  0
   -6.7350  -13.5090   11.5180 C   0  0  0  0  0  3  0  0  0  0  0  0
   -5.7730  -13.8850   10.5810 C   0  0  0  0  0  3  0  0  0  0  0  0
   -5.7570  -13.2900    9.3210 C   0  0  0  0  0  3  0  0  0  0  0  0
   -6.7030  -12.3170    8.9950 C   0  0  0  0  0  3  0  0  0  0  0  0
   -7.6990   -8.6840   10.4380 C   0  0  0  0  0  0  0  0  0  0  0  0
   -6.9310   -7.7600    9.7310 C   0  0  0  0  0  3  0  0  0  0  0  0
   -6.0150   -6.9330   10.3970 C   0  0  0  0  0  3  0  0  0  0  0  0
   -5.8310   -6.9860   11.7950 C   0  0  0  0  0  0  0  0  0  0  0  0
   -6.6180   -7.9280   12.4850 C   0  0  0  0  0  3  0  0  0  0  0  0
   -7.5330   -8.7560   11.8240 C   0  0  0  0  0  3  0  0  0  0  0  0
   -4.8470   -6.0150   12.5480 C   0  0  1  0  0  0  0  0  0  0  0  0
   -4.5790   -6.2130   14.0720 C   0  0  0  0  0  2  0  0  0  0  0  0
   -3.1570   -5.6260   13.8150 C   0  0  1  0  0  0  0  0  0  0  0  0
   -2.0500   -6.2260   14.6610 C   0  0  0  0  0  1  0  0  0  0  0  0
   -3.3050   -6.1790   12.3660 C   0  0  0  0  0  2  0  0  0  0  0  0
   -5.2840   -4.6230   12.2630 N   0  0  0  0  0  4  0  0  0  0  0  0
   -5.2440   -4.4020   11.2620 H   0  0  0  0  0  0  0  0  0  0  0  0
   -6.2460   -4.4520   12.5800 H   0  0  0  0  0  0  0  0  0  0  0  0
   -4.6690   -3.9500   12.7620 H   0  0  0  0  0  0  0  0  0  0  0  0
   -3.1290   -4.1740   13.8620 O   0  0  0  0  0  0  0  0  0  0  0  0
   -2.2130   -3.9290   14.1140 H   0  0  0  0  0  0  0  0  0  0  0  0
  -13.2720   -7.5130    4.7250 C   0  0  0  0  0  1  0  0  0  0  0  0
  -14.1640   -7.0820    5.7770 N   0  0  0  0  0  0  0  0  0  0  0  0
  -14.5220   -7.7500    6.9190 C   0  0  0  0  0  0  0  0  0  0  0  0
  -15.4360   -7.3330    7.6230 O   0  0  0  0  0  0  0  0  0  0  0  0
  -14.6780   -6.2200    5.6420 H   0  0  0  0  0  0  0  0  0  0  0  0
  1  6  1  0  0  0  0
  2  1  2  0  0  0  0
  2  3  1  0  0  0  0
  3  4  2  0  0  0  0
  4  5  1  0  0  0  0
  4 13  1  0  0  0  0
  5  7  1  0  0  0  0
  6  5  2  0  0  0  0
  7 11  1  0  0  0  0
  7  8  2  0  0  0  0
  8  9  1  0  0  0  0
  9 20  1  0  0  0  0
 10  9  2  0  0  0  0
 10 14  1  0  0  0  0
 11 10  1  0  0  0  0
 12 11  1  0  0  0  0
 13 12  1  0  0  0  0
 14 15  1  0  0  0  0
 15 16  2  0  0  0  0
 17 16  1  0  0  0  0
 18 17  2  0  0  0  0
 19 18  1  0  0  0  0
 19 14  2  0  0  0  0
 20 25  1  0  0  0  0
 21 22  1  0  0  0  0
 21 20  2  0  0  0  0
 22 23  2  0  0  0  0
 23 24  1  0  0  0  0
 23 26  1  0  0  0  0
 25 24  2  0  0  0  0
 26 31  1  6  0  0  0
 26 27  1  0  0  0  0
 28 35  1  0  0  0  0
 28 27  1  0  0  0  0
 28 29  1  1  0  0  0
 30 26  1  0  0  0  0
 30 28  1  0  0  0  0
 31 33  1  0  0  0  0
 31 34  1  0  0  0  0
 32 31  1  0  0  0  0
 35 36  1  0  0  0  0
 37 38  1  0  0  0  0
 38 39  1  0  0  0  0
 39  1  1  0  0  0  0
 39 40  2  0  0  0  0
 41 38  1  0  0  0  0
M  END
>  <minimizedAffinity>
-4.85371971

$$$$

 OpenBabel11232420053D

 41 46  0  0  1  0  0  0  0  0999 V2000
   -4.5370  -13.0350   14.9840 C   0  0  0  0  0  0  0  0  0  0  0  0
   -3.5120  -12.3710   15.6680 C   0  0  0  0  0  3  0  0  0  0  0  0
   -3.2520  -11.0250   15.3990 C   0  0  0  0  0  3  0  0  0  0  0  0
   -3.9950  -10.3590   14.4250 C   0  0  0  0  0  0  0  0  0  0  0  0
   -5.0120  -11.0280   13.7320 C   0  0  0  0  0  0  0  0  0  0  0  0
   -5.2800  -12.3690   14.0030 C   0  0  0  0  0  3  0  0  0  0  0  0
   -5.7630  -10.2690   12.7610 C   0  0  0  0  0  0  0  0  0  0  0  0
   -6.8610  -10.5810   12.1130 N   0  0  0  0  0  0  0  0  0  0  0  0
   -7.1460   -9.4880   11.3190 C   0  0  0  0  0  0  0  0  0  0  0  0
   -6.1950   -8.4860   11.4880 C   0  0  0  0  0  0  0  0  0  0  0  0
   -5.3360   -9.0170   12.4250 N   0  0  0  0  0  0  0  0  0  0  0  0
   -4.1100   -8.4570   12.9630 C   0  0  0  0  0  2  0  0  0  0  0  0
   -3.7220   -9.0280   14.2310 O   0  0  0  0  0  0  0  0  0  0  0  0
   -6.0540   -7.1490   10.9310 C   0  0  0  0  0  0  0  0  0  0  0  0
   -5.5170   -6.9670    9.6500 C   0  0  0  0  0  3  0  0  0  0  0  0
   -5.3750   -5.6820    9.1230 C   0  0  0  0  0  3  0  0  0  0  0  0
   -5.7700   -4.5740    9.8720 C   0  0  0  0  0  3  0  0  0  0  0  0
   -6.3070   -4.7480   11.1460 C   0  0  0  0  0  3  0  0  0  0  0  0
   -6.4500   -6.0320   11.6750 C   0  0  0  0  0  3  0  0  0  0  0  0
   -8.3180   -9.4840   10.4560 C   0  0  0  0  0  0  0  0  0  0  0  0
   -8.2370   -9.5220    9.0640 C   0  0  0  0  0  3  0  0  0  0  0  0
   -9.3990   -9.5610    8.2810 C   0  0  0  0  0  3  0  0  0  0  0  0
  -10.6900   -9.5720    8.8500 C   0  0  0  0  0  0  0  0  0  0  0  0
  -10.7450   -9.5330   10.2570 C   0  0  0  0  0  3  0  0  0  0  0  0
   -9.5870   -9.4930   11.0430 C   0  0  0  0  0  3  0  0  0  0  0  0
  -11.9930   -9.6790    7.9720 C   0  0  1  0  0  0  0  0  0  0  0  0
  -12.4350  -11.0640    7.4080 C   0  0  0  0  0  2  0  0  0  0  0  0
  -13.9020  -10.5410    7.4970 C   0  0  1  0  0  0  0  0  0  0  0  0
  -14.9380  -11.5880    7.8590 C   0  0  0  0  0  1  0  0  0  0  0  0
  -13.3950   -9.6310    8.6560 C   0  0  0  0  0  2  0  0  0  0  0  0
  -11.8840   -8.6730    6.8830 N   0  0  0  0  0  4  0  0  0  0  0  0
  -11.8220   -7.7150    7.2450 H   0  0  0  0  0  0  0  0  0  0  0  0
  -11.0580   -8.8350    6.2950 H   0  0  0  0  0  0  0  0  0  0  0  0
  -12.7190   -8.7270    6.2670 H   0  0  0  0  0  0  0  0  0  0  0  0
  -14.3040   -9.7840    6.3240 O   0  0  0  0  0  0  0  0  0  0  0  0
  -15.2790   -9.8700    6.2680 H   0  0  0  0  0  0  0  0  0  0  0  0
   -6.4990  -14.0030   17.0690 C   0  0  0  0  0  1  0  0  0  0  0  0
   -5.6580  -14.8400   16.2440 N   0  0  0  0  0  0  0  0  0  0  0  0
   -4.8220  -14.4670   15.2250 C   0  0  0  0  0  0  0  0  0  0  0  0
   -4.3170  -15.3130   14.4930 O   0  0  0  0  0  0  0  0  0  0  0  0
   -5.7420  -15.8440   16.3450 H   0  0  0  0  0  0  0  0  0  0  0  0
  1 39  1  0  0  0  0
  1  2  1  0  0  0  0
  3  2  2  0  0  0  0
  4  3  1  0  0  0  0
  5  6  1  0  0  0  0
  5  4  2  0  0  0  0
  6  1  2  0  0  0  0
  7  5  1  0  0  0  0
  8  7  2  0  0  0  0
  9 10  2  0  0  0  0
  9  8  1  0  0  0  0
 10 11  1  0  0  0  0
 11  7  1  0  0  0  0
 11 12  1  0  0  0  0
 12 13  1  0  0  0  0
 13  4  1  0  0  0  0
 14 10  1  0  0  0  0
 14 19  1  0  0  0  0
 15 14  2  0  0  0  0
 16 15  1  0  0  0  0
 16 17  2  0  0  0  0
 17 18  1  0  0  0  0
 18 19  2  0  0  0  0
 20 25  1  0  0  0  0
 20  9  1  0  0  0  0
 21 20  2  0  0  0  0
 22 23  2  0  0  0  0
 22 21  1  0  0  0  0
 23 24  1  0  0  0  0
 24 25  2  0  0  0  0
 26 31  1  6  0  0  0
 26 30  1  0  0  0  0
 26 23  1  0  0  0  0
 27 28  1  0  0  0  0
 27 26  1  0  0  0  0
 28 29  1  1  0  0  0
 28 30  1  0  0  0  0
 31 32  1  0  0  0  0
 33 31  1  0  0  0  0
 34 31  1  0  0  0  0
 35 28  1  0  0  0  0
 36 35  1  0  0  0  0
 38 41  1  0  0  0  0
 38 37  1  0  0  0  0
 39 38  1  0  0  0  0
 40 39  2  0  0  0  0
M  END
>  <minimizedAffinity>
-4.73868895

$$$$

 OpenBabel11232420053D

 41 46  0  0  1  0  0  0  0  0999 V2000
   -6.0850   -5.1550   12.7780 C   0  0  0  0  0  0  0  0  0  0  0  0
   -6.1000   -4.4360   11.5760 C   0  0  0  0  0  3  0  0  0  0  0  0
   -6.2370   -5.1110   10.3610 C   0  0  0  0  0  3  0  0  0  0  0  0
   -6.3260   -6.5020   10.3490 C   0  0  0  0  0  0  0  0  0  0  0  0
   -6.2980   -7.2220   11.5500 C   0  0  0  0  0  0  0  0  0  0  0  0
   -6.1690   -6.5510   12.7660 C   0  0  0  0  0  3  0  0  0  0  0  0
   -6.4280   -8.6560   11.4670 C   0  0  0  0  0  0  0  0  0  0  0  0
   -6.6120   -9.5440   12.4160 N   0  0  0  0  0  0  0  0  0  0  0  0
   -6.6710  -10.7660   11.7760 C   0  0  0  0  0  0  0  0  0  0  0  0
   -6.5170  -10.6170   10.4010 C   0  0  0  0  0  0  0  0  0  0  0  0
   -6.3760   -9.2560   10.2420 N   0  0  0  0  0  0  0  0  0  0  0  0
   -6.1250   -8.4980    9.0300 C   0  0  0  0  0  2  0  0  0  0  0  0
   -6.4990   -7.1070    9.1300 O   0  0  0  0  0  0  0  0  0  0  0  0
   -6.5390  -11.5610    9.2930 C   0  0  0  0  0  0  0  0  0  0  0  0
   -7.6400  -12.4050    9.1020 C   0  0  0  0  0  3  0  0  0  0  0  0
   -7.6530  -13.3140    8.0430 C   0  0  0  0  0  3  0  0  0  0  0  0
   -6.5680  -13.3840    7.1710 C   0  0  0  0  0  3  0  0  0  0  0  0
   -5.4700  -12.5460    7.3540 C   0  0  0  0  0  3  0  0  0  0  0  0
   -5.4550  -11.6350    8.4110 C   0  0  0  0  0  3  0  0  0  0  0  0
   -6.8760  -11.9910   12.5340 C   0  0  0  0  0  0  0  0  0  0  0  0
   -5.8780  -12.9480   12.7180 C   0  0  0  0  0  3  0  0  0  0  0  0
   -6.1170  -14.0900   13.4950 C   0  0  0  0  0  3  0  0  0  0  0  0
   -7.3560  -14.3240   14.1290 C   0  0  0  0  0  0  0  0  0  0  0  0
   -8.3470  -13.3430   13.9280 C   0  0  0  0  0  3  0  0  0  0  0  0
   -8.1130  -12.2020   13.1520 C   0  0  0  0  0  3  0  0  0  0  0  0
   -7.6020  -15.5760   15.0520 C   0  0  1  0  0  0  0  0  0  0  0  0
   -8.7160  -15.5270   16.1420 C   0  0  0  0  0  2  0  0  0  0  0  0
   -8.8700  -17.0650   15.9380 C   0  0  1  0  0  0  0  0  0  0  0  0
  -10.2840  -17.5960   16.0810 C   0  0  0  0  0  1  0  0  0  0  0  0
   -8.3600  -16.8180   14.4870 C   0  0  0  0  0  2  0  0  0  0  0  0
   -6.2950  -15.9590   15.6460 N   0  0  0  0  0  4  0  0  0  0  0  0
   -5.6070  -16.2220   14.9320 H   0  0  0  0  0  0  0  0  0  0  0  0
   -5.8890  -15.1970   16.2020 H   0  0  0  0  0  0  0  0  0  0  0  0
   -6.4200  -16.7730   16.2800 H   0  0  0  0  0  0  0  0  0  0  0  0
   -7.9340  -17.8370   16.7380 O   0  0  0  0  0  0  0  0  0  0  0  0
   -8.3550  -18.7110   16.8800 H   0  0  0  0  0  0  0  0  0  0  0  0
   -3.3830   -4.5740   14.0000 C   0  0  0  0  0  1  0  0  0  0  0  0
   -4.6640   -4.3200   14.6170 N   0  0  0  0  0  0  0  0  0  0  0  0
   -5.9150   -4.4750   14.0810 C   0  0  0  0  0  0  0  0  0  0  0  0
   -6.9020   -4.0370   14.6650 O   0  0  0  0  0  0  0  0  0  0  0  0
   -4.6730   -3.8840   15.5320 H   0  0  0  0  0  0  0  0  0  0  0  0
  1 39  1  0  0  0  0
  2  1  2  0  0  0  0
  3  2  1  0  0  0  0
  4  3  2  0  0  0  0
  4  5  1  0  0  0  0
  5  6  2  0  0  0  0
  6  1  1  0  0  0  0
  7  5  1  0  0  0  0
  7  8  2  0  0  0  0
  9  8  1  0  0  0  0
  9 20  1  0  0  0  0
 10  9  2  0  0  0  0
 11 10  1  0  0  0  0
 11  7  1  0  0  0  0
 12 13  1  0  0  0  0
 12 11  1  0  0  0  0
 13  4  1  0  0  0  0
 14 10  1  0  0  0  0
 15 14  1  0  0  0  0
 16 15  2  0  0  0  0
 17 18  2  0  0  0  0
 17 16  1  0  0  0  0
 18 19  1  0  0  0  0
 19 14  2  0  0  0  0
 20 21  2  0  0  0  0
 20 25  1  0  0  0  0
 21 22  1  0  0  0  0
 22 23  2  0  0  0  0
 23 26  1  0  0  0  0
 24 23  1  0  0  0  0
 25 24  2  0  0  0  0
 26 31  1  1  0  0  0
 26 27  1  0  0  0  0
 28 29  1  1  0  0  0
 28 27  1  0  0  0  0
 28 35  1  0  0  0  0
 30 26  1  0  0  0  0
 30 28  1  0  0  0  0
 31 33  1  0  0  0  0
 31 34  1  0  0  0  0
 32 31  1  0  0  0  0
 35 36  1  0  0  0  0
 37 38  1  0  0  0  0
 38 41  1  0  0  0  0
 39 38  1  0  0  0  0
 39 40  2  0  0  0  0
M  END
>  <minimizedAffinity>
-4.69395113

$$$$

 OpenBabel11232420053D

 41 46  0  0  1  0  0  0  0  0999 V2000
  -13.8200   -5.5900   14.0580 C   0  0  0  0  0  0  0  0  0  0  0  0
  -13.6970   -4.2380   14.4050 C   0  0  0  0  0  3  0  0  0  0  0  0
  -12.4680   -3.5910   14.2640 C   0  0  0  0  0  3  0  0  0  0  0  0
  -11.3600   -4.3030   13.8070 C   0  0  0  0  0  0  0  0  0  0  0  0
  -11.4800   -5.6580   13.4720 C   0  0  0  0  0  0  0  0  0  0  0  0
  -12.7080   -6.3060   13.6050 C   0  0  0  0  0  3  0  0  0  0  0  0
  -10.3010   -6.3250   12.9750 C   0  0  0  0  0  0  0  0  0  0  0  0
  -10.1710   -7.5110   12.4280 N   0  0  0  0  0  0  0  0  0  0  0  0
   -8.8280   -7.6390   12.1330 C   0  0  0  0  0  0  0  0  0  0  0  0
   -8.1240   -6.5000   12.5120 C   0  0  0  0  0  0  0  0  0  0  0  0
   -9.1000   -5.6800   13.0340 N   0  0  0  0  0  0  0  0  0  0  0  0
   -8.9650   -4.3720   13.6470 C   0  0  0  0  0  2  0  0  0  0  0  0
  -10.1890   -3.6060   13.6500 O   0  0  0  0  0  0  0  0  0  0  0  0
   -6.7250   -6.1130   12.3920 C   0  0  0  0  0  0  0  0  0  0  0  0
   -5.8140   -6.4270   13.4080 C   0  0  0  0  0  3  0  0  0  0  0  0
   -4.4750   -6.0460   13.2930 C   0  0  0  0  0  3  0  0  0  0  0  0
   -4.0420   -5.3530   12.1640 C   0  0  0  0  0  3  0  0  0  0  0  0
   -4.9440   -5.0400   11.1480 C   0  0  0  0  0  3  0  0  0  0  0  0
   -6.2830   -5.4190   11.2600 C   0  0  0  0  0  3  0  0  0  0  0  0
   -8.3180   -8.8470   11.5020 C   0  0  0  0  0  0  0  0  0  0  0  0
   -8.1200  -10.0410   12.1950 C   0  0  0  0  0  3  0  0  0  0  0  0
   -7.6680  -11.1880   11.5280 C   0  0  0  0  0  3  0  0  0  0  0  0
   -7.4040  -11.1980   10.1410 C   0  0  0  0  0  0  0  0  0  0  0  0
   -7.6120   -9.9800    9.4650 C   0  0  0  0  0  3  0  0  0  0  0  0
   -8.0620   -8.8320   10.1270 C   0  0  0  0  0  3  0  0  0  0  0  0
   -6.9570  -12.5030    9.3830 C   0  0  1  0  0  0  0  0  0  0  0  0
   -7.7190  -12.9520    8.0980 C   0  0  0  0  0  2  0  0  0  0  0  0
   -6.3720  -13.5670    7.6110 C   0  0  1  0  0  0  0  0  0  0  0  0
   -6.1330  -13.4920    6.1150 C   0  0  0  0  0  1  0  0  0  0  0  0
   -5.6800  -12.4780    8.4840 C   0  0  0  0  0  2  0  0  0  0  0  0
   -6.9000  -13.6050   10.3790 N   0  0  0  0  0  4  0  0  0  0  0  0
   -6.2180  -13.4200   11.1220 H   0  0  0  0  0  0  0  0  0  0  0  0
   -7.8110  -13.7620   10.8260 H   0  0  0  0  0  0  0  0  0  0  0  0
   -6.6270  -14.4910    9.9100 H   0  0  0  0  0  0  0  0  0  0  0  0
   -6.1520  -14.9130    8.1130 O   0  0  0  0  0  0  0  0  0  0  0  0
   -5.5620  -15.3510    7.4640 H   0  0  0  0  0  0  0  0  0  0  0  0
  -15.9220   -5.7380   11.8910 C   0  0  0  0  0  1  0  0  0  0  0  0
  -16.0460   -6.2690   13.2300 N   0  0  0  0  0  0  0  0  0  0  0  0
  -15.1000   -6.3130   14.2200 C   0  0  0  0  0  0  0  0  0  0  0  0
  -15.2980   -6.9670   15.2410 O   0  0  0  0  0  0  0  0  0  0  0  0
  -16.8990   -6.7600   13.4700 H   0  0  0  0  0  0  0  0  0  0  0  0
  1 39  1  0  0  0  0
  1  2  1  0  0  0  0
  3  2  2  0  0  0  0
  4  3  1  0  0  0  0
  5  6  1  0  0  0  0
  5  4  2  0  0  0  0
  6  1  2  0  0  0  0
  7 11  1  0  0  0  0
  7  5  1  0  0  0  0
  8  7  2  0  0  0  0
  9  8  1  0  0  0  0
  9 10  2  0  0  0  0
 10 11  1  0  0  0  0
 11 12  1  0  0  0  0
 12 13  1  0  0  0  0
 13  4  1  0  0  0  0
 14 10  1  0  0  0  0
 14 15  1  0  0  0  0
 16 15  2  0  0  0  0
 17 16  1  0  0  0  0
 18 19  1  0  0  0  0
 18 17  2  0  0  0  0
 19 14  2  0  0  0  0
 20  9  1  0  0  0  0
 20 21  1  0  0  0  0
 22 21  2  0  0  0  0
 23 22  1  0  0  0  0
 24 25  1  0  0  0  0
 24 23  2  0  0  0  0
 25 20  2  0  0  0  0
 26 23  1  0  0  0  0
 26 31  1  1  0  0  0
 27 26  1  0  0  0  0
 28 29  1  6  0  0  0
 28 27  1  0  0  0  0
 28 35  1  0  0  0  0
 28 30  1  0  0  0  0
 30 26  1  0  0  0  0
 31 33  1  0  0  0  0
 31 32  1  0  0  0  0
 34 31  1  0  0  0  0
 36 35  1  0  0  0  0
 37 38  1  0  0  0  0
 38 41  1  0  0  0  0
 38 39  1  0  0  0  0
 39 40  2  0  0  0  0
M  END
>  <minimizedAffinity>
-4.66717815

$$$$

 OpenBabel11232420053D

 41 46  0  0  1  0  0  0  0  0999 V2000
   -5.2410   -5.6990   11.0160 C   0  0  0  0  0  0  0  0  0  0  0  0
   -4.6820   -5.2620   12.2240 C   0  0  0  0  0  3  0  0  0  0  0  0
   -4.4900   -6.1670   13.2710 C   0  0  0  0  0  3  0  0  0  0  0  0
   -4.8860   -7.4940   13.1180 C   0  0  0  0  0  0  0  0  0  0  0  0
   -5.4570   -7.9280   11.9150 C   0  0  0  0  0  0  0  0  0  0  0  0
   -5.6440   -7.0300   10.8640 C   0  0  0  0  0  3  0  0  0  0  0  0
   -5.8130   -9.3230   11.8150 C   0  0  0  0  0  0  0  0  0  0  0  0
   -6.1870  -10.0250   10.7700 N   0  0  0  0  0  0  0  0  0  0  0  0
   -6.3970  -11.3060   11.2400 C   0  0  0  0  0  0  0  0  0  0  0  0
   -6.1440  -11.3840   12.6060 C   0  0  0  0  0  0  0  0  0  0  0  0
   -5.7640  -10.1010   12.9340 N   0  0  0  0  0  0  0  0  0  0  0  0
   -5.4300   -9.5500   14.2350 C   0  0  0  0  0  2  0  0  0  0  0  0
   -4.6370   -8.3460   14.1650 O   0  0  0  0  0  0  0  0  0  0  0  0
   -6.1760  -12.4840   13.5590 C   0  0  0  0  0  0  0  0  0  0  0  0
   -5.0230  -13.2390   13.8090 C   0  0  0  0  0  3  0  0  0  0  0  0
   -5.0590  -14.2980   14.7180 C   0  0  0  0  0  3  0  0  0  0  0  0
   -6.2460  -14.6090   15.3800 C   0  0  0  0  0  3  0  0  0  0  0  0
   -7.3970  -13.8600   15.1370 C   0  0  0  0  0  3  0  0  0  0  0  0
   -7.3630  -12.8000   14.2300 C   0  0  0  0  0  3  0  0  0  0  0  0
   -6.8200  -12.3670   10.3380 C   0  0  0  0  0  0  0  0  0  0  0  0
   -8.1380  -12.8170   10.2600 C   0  0  0  0  0  3  0  0  0  0  0  0
   -8.5000  -13.8120    9.3410 C   0  0  0  0  0  3  0  0  0  0  0  0
   -7.5680  -14.3950    8.4560 C   0  0  0  0  0  0  0  0  0  0  0  0
   -6.2450  -13.9240    8.5560 C   0  0  0  0  0  3  0  0  0  0  0  0
   -5.8780  -12.9310    9.4720 C   0  0  0  0  0  3  0  0  0  0  0  0
   -7.9890  -15.4670    7.3830 C   0  0  1  0  0  0  0  0  0  0  0  0
   -7.6700  -15.2210    5.8760 C   0  0  0  0  0  2  0  0  0  0  0  0
   -7.5660  -16.7700    5.7290 C   0  0  1  0  0  0  0  0  0  0  0  0
   -6.5240  -17.2550    4.7390 C   0  0  0  0  0  1  0  0  0  0  0  0
   -7.1590  -16.7810    7.2330 C   0  0  0  0  0  2  0  0  0  0  0  0
   -9.4340  -15.7560    7.5790 N   0  0  0  0  0  4  0  0  0  0  0  0
   -9.6290  -16.1430    8.5080 H   0  0  0  0  0  0  0  0  0  0  0  0
  -10.0110  -14.9140    7.4680 H   0  0  0  0  0  0  0  0  0  0  0  0
   -9.7550  -16.4470    6.8720 H   0  0  0  0  0  0  0  0  0  0  0  0
   -8.8530  -17.4020    5.4920 O   0  0  0  0  0  0  0  0  0  0  0  0
   -8.6610  -18.2350    5.0110 H   0  0  0  0  0  0  0  0  0  0  0  0
   -5.3030   -6.5650    8.1210 C   0  0  0  0  0  1  0  0  0  0  0  0
   -5.4130   -5.2060    8.6020 N   0  0  0  0  0  0  0  0  0  0  0  0
   -5.4830   -4.7630    9.8960 C   0  0  0  0  0  0  0  0  0  0  0  0
   -5.7650   -3.5930   10.1390 O   0  0  0  0  0  0  0  0  0  0  0  0
   -5.5490   -4.4700    7.9190 H   0  0  0  0  0  0  0  0  0  0  0  0
  1  2  1  0  0  0  0
  2  3  2  0  0  0  0
  4  3  1  0  0  0  0
  4 13  1  0  0  0  0
  5  4  2  0  0  0  0
  6  1  2  0  0  0  0
  6  5  1  0  0  0  0
  7  5  1  0  0  0  0
  7 11  1  0  0  0  0
  8  9  1  0  0  0  0
  8  7  2  0  0  0  0
  9 10  2  0  0  0  0
 10 11  1  0  0  0  0
 10 14  1  0  0  0  0
 11 12  1  0  0  0  0
 13 12  1  0  0  0  0
 14 15  2  0  0  0  0
 14 19  1  0  0  0  0
 15 16  1  0  0  0  0
 16 17  2  0  0  0  0
 18 17  1  0  0  0  0
 19 18  2  0  0  0  0
 20  9  1  0  0  0  0
 21 20  1  0  0  0  0
 22 21  2  0  0  0  0
 23 24  2  0  0  0  0
 23 22  1  0  0  0  0
 24 25  1  0  0  0  0
 25 20  2  0  0  0  0
 26 31  1  1  0  0  0
 26 23  1  0  0  0  0
 27 26  1  0  0  0  0
 28 29  1  6  0  0  0
 28 27  1  0  0  0  0
 28 30  1  0  0  0  0
 30 26  1  0  0  0  0
 31 32  1  0  0  0  0
 33 31  1  0  0  0  0
 34 31  1  0  0  0  0
 35 28  1  0  0  0  0
 36 35  1  0  0  0  0
 37 38  1  0  0  0  0
 38 39  1  0  0  0  0
 39 40  2  0  0  0  0
 39  1  1  0  0  0  0
 41 38  1  0  0  0  0
M  END
>  <minimizedAffinity>
-4.55381298

$$$$
