
 OpenBabel11232420053D

 41 46  0  0  1  0  0  0  0  0999 V2000
    0.0700   -9.8450   15.6750 C   0  0  0  0  0  0  0  0  0  0  0  0
    0.5790   -8.6820   16.2660 C   0  0  0  0  0  3  0  0  0  0  0  0
   -0.0600   -7.4570   16.0590 C   0  0  0  0  0  3  0  0  0  0  0  0
   -1.1850   -7.3950   15.2380 C   0  0  0  0  0  0  0  0  0  0  0  0
   -1.6860   -8.5570   14.6370 C   0  0  0  0  0  0  0  0  0  0  0  0
   -1.0550   -9.7830   14.8460 C   0  0  0  0  0  3  0  0  0  0  0  0
   -2.8720   -8.4250   13.8250 C   0  0  0  0  0  0  0  0  0  0  0  0
   -3.6440   -9.3490   13.3040 N   0  0  0  0  0  0  0  0  0  0  0  0
   -4.6370   -8.6670   12.6300 C   0  0  0  0  0  0  0  0  0  0  0  0
   -4.4630   -7.2910   12.7440 C   0  0  0  0  0  0  0  0  0  0  0  0
   -3.3330   -7.1760   13.5240 N   0  0  0  0  0  0  0  0  0  0  0  0
   -2.6240   -5.9790   13.9370 C   0  0  0  0  0  2  0  0  0  0  0  0
   -1.7940   -6.1730   15.1030 O   0  0  0  0  0  0  0  0  0  0  0  0
   -5.2320   -6.1510   12.2670 C   0  0  0  0  0  0  0  0  0  0  0  0
   -6.3450   -5.6960   12.9840 C   0  0  0  0  0  3  0  0  0  0  0  0
   -7.0850   -4.6080   12.5180 C   0  0  0  0  0  3  0  0  0  0  0  0
   -6.7170   -3.9690   11.3350 C   0  0  0  0  0  3  0  0  0  0  0  0
   -5.6080   -4.4160   10.6180 C   0  0  0  0  0  3  0  0  0  0  0  0
   -4.8660   -5.5030   11.0810 C   0  0  0  0  0  3  0  0  0  0  0  0
   -5.6880   -9.3880   11.9270 C   0  0  0  0  0  0  0  0  0  0  0  0
   -6.6300  -10.1850   12.5790 C   0  0  0  0  0  3  0  0  0  0  0  0
   -7.6490  -10.8220   11.8570 C   0  0  0  0  0  3  0  0  0  0  0  0
   -7.7780  -10.6870   10.4580 C   0  0  0  0  0  0  0  0  0  0  0  0
   -6.8150   -9.8780    9.8240 C   0  0  0  0  0  3  0  0  0  0  0  0
   -5.7960   -9.2400   10.5410 C   0  0  0  0  0  3  0  0  0  0  0  0
   -8.9600  -11.3530    9.6580 C   0  0  1  0  0  0  0  0  0  0  0  0
  -10.2510  -11.7970   10.4110 C   0  0  0  0  0  2  0  0  0  0  0  0
  -11.0250  -11.5020    9.0900 C   0  0  1  0  0  0  0  0  0  0  0  0
  -12.4270  -10.9530    9.2730 C   0  0  0  0  0  1  0  0  0  0  0  0
   -9.9040  -10.4640    8.7870 C   0  0  0  0  0  2  0  0  0  0  0  0
   -8.3910  -12.4770    8.8700 N   0  0  0  0  0  4  0  0  0  0  0  0
   -7.6880  -12.1600    8.1940 H   0  0  0  0  0  0  0  0  0  0  0  0
   -7.9460  -13.1790    9.4730 H   0  0  0  0  0  0  0  0  0  0  0  0
   -9.1470  -12.9570    8.3420 H   0  0  0  0  0  0  0  0  0  0  0  0
  -11.0150  -12.6250    8.1670 O   0  0  0  0  0  0  0  0  0  0  0  0
  -11.8200  -12.5290    7.6150 H   0  0  0  0  0  0  0  0  0  0  0  0
    2.1150  -10.9340   13.7340 C   0  0  0  0  0  1  0  0  0  0  0  0
    1.5910  -11.6260   14.8890 N   0  0  0  0  0  0  0  0  0  0  0  0
    0.7380  -11.1540   15.8510 C   0  0  0  0  0  0  0  0  0  0  0  0
    0.5330  -11.8010   16.8740 O   0  0  0  0  0  0  0  0  0  0  0  0
    1.9520  -12.5500   15.0940 H   0  0  0  0  0  0  0  0  0  0  0  0
  1 39  1  0  0  0  0
  1  2  1  0  0  0  0
  3  2  2  0  0  0  0
  4  3  1  0  0  0  0
  5  6  1  0  0  0  0
  5  4  2  0  0  0  0
  6  1  2  0  0  0  0
  7  5  1  0  0  0  0
  8  7  2  0  0  0  0
  9 10  2  0  0  0  0
  9  8  1  0  0  0  0
 10 11  1  0  0  0  0
 11  7  1  0  0  0  0
 11 12  1  0  0  0  0
 12 13  1  0  0  0  0
 13  4  1  0  0  0  0
 14 10  1  0  0  0  0
 14 15  1  0  0  0  0
 16 15  2  0  0  0  0
 17 16  1  0  0  0  0
 18 19  1  0  0  0  0
 18 17  2  0  0  0  0
 19 14  2  0  0  0  0
 20 21  1  0  0  0  0
 20  9  1  0  0  0  0
 22 21  2  0  0  0  0
 23 22  1  0  0  0  0
 24 23  2  0  0  0  0
 24 25  1  0  0  0  0
 25 20  2  0  0  0  0
 26 31  1  6  0  0  0
 26 27  1  0  0  0  0
 26 23  1  0  0  0  0
 28 29  1  1  0  0  0
 28 27  1  0  0  0  0
 30 28  1  0  0  0  0
 30 26  1  0  0  0  0
 31 33  1  0  0  0  0
 32 31  1  0  0  0  0
 34 31  1  0  0  0  0
 35 28  1  0  0  0  0
 36 35  1  0  0  0  0
 37 38  1  0  0  0  0
 38 41  1  0  0  0  0
 38 39  1  0  0  0  0
 39 40  2  0  0  0  0
M  END
>  <minimizedAffinity>
-5.28701401

$$$$
