
 OpenBabel11232420053D

 41 46  0  0  1  0  0  0  0  0999 V2000
   -5.2700   -5.0270   12.5930 C   0  0  0  0  0  0  0  0  0  0  0  0
   -5.3990   -4.3370   11.3810 C   0  0  0  0  0  3  0  0  0  0  0  0
   -5.7230   -5.0320   10.2140 C   0  0  0  0  0  3  0  0  0  0  0  0
   -5.8850   -6.4160   10.2570 C   0  0  0  0  0  0  0  0  0  0  0  0
   -5.7430   -7.1070   11.4660 C   0  0  0  0  0  0  0  0  0  0  0  0
   -5.4270   -6.4160   12.6360 C   0  0  0  0  0  3  0  0  0  0  0  0
   -5.9560   -8.5340   11.4440 C   0  0  0  0  0  0  0  0  0  0  0  0
   -6.0650   -9.3860   12.4360 N   0  0  0  0  0  0  0  0  0  0  0  0
   -6.2670  -10.6190   11.8470 C   0  0  0  0  0  0  0  0  0  0  0  0
   -6.2810  -10.5120   10.4600 C   0  0  0  0  0  0  0  0  0  0  0  0
   -6.0910   -9.1650   10.2420 N   0  0  0  0  0  0  0  0  0  0  0  0
   -5.9550   -8.4520    8.9850 C   0  0  0  0  0  2  0  0  0  0  0  0
   -6.2410   -7.0410    9.0880 O   0  0  0  0  0  0  0  0  0  0  0  0
   -6.4920  -11.4800    9.3930 C   0  0  0  0  0  0  0  0  0  0  0  0
   -7.7120  -12.1570    9.2800 C   0  0  0  0  0  3  0  0  0  0  0  0
   -7.9070  -13.0900    8.2610 C   0  0  0  0  0  3  0  0  0  0  0  0
   -6.8850  -13.3510    7.3500 C   0  0  0  0  0  3  0  0  0  0  0  0
   -5.6680  -12.6790    7.4550 C   0  0  0  0  0  3  0  0  0  0  0  0
   -5.4710  -11.7450    8.4730 C   0  0  0  0  0  3  0  0  0  0  0  0
   -6.4390  -11.8120   12.6630 C   0  0  0  0  0  0  0  0  0  0  0  0
   -5.3830  -12.4390   13.3230 C   0  0  0  0  0  3  0  0  0  0  0  0
   -5.6120  -13.5610   14.1320 C   0  0  0  0  0  3  0  0  0  0  0  0
   -6.9020  -14.1000   14.3250 C   0  0  0  0  0  0  0  0  0  0  0  0
   -7.9510  -13.4490   13.6470 C   0  0  0  0  0  3  0  0  0  0  0  0
   -7.7270  -12.3290   12.8370 C   0  0  0  0  0  3  0  0  0  0  0  0
   -7.1650  -15.3220   15.2830 C   0  0  1  0  0  0  0  0  0  0  0  0
   -6.5910  -16.7270   14.9220 C   0  0  0  0  0  2  0  0  0  0  0  0
   -6.5060  -16.9960   16.4560 C   0  0  1  0  0  0  0  0  0  0  0  0
   -5.3250  -17.8400   16.8960 C   0  0  0  0  0  1  0  0  0  0  0  0
   -6.3560  -15.4530   16.6120 C   0  0  0  0  0  2  0  0  0  0  0  0
   -8.6290  -15.3940   15.5270 N   0  0  0  0  0  4  0  0  0  0  0  0
   -8.9880  -14.5480   15.9850 H   0  0  0  0  0  0  0  0  0  0  0  0
   -9.1570  -15.5210   14.6560 H   0  0  0  0  0  0  0  0  0  0  0  0
   -8.8460  -16.2030   16.1420 H   0  0  0  0  0  0  0  0  0  0  0  0
   -7.7510  -17.4980   17.0120 O   0  0  0  0  0  0  0  0  0  0  0  0
   -7.5030  -18.0150   17.8070 H   0  0  0  0  0  0  0  0  0  0  0  0
   -7.2720   -4.3210   14.7450 C   0  0  0  0  0  1  0  0  0  0  0  0
   -5.8730   -3.9590   14.7380 N   0  0  0  0  0  0  0  0  0  0  0  0
   -4.9020   -4.3250   13.8430 C   0  0  0  0  0  0  0  0  0  0  0  0
   -3.7190   -4.0930   14.0770 O   0  0  0  0  0  0  0  0  0  0  0  0
   -5.5100   -3.4450   15.5320 H   0  0  0  0  0  0  0  0  0  0  0  0
  1  6  1  0  0  0  0
  1 39  1  0  0  0  0
  2  1  2  0  0  0  0
  3  4  2  0  0  0  0
  3  2  1  0  0  0  0
  4  5  1  0  0  0  0
  5  6  2  0  0  0  0
  7  5  1  0  0  0  0
  7  8  2  0  0  0  0
  9  8  1  0  0  0  0
  9 20  1  0  0  0  0
 10  9  2  0  0  0  0
 11 10  1  0  0  0  0
 11  7  1  0  0  0  0
 12 13  1  0  0  0  0
 12 11  1  0  0  0  0
 13  4  1  0  0  0  0
 14 10  1  0  0  0  0
 15 14  1  0  0  0  0
 16 15  2  0  0  0  0
 17 18  2  0  0  0  0
 17 16  1  0  0  0  0
 18 19  1  0  0  0  0
 19 14  2  0  0  0  0
 20 25  2  0  0  0  0
 20 21  1  0  0  0  0
 21 22  2  0  0  0  0
 22 23  1  0  0  0  0
 23 26  1  0  0  0  0
 24 23  2  0  0  0  0
 25 24  1  0  0  0  0
 26 31  1  1  0  0  0
 26 30  1  0  0  0  0
 27 26  1  0  0  0  0
 27 28  1  0  0  0  0
 28 30  1  0  0  0  0
 28 29  1  1  0  0  0
 28 35  1  0  0  0  0
 31 32  1  0  0  0  0
 31 34  1  0  0  0  0
 33 31  1  0  0  0  0
 35 36  1  0  0  0  0
 38 37  1  0  0  0  0
 38 41  1  0  0  0  0
 39 40  2  0  0  0  0
 39 38  1  0  0  0  0
M  END
>  <minimizedAffinity>
-4.94685555

$$$$
