
 OpenBabel11232420053D

 41 46  0  0  1  0  0  0  0  0999 V2000
   -7.8240  -13.4600    8.4390 C   0  0  0  0  0  0  0  0  0  0  0  0
   -6.5770  -13.5440    7.8080 C   0  0  0  0  0  3  0  0  0  0  0  0
   -5.6560  -12.5020    7.9420 C   0  0  0  0  0  3  0  0  0  0  0  0
   -5.9980  -11.3680    8.6780 C   0  0  0  0  0  0  0  0  0  0  0  0
   -7.2500  -11.2800    9.2980 C   0  0  0  0  0  0  0  0  0  0  0  0
   -8.1700  -12.3210    9.1730 C   0  0  0  0  0  3  0  0  0  0  0  0
   -7.5260  -10.0930   10.0710 C   0  0  0  0  0  0  0  0  0  0  0  0
   -8.5190   -9.8290   10.8870 N   0  0  0  0  0  0  0  0  0  0  0  0
   -8.2820   -8.5530   11.3600 C   0  0  0  0  0  0  0  0  0  0  0  0
   -7.1140   -8.0280   10.8160 C   0  0  0  0  0  0  0  0  0  0  0  0
   -6.6540   -9.0440   10.0070 N   0  0  0  0  0  0  0  0  0  0  0  0
   -5.4980   -9.0630    9.1310 C   0  0  0  0  0  2  0  0  0  0  0  0
   -5.0410  -10.3950    8.8070 O   0  0  0  0  0  0  0  0  0  0  0  0
   -6.4100   -6.7690   11.0080 C   0  0  0  0  0  0  0  0  0  0  0  0
   -5.5650   -6.5890   12.1100 C   0  0  0  0  0  3  0  0  0  0  0  0
   -4.8980   -5.3770   12.2950 C   0  0  0  0  0  3  0  0  0  0  0  0
   -5.0710   -4.3400   11.3800 C   0  0  0  0  0  3  0  0  0  0  0  0
   -5.9080   -4.5120   10.2790 C   0  0  0  0  0  3  0  0  0  0  0  0
   -6.5760   -5.7240   10.0910 C   0  0  0  0  0  3  0  0  0  0  0  0
   -9.1950   -7.9310   12.3080 C   0  0  0  0  0  0  0  0  0  0  0  0
   -9.0890   -6.5980   12.7020 C   0  0  0  0  0  3  0  0  0  0  0  0
  -10.0230   -6.0370   13.5840 C   0  0  0  0  0  3  0  0  0  0  0  0
  -11.1070   -6.7770   14.1040 C   0  0  0  0  0  0  0  0  0  0  0  0
  -11.1910   -8.1210   13.6910 C   0  0  0  0  0  3  0  0  0  0  0  0
  -10.2600   -8.6850   12.8100 C   0  0  0  0  0  3  0  0  0  0  0  0
  -12.1900   -6.1280   15.0450 C   0  0  1  0  0  0  0  0  0  0  0  0
  -12.3550   -4.5780   15.0820 C   0  0  0  0  0  2  0  0  0  0  0  0
  -13.8590   -4.8270   15.4100 C   0  0  1  0  0  0  0  0  0  0  0  0
  -14.8230   -3.8160   14.8180 C   0  0  0  0  0  1  0  0  0  0  0  0
  -13.6970   -6.1710   14.6370 C   0  0  0  0  0  2  0  0  0  0  0  0
  -11.9810   -6.6720   16.4120 N   0  0  0  0  0  4  0  0  0  0  0  0
  -12.0990   -7.6910   16.4460 H   0  0  0  0  0  0  0  0  0  0  0  0
  -11.0420   -6.4580   16.7700 H   0  0  0  0  0  0  0  0  0  0  0  0
  -12.6670   -6.2510   17.0690 H   0  0  0  0  0  0  0  0  0  0  0  0
  -14.1030   -5.0220   16.8290 O   0  0  0  0  0  0  0  0  0  0  0  0
  -15.0330   -4.7500   16.9830 H   0  0  0  0  0  0  0  0  0  0  0  0
   -8.1300  -15.7160   10.4270 C   0  0  0  0  0  1  0  0  0  0  0  0
   -8.8610  -15.5740    9.1890 N   0  0  0  0  0  0  0  0  0  0  0  0
   -8.8330  -14.5340    8.2970 C   0  0  0  0  0  0  0  0  0  0  0  0
   -9.6530  -14.4730    7.3860 O   0  0  0  0  0  0  0  0  0  0  0  0
   -9.5600  -16.2720    8.9660 H   0  0  0  0  0  0  0  0  0  0  0  0
  1  6  1  0  0  0  0
  2  3  1  0  0  0  0
  2  1  2  0  0  0  0
  3  4  2  0  0  0  0
  4 13  1  0  0  0  0
  4  5  1  0  0  0  0
  5  7  1  0  0  0  0
  6  5  2  0  0  0  0
  7  8  2  0  0  0  0
  8  9  1  0  0  0  0
  9 20  1  0  0  0  0
 10 14  1  0  0  0  0
 10  9  2  0  0  0  0
 11  7  1  0  0  0  0
 11 10  1  0  0  0  0
 12 11  1  0  0  0  0
 13 12  1  0  0  0  0
 14 15  1  0  0  0  0
 15 16  2  0  0  0  0
 17 16  1  0  0  0  0
 18 17  2  0  0  0  0
 19 18  1  0  0  0  0
 19 14  2  0  0  0  0
 20 21  2  0  0  0  0
 20 25  1  0  0  0  0
 21 22  1  0  0  0  0
 22 23  2  0  0  0  0
 23 26  1  0  0  0  0
 24 23  1  0  0  0  0
 25 24  2  0  0  0  0
 26 27  1  0  0  0  0
 26 31  1  1  0  0  0
 27 28  1  0  0  0  0
 28 29  1  6  0  0  0
 28 35  1  0  0  0  0
 30 26  1  0  0  0  0
 30 28  1  0  0  0  0
 31 32  1  0  0  0  0
 31 33  1  0  0  0  0
 31 34  1  0  0  0  0
 35 36  1  0  0  0  0
 38 37  1  0  0  0  0
 39  1  1  0  0  0  0
 39 38  1  0  0  0  0
 40 39  2  0  0  0  0
 41 38  1  0  0  0  0
M  END
>  <minimizedAffinity>
-5.44050884

$$$$
