
 OpenBabel11232420053D

 41 46  0  0  1  0  0  0  0  0999 V2000
   -6.0850   -5.1550   12.7780 C   0  0  0  0  0  0  0  0  0  0  0  0
   -6.1000   -4.4360   11.5760 C   0  0  0  0  0  3  0  0  0  0  0  0
   -6.2370   -5.1110   10.3610 C   0  0  0  0  0  3  0  0  0  0  0  0
   -6.3260   -6.5020   10.3490 C   0  0  0  0  0  0  0  0  0  0  0  0
   -6.2980   -7.2220   11.5500 C   0  0  0  0  0  0  0  0  0  0  0  0
   -6.1690   -6.5510   12.7660 C   0  0  0  0  0  3  0  0  0  0  0  0
   -6.4280   -8.6560   11.4670 C   0  0  0  0  0  0  0  0  0  0  0  0
   -6.6120   -9.5440   12.4160 N   0  0  0  0  0  0  0  0  0  0  0  0
   -6.6710  -10.7660   11.7760 C   0  0  0  0  0  0  0  0  0  0  0  0
   -6.5170  -10.6170   10.4010 C   0  0  0  0  0  0  0  0  0  0  0  0
   -6.3760   -9.2560   10.2420 N   0  0  0  0  0  0  0  0  0  0  0  0
   -6.1250   -8.4980    9.0300 C   0  0  0  0  0  2  0  0  0  0  0  0
   -6.4990   -7.1070    9.1300 O   0  0  0  0  0  0  0  0  0  0  0  0
   -6.5390  -11.5610    9.2930 C   0  0  0  0  0  0  0  0  0  0  0  0
   -7.6400  -12.4050    9.1020 C   0  0  0  0  0  3  0  0  0  0  0  0
   -7.6530  -13.3140    8.0430 C   0  0  0  0  0  3  0  0  0  0  0  0
   -6.5680  -13.3840    7.1710 C   0  0  0  0  0  3  0  0  0  0  0  0
   -5.4700  -12.5460    7.3540 C   0  0  0  0  0  3  0  0  0  0  0  0
   -5.4550  -11.6350    8.4110 C   0  0  0  0  0  3  0  0  0  0  0  0
   -6.8760  -11.9910   12.5340 C   0  0  0  0  0  0  0  0  0  0  0  0
   -5.8780  -12.9480   12.7180 C   0  0  0  0  0  3  0  0  0  0  0  0
   -6.1170  -14.0900   13.4950 C   0  0  0  0  0  3  0  0  0  0  0  0
   -7.3560  -14.3240   14.1290 C   0  0  0  0  0  0  0  0  0  0  0  0
   -8.3470  -13.3430   13.9280 C   0  0  0  0  0  3  0  0  0  0  0  0
   -8.1130  -12.2020   13.1520 C   0  0  0  0  0  3  0  0  0  0  0  0
   -7.6020  -15.5760   15.0520 C   0  0  1  0  0  0  0  0  0  0  0  0
   -8.7160  -15.5270   16.1420 C   0  0  0  0  0  2  0  0  0  0  0  0
   -8.8700  -17.0650   15.9380 C   0  0  1  0  0  0  0  0  0  0  0  0
  -10.2840  -17.5960   16.0810 C   0  0  0  0  0  1  0  0  0  0  0  0
   -8.3600  -16.8180   14.4870 C   0  0  0  0  0  2  0  0  0  0  0  0
   -6.2950  -15.9590   15.6460 N   0  0  0  0  0  4  0  0  0  0  0  0
   -5.6070  -16.2220   14.9320 H   0  0  0  0  0  0  0  0  0  0  0  0
   -5.8890  -15.1970   16.2020 H   0  0  0  0  0  0  0  0  0  0  0  0
   -6.4200  -16.7730   16.2800 H   0  0  0  0  0  0  0  0  0  0  0  0
   -7.9340  -17.8370   16.7380 O   0  0  0  0  0  0  0  0  0  0  0  0
   -8.3550  -18.7110   16.8800 H   0  0  0  0  0  0  0  0  0  0  0  0
   -3.3830   -4.5740   14.0000 C   0  0  0  0  0  1  0  0  0  0  0  0
   -4.6640   -4.3200   14.6170 N   0  0  0  0  0  0  0  0  0  0  0  0
   -5.9150   -4.4750   14.0810 C   0  0  0  0  0  0  0  0  0  0  0  0
   -6.9020   -4.0370   14.6650 O   0  0  0  0  0  0  0  0  0  0  0  0
   -4.6730   -3.8840   15.5320 H   0  0  0  0  0  0  0  0  0  0  0  0
  1 39  1  0  0  0  0
  2  1  2  0  0  0  0
  3  2  1  0  0  0  0
  4  3  2  0  0  0  0
  4  5  1  0  0  0  0
  5  6  2  0  0  0  0
  6  1  1  0  0  0  0
  7  5  1  0  0  0  0
  7  8  2  0  0  0  0
  9  8  1  0  0  0  0
  9 20  1  0  0  0  0
 10  9  2  0  0  0  0
 11 10  1  0  0  0  0
 11  7  1  0  0  0  0
 12 13  1  0  0  0  0
 12 11  1  0  0  0  0
 13  4  1  0  0  0  0
 14 10  1  0  0  0  0
 15 14  1  0  0  0  0
 16 15  2  0  0  0  0
 17 18  2  0  0  0  0
 17 16  1  0  0  0  0
 18 19  1  0  0  0  0
 19 14  2  0  0  0  0
 20 21  2  0  0  0  0
 20 25  1  0  0  0  0
 21 22  1  0  0  0  0
 22 23  2  0  0  0  0
 23 26  1  0  0  0  0
 24 23  1  0  0  0  0
 25 24  2  0  0  0  0
 26 31  1  1  0  0  0
 26 27  1  0  0  0  0
 28 29  1  1  0  0  0
 28 27  1  0  0  0  0
 28 35  1  0  0  0  0
 30 26  1  0  0  0  0
 30 28  1  0  0  0  0
 31 33  1  0  0  0  0
 31 34  1  0  0  0  0
 32 31  1  0  0  0  0
 35 36  1  0  0  0  0
 37 38  1  0  0  0  0
 38 41  1  0  0  0  0
 39 38  1  0  0  0  0
 39 40  2  0  0  0  0
M  END
>  <minimizedAffinity>
-4.69395113

$$$$
