
 OpenBabel11232420053D

 41 46  0  0  1  0  0  0  0  0999 V2000
   -5.2410   -5.6990   11.0160 C   0  0  0  0  0  0  0  0  0  0  0  0
   -4.6820   -5.2620   12.2240 C   0  0  0  0  0  3  0  0  0  0  0  0
   -4.4900   -6.1670   13.2710 C   0  0  0  0  0  3  0  0  0  0  0  0
   -4.8860   -7.4940   13.1180 C   0  0  0  0  0  0  0  0  0  0  0  0
   -5.4570   -7.9280   11.9150 C   0  0  0  0  0  0  0  0  0  0  0  0
   -5.6440   -7.0300   10.8640 C   0  0  0  0  0  3  0  0  0  0  0  0
   -5.8130   -9.3230   11.8150 C   0  0  0  0  0  0  0  0  0  0  0  0
   -6.1870  -10.0250   10.7700 N   0  0  0  0  0  0  0  0  0  0  0  0
   -6.3970  -11.3060   11.2400 C   0  0  0  0  0  0  0  0  0  0  0  0
   -6.1440  -11.3840   12.6060 C   0  0  0  0  0  0  0  0  0  0  0  0
   -5.7640  -10.1010   12.9340 N   0  0  0  0  0  0  0  0  0  0  0  0
   -5.4300   -9.5500   14.2350 C   0  0  0  0  0  2  0  0  0  0  0  0
   -4.6370   -8.3460   14.1650 O   0  0  0  0  0  0  0  0  0  0  0  0
   -6.1760  -12.4840   13.5590 C   0  0  0  0  0  0  0  0  0  0  0  0
   -5.0230  -13.2390   13.8090 C   0  0  0  0  0  3  0  0  0  0  0  0
   -5.0590  -14.2980   14.7180 C   0  0  0  0  0  3  0  0  0  0  0  0
   -6.2460  -14.6090   15.3800 C   0  0  0  0  0  3  0  0  0  0  0  0
   -7.3970  -13.8600   15.1370 C   0  0  0  0  0  3  0  0  0  0  0  0
   -7.3630  -12.8000   14.2300 C   0  0  0  0  0  3  0  0  0  0  0  0
   -6.8200  -12.3670   10.3380 C   0  0  0  0  0  0  0  0  0  0  0  0
   -8.1380  -12.8170   10.2600 C   0  0  0  0  0  3  0  0  0  0  0  0
   -8.5000  -13.8120    9.3410 C   0  0  0  0  0  3  0  0  0  0  0  0
   -7.5680  -14.3950    8.4560 C   0  0  0  0  0  0  0  0  0  0  0  0
   -6.2450  -13.9240    8.5560 C   0  0  0  0  0  3  0  0  0  0  0  0
   -5.8780  -12.9310    9.4720 C   0  0  0  0  0  3  0  0  0  0  0  0
   -7.9890  -15.4670    7.3830 C   0  0  1  0  0  0  0  0  0  0  0  0
   -7.6700  -15.2210    5.8760 C   0  0  0  0  0  2  0  0  0  0  0  0
   -7.5660  -16.7700    5.7290 C   0  0  1  0  0  0  0  0  0  0  0  0
   -6.5240  -17.2550    4.7390 C   0  0  0  0  0  1  0  0  0  0  0  0
   -7.1590  -16.7810    7.2330 C   0  0  0  0  0  2  0  0  0  0  0  0
   -9.4340  -15.7560    7.5790 N   0  0  0  0  0  4  0  0  0  0  0  0
   -9.6290  -16.1430    8.5080 H   0  0  0  0  0  0  0  0  0  0  0  0
  -10.0110  -14.9140    7.4680 H   0  0  0  0  0  0  0  0  0  0  0  0
   -9.7550  -16.4470    6.8720 H   0  0  0  0  0  0  0  0  0  0  0  0
   -8.8530  -17.4020    5.4920 O   0  0  0  0  0  0  0  0  0  0  0  0
   -8.6610  -18.2350    5.0110 H   0  0  0  0  0  0  0  0  0  0  0  0
   -5.3030   -6.5650    8.1210 C   0  0  0  0  0  1  0  0  0  0  0  0
   -5.4130   -5.2060    8.6020 N   0  0  0  0  0  0  0  0  0  0  0  0
   -5.4830   -4.7630    9.8960 C   0  0  0  0  0  0  0  0  0  0  0  0
   -5.7650   -3.5930   10.1390 O   0  0  0  0  0  0  0  0  0  0  0  0
   -5.5490   -4.4700    7.9190 H   0  0  0  0  0  0  0  0  0  0  0  0
  1  2  1  0  0  0  0
  2  3  2  0  0  0  0
  4  3  1  0  0  0  0
  4 13  1  0  0  0  0
  5  4  2  0  0  0  0
  6  1  2  0  0  0  0
  6  5  1  0  0  0  0
  7  5  1  0  0  0  0
  7 11  1  0  0  0  0
  8  9  1  0  0  0  0
  8  7  2  0  0  0  0
  9 10  2  0  0  0  0
 10 11  1  0  0  0  0
 10 14  1  0  0  0  0
 11 12  1  0  0  0  0
 13 12  1  0  0  0  0
 14 15  2  0  0  0  0
 14 19  1  0  0  0  0
 15 16  1  0  0  0  0
 16 17  2  0  0  0  0
 18 17  1  0  0  0  0
 19 18  2  0  0  0  0
 20  9  1  0  0  0  0
 21 20  1  0  0  0  0
 22 21  2  0  0  0  0
 23 24  2  0  0  0  0
 23 22  1  0  0  0  0
 24 25  1  0  0  0  0
 25 20  2  0  0  0  0
 26 31  1  1  0  0  0
 26 23  1  0  0  0  0
 27 26  1  0  0  0  0
 28 29  1  6  0  0  0
 28 27  1  0  0  0  0
 28 30  1  0  0  0  0
 30 26  1  0  0  0  0
 31 32  1  0  0  0  0
 33 31  1  0  0  0  0
 34 31  1  0  0  0  0
 35 28  1  0  0  0  0
 36 35  1  0  0  0  0
 37 38  1  0  0  0  0
 38 39  1  0  0  0  0
 39 40  2  0  0  0  0
 39  1  1  0  0  0  0
 41 38  1  0  0  0  0
M  END
>  <minimizedAffinity>
-4.55381298

$$$$
