
 OpenBabel11232420053D

 41 46  0  0  1  0  0  0  0  0999 V2000
  -13.8210   -8.9960    7.3010 C   0  0  0  0  0  0  0  0  0  0  0  0
  -14.3810  -10.2540    7.0480 C   0  0  0  0  0  3  0  0  0  0  0  0
  -13.6820  -11.4120    7.3980 C   0  0  0  0  0  3  0  0  0  0  0  0
  -12.4140  -11.3080    7.9690 C   0  0  0  0  0  0  0  0  0  0  0  0
  -11.8500  -10.0490    8.2110 C   0  0  0  0  0  0  0  0  0  0  0  0
  -12.5470   -8.8910    7.8690 C   0  0  0  0  0  3  0  0  0  0  0  0
  -10.5490  -10.0140    8.8340 C   0  0  0  0  0  0  0  0  0  0  0  0
   -9.8770   -9.0010    9.3300 N   0  0  0  0  0  0  0  0  0  0  0  0
   -8.6970   -9.5350    9.8060 C   0  0  0  0  0  0  0  0  0  0  0  0
   -8.6490  -10.9090    9.5930 C   0  0  0  0  0  0  0  0  0  0  0  0
   -9.8530  -11.1790    8.9810 N   0  0  0  0  0  0  0  0  0  0  0  0
  -10.3550  -12.4400    8.4650 C   0  0  0  0  0  2  0  0  0  0  0  0
  -11.7920  -12.4770    8.3280 O   0  0  0  0  0  0  0  0  0  0  0  0
   -7.6690  -11.9320    9.9310 C   0  0  0  0  0  0  0  0  0  0  0  0
   -7.6810  -12.5350   11.1950 C   0  0  0  0  0  3  0  0  0  0  0  0
   -6.7350  -13.5090   11.5180 C   0  0  0  0  0  3  0  0  0  0  0  0
   -5.7730  -13.8850   10.5810 C   0  0  0  0  0  3  0  0  0  0  0  0
   -5.7570  -13.2900    9.3210 C   0  0  0  0  0  3  0  0  0  0  0  0
   -6.7030  -12.3170    8.9950 C   0  0  0  0  0  3  0  0  0  0  0  0
   -7.6990   -8.6840   10.4380 C   0  0  0  0  0  0  0  0  0  0  0  0
   -6.9310   -7.7600    9.7310 C   0  0  0  0  0  3  0  0  0  0  0  0
   -6.0150   -6.9330   10.3970 C   0  0  0  0  0  3  0  0  0  0  0  0
   -5.8310   -6.9860   11.7950 C   0  0  0  0  0  0  0  0  0  0  0  0
   -6.6180   -7.9280   12.4850 C   0  0  0  0  0  3  0  0  0  0  0  0
   -7.5330   -8.7560   11.8240 C   0  0  0  0  0  3  0  0  0  0  0  0
   -4.8470   -6.0150   12.5480 C   0  0  1  0  0  0  0  0  0  0  0  0
   -4.5790   -6.2130   14.0720 C   0  0  0  0  0  2  0  0  0  0  0  0
   -3.1570   -5.6260   13.8150 C   0  0  1  0  0  0  0  0  0  0  0  0
   -2.0500   -6.2260   14.6610 C   0  0  0  0  0  1  0  0  0  0  0  0
   -3.3050   -6.1790   12.3660 C   0  0  0  0  0  2  0  0  0  0  0  0
   -5.2840   -4.6230   12.2630 N   0  0  0  0  0  4  0  0  0  0  0  0
   -5.2440   -4.4020   11.2620 H   0  0  0  0  0  0  0  0  0  0  0  0
   -6.2460   -4.4520   12.5800 H   0  0  0  0  0  0  0  0  0  0  0  0
   -4.6690   -3.9500   12.7620 H   0  0  0  0  0  0  0  0  0  0  0  0
   -3.1290   -4.1740   13.8620 O   0  0  0  0  0  0  0  0  0  0  0  0
   -2.2130   -3.9290   14.1140 H   0  0  0  0  0  0  0  0  0  0  0  0
  -13.2720   -7.5130    4.7250 C   0  0  0  0  0  1  0  0  0  0  0  0
  -14.1640   -7.0820    5.7770 N   0  0  0  0  0  0  0  0  0  0  0  0
  -14.5220   -7.7500    6.9190 C   0  0  0  0  0  0  0  0  0  0  0  0
  -15.4360   -7.3330    7.6230 O   0  0  0  0  0  0  0  0  0  0  0  0
  -14.6780   -6.2200    5.6420 H   0  0  0  0  0  0  0  0  0  0  0  0
  1  6  1  0  0  0  0
  2  1  2  0  0  0  0
  2  3  1  0  0  0  0
  3  4  2  0  0  0  0
  4  5  1  0  0  0  0
  4 13  1  0  0  0  0
  5  7  1  0  0  0  0
  6  5  2  0  0  0  0
  7 11  1  0  0  0  0
  7  8  2  0  0  0  0
  8  9  1  0  0  0  0
  9 20  1  0  0  0  0
 10  9  2  0  0  0  0
 10 14  1  0  0  0  0
 11 10  1  0  0  0  0
 12 11  1  0  0  0  0
 13 12  1  0  0  0  0
 14 15  1  0  0  0  0
 15 16  2  0  0  0  0
 17 16  1  0  0  0  0
 18 17  2  0  0  0  0
 19 18  1  0  0  0  0
 19 14  2  0  0  0  0
 20 25  1  0  0  0  0
 21 22  1  0  0  0  0
 21 20  2  0  0  0  0
 22 23  2  0  0  0  0
 23 24  1  0  0  0  0
 23 26  1  0  0  0  0
 25 24  2  0  0  0  0
 26 31  1  6  0  0  0
 26 27  1  0  0  0  0
 28 35  1  0  0  0  0
 28 27  1  0  0  0  0
 28 29  1  1  0  0  0
 30 26  1  0  0  0  0
 30 28  1  0  0  0  0
 31 33  1  0  0  0  0
 31 34  1  0  0  0  0
 32 31  1  0  0  0  0
 35 36  1  0  0  0  0
 37 38  1  0  0  0  0
 38 39  1  0  0  0  0
 39  1  1  0  0  0  0
 39 40  2  0  0  0  0
 41 38  1  0  0  0  0
M  END
>  <minimizedAffinity>
-4.85371971

$$$$
