
 OpenBabel10152418193D

 39 42  0  0  0  0  0  0  0  0999 V2000
   -1.1220   -7.1530  -23.4220 C   0  0  0  0  0  0  0  0  0  0  0  0
   -1.1980   -6.0010  -22.6320 C   0  0  0  0  0  3  0  0  0  0  0  0
   -1.5150   -6.0990  -21.2770 C   0  0  0  0  0  3  0  0  0  0  0  0
   -1.7770   -7.3460  -20.7010 C   0  0  0  0  0  3  0  0  0  0  0  0
   -1.7500   -8.5030  -21.4800 C   0  0  0  0  0  0  0  0  0  0  0  0
   -1.4010   -8.3980  -22.8300 C   0  0  0  0  0  3  0  0  0  0  0  0
   -2.0060   -9.7970  -20.9910 N   0  0  0  0  0  0  0  0  0  0  0  0
   -1.9200  -11.0350  -21.5800 C   0  0  0  0  0  0  0  0  0  0  0  0
   -2.4840  -12.0040  -21.0730 O   0  0  0  0  0  0  0  0  0  0  0  0
   -2.3570   -9.8570  -20.0410 H   0  0  0  0  0  0  0  0  0  0  0  0
   -1.0700  -11.2620  -22.7680 C   0  0  0  0  0  0  0  0  0  0  0  0
    0.1970  -11.8180  -22.5930 C   0  0  0  0  0  3  0  0  0  0  0  0
    1.0130  -12.0390  -23.7040 C   0  0  0  0  0  3  0  0  0  0  0  0
    0.5720  -11.6890  -24.9860 C   0  0  0  0  0  0  0  0  0  0  0  0
    1.6310  -12.0270  -26.3070 Cl  0  0  0  0  0  0  0  0  0  0  0  0
   -0.6820  -11.0930  -25.1740 C   0  0  0  0  0  0  0  0  0  0  0  0
   -1.4950  -10.8710  -24.0450 C   0  0  0  0  0  3  0  0  0  0  0  0
   -1.1770  -10.7070  -26.5420 C   0  0  0  0  0  0  0  0  0  0  0  0
   -0.5170  -11.3370  -27.5510 F   0  0  0  0  0  0  0  0  0  0  0  0
   -2.5010  -10.9730  -26.7170 F   0  0  0  0  0  0  0  0  0  0  0  0
   -1.0400   -9.3730  -26.8000 F   0  0  0  0  0  0  0  0  0  0  0  0
   -0.8460   -7.0560  -24.9080 C   0  0  0  0  0  2  0  0  0  0  0  0
    3.9140   -8.2760  -28.5030 C   0  0  0  0  0  0  0  0  0  0  0  0
    4.5620   -9.2530  -27.7300 C   0  0  0  0  0  3  0  0  0  0  0  0
    4.0530   -9.5870  -26.4870 C   0  0  0  0  0  3  0  0  0  0  0  0
    2.9070   -8.9420  -26.0300 C   0  0  0  0  0  3  0  0  0  0  0  0
    2.2550   -7.9460  -26.8060 C   0  0  0  0  0  0  0  0  0  0  0  0
    1.0860   -7.2680  -26.4040 C   0  0  0  0  0  0  0  0  0  0  0  0
    0.4730   -7.5870  -25.1960 N   0  0  0  0  0  0  0  0  0  0  0  0
    0.4790   -6.3640  -27.1890 N   0  0  0  0  0  0  0  0  0  0  0  0
    1.0420   -6.1200  -28.3720 C   0  0  0  0  0  3  0  0  0  0  0  0
    2.1420   -6.7020  -28.8510 N   0  0  0  0  0  0  0  0  0  0  0  0
    2.7620   -7.6060  -28.0730 C   0  0  0  0  0  0  0  0  0  0  0  0
    1.0850   -7.6940  -24.3980 H   0  0  0  0  0  0  0  0  0  0  0  0
    4.7900   -6.6340  -30.0290 N   0  0  0  0  0  0  0  0  0  0  0  0
    4.5040   -7.9560  -29.8190 C   0  0  0  0  0  0  0  0  0  0  0  0
    4.6740   -8.8010  -30.6840 O   0  0  0  0  0  0  0  0  0  0  0  0
    5.1980   -6.3830  -30.9200 H   0  0  0  0  0  0  0  0  0  0  0  0
    4.6840   -5.9220  -29.3210 H   0  0  0  0  0  0  0  0  0  0  0  0
  1  6  2  0  0  0  0
  1  2  1  0  0  0  0
  2  3  2  0  0  0  0
  3  4  1  0  0  0  0
  5  7  1  0  0  0  0
  5  4  2  0  0  0  0
  6  5  1  0  0  0  0
  7 10  1  0  0  0  0
  8  9  2  0  0  0  0
  8  7  1  0  0  0  0
 11 12  1  0  0  0  0
 11  8  1  0  0  0  0
 13 12  2  0  0  0  0
 14 13  1  0  0  0  0
 15 14  1  0  0  0  0
 16 14  2  0  0  0  0
 16 17  1  0  0  0  0
 17 11  2  0  0  0  0
 18 16  1  0  0  0  0
 19 18  1  0  0  0  0
 20 18  1  0  0  0  0
 21 18  1  0  0  0  0
 22  1  1  0  0  0  0
 23 33  2  0  0  0  0
 23 24  1  0  0  0  0
 24 25  2  0  0  0  0
 25 26  1  0  0  0  0
 27 28  1  0  0  0  0
 27 26  2  0  0  0  0
 28 29  1  0  0  0  0
 29 22  1  0  0  0  0
 29 34  1  0  0  0  0
 30 28  2  0  0  0  0
 31 30  1  0  0  0  0
 32 31  2  0  0  0  0
 32 33  1  0  0  0  0
 33 27  1  0  0  0  0
 35 36  1  0  0  0  0
 35 39  1  0  0  0  0
 36 23  1  0  0  0  0
 37 36  2  0  0  0  0
 38 35  1  0  0  0  0
M  END
>  <minimizedAffinity>
-7.257061

$$$$
