
 OpenBabel10152418193D

 39 42  0  0  0  0  0  0  0  0999 V2000
    0.8150  -10.9680  -24.6180 C   0  0  0  0  0  0  0  0  0  0  0  0
   -0.0660  -11.6210  -25.4870 C   0  0  0  0  0  3  0  0  0  0  0  0
   -1.3840  -11.1810  -25.6110 C   0  0  0  0  0  3  0  0  0  0  0  0
   -1.8410  -10.0970  -24.8550 C   0  0  0  0  0  3  0  0  0  0  0  0
   -0.9920   -9.4600  -23.9500 C   0  0  0  0  0  0  0  0  0  0  0  0
    0.3350   -9.8870  -23.8560 C   0  0  0  0  0  3  0  0  0  0  0  0
   -1.3650   -8.3690  -23.1440 N   0  0  0  0  0  0  0  0  0  0  0  0
   -1.0970   -7.0240  -23.2370 C   0  0  0  0  0  0  0  0  0  0  0  0
   -1.2590   -6.2910  -22.2630 O   0  0  0  0  0  0  0  0  0  0  0  0
   -1.9010   -8.5870  -22.3110 H   0  0  0  0  0  0  0  0  0  0  0  0
   -0.7120   -6.4060  -24.5230 C   0  0  0  0  0  0  0  0  0  0  0  0
   -0.0290   -7.1780  -25.4630 C   0  0  0  0  0  3  0  0  0  0  0  0
    0.3420   -6.6110  -26.6830 C   0  0  0  0  0  3  0  0  0  0  0  0
    0.0500   -5.2700  -26.9580 C   0  0  0  0  0  0  0  0  0  0  0  0
    0.5160   -4.6580  -28.5030 Cl  0  0  0  0  0  0  0  0  0  0  0  0
   -0.6000   -4.4700  -26.0080 C   0  0  0  0  0  0  0  0  0  0  0  0
   -0.9670   -5.0520  -24.7790 C   0  0  0  0  0  3  0  0  0  0  0  0
   -0.9240   -3.0250  -26.2810 C   0  0  0  0  0  0  0  0  0  0  0  0
   -2.1120   -2.8510  -26.9200 F   0  0  0  0  0  0  0  0  0  0  0  0
   -0.9780   -2.2750  -25.1460 F   0  0  0  0  0  0  0  0  0  0  0  0
    0.0040   -2.4130  -27.0730 F   0  0  0  0  0  0  0  0  0  0  0  0
    2.2280  -11.4760  -24.4230 C   0  0  0  0  0  2  0  0  0  0  0  0
    4.3760   -9.3510  -29.7090 C   0  0  0  0  0  0  0  0  0  0  0  0
    4.5160  -10.5540  -30.4190 C   0  0  0  0  0  3  0  0  0  0  0  0
    4.2310  -11.7550  -29.7900 C   0  0  0  0  0  3  0  0  0  0  0  0
    3.8140  -11.7400  -28.4620 C   0  0  0  0  0  3  0  0  0  0  0  0
    3.6820  -10.5230  -27.7380 C   0  0  0  0  0  0  0  0  0  0  0  0
    3.2520  -10.4420  -26.3970 C   0  0  0  0  0  0  0  0  0  0  0  0
    2.8870  -11.5960  -25.7100 N   0  0  0  0  0  0  0  0  0  0  0  0
    3.1010   -9.2680  -25.7660 N   0  0  0  0  0  0  0  0  0  0  0  0
    3.3910   -8.1690  -26.4610 C   0  0  0  0  0  3  0  0  0  0  0  0
    3.8020   -8.1300  -27.7300 N   0  0  0  0  0  0  0  0  0  0  0  0
    3.9620   -9.3000  -28.3720 C   0  0  0  0  0  0  0  0  0  0  0  0
    3.5010  -12.3930  -25.8140 H   0  0  0  0  0  0  0  0  0  0  0  0
    4.8550   -6.9940  -29.6400 N   0  0  0  0  0  0  0  0  0  0  0  0
    4.6980   -8.1010  -30.4280 C   0  0  0  0  0  0  0  0  0  0  0  0
    4.7640   -8.0450  -31.6460 O   0  0  0  0  0  0  0  0  0  0  0  0
    5.0790   -6.1220  -30.1030 H   0  0  0  0  0  0  0  0  0  0  0  0
    4.8320   -7.0200  -28.6320 H   0  0  0  0  0  0  0  0  0  0  0  0
  1 22  1  0  0  0  0
  1  6  1  0  0  0  0
  2  1  2  0  0  0  0
  3  2  1  0  0  0  0
  3  4  2  0  0  0  0
  4  5  1  0  0  0  0
  5  6  2  0  0  0  0
  5  7  1  0  0  0  0
  7 10  1  0  0  0  0
  8  7  1  0  0  0  0
  8  9  2  0  0  0  0
 11  8  1  0  0  0  0
 12 11  2  0  0  0  0
 13 12  1  0  0  0  0
 14 13  2  0  0  0  0
 14 16  1  0  0  0  0
 15 14  1  0  0  0  0
 16 17  2  0  0  0  0
 17 11  1  0  0  0  0
 18 16  1  0  0  0  0
 18 20  1  0  0  0  0
 19 18  1  0  0  0  0
 21 18  1  0  0  0  0
 23 33  1  0  0  0  0
 24 25  1  0  0  0  0
 24 23  2  0  0  0  0
 25 26  2  0  0  0  0
 26 27  1  0  0  0  0
 27 28  1  0  0  0  0
 28 30  2  0  0  0  0
 28 29  1  0  0  0  0
 29 22  1  0  0  0  0
 31 30  1  0  0  0  0
 32 31  2  0  0  0  0
 33 27  2  0  0  0  0
 33 32  1  0  0  0  0
 34 29  1  0  0  0  0
 35 39  1  0  0  0  0
 36 23  1  0  0  0  0
 36 35  1  0  0  0  0
 37 36  2  0  0  0  0
 38 35  1  0  0  0  0
M  END
>  <minimizedAffinity>
-9.83295822

$$$$

 OpenBabel10152418193D

 39 42  0  0  0  0  0  0  0  0999 V2000
    0.9570  -11.3640  -24.8390 C   0  0  0  0  0  0  0  0  0  0  0  0
    0.1600  -11.8190  -25.8950 C   0  0  0  0  0  3  0  0  0  0  0  0
   -1.1870  -11.4620  -25.9600 C   0  0  0  0  0  3  0  0  0  0  0  0
   -1.7560  -10.6640  -24.9640 C   0  0  0  0  0  3  0  0  0  0  0  0
   -0.9910  -10.2360  -23.8790 C   0  0  0  0  0  0  0  0  0  0  0  0
    0.3660  -10.5720  -23.8380 C   0  0  0  0  0  3  0  0  0  0  0  0
   -1.4770   -9.4380  -22.8280 N   0  0  0  0  0  0  0  0  0  0  0  0
   -1.3350   -8.1000  -22.5490 C   0  0  0  0  0  0  0  0  0  0  0  0
   -1.5810   -7.6720  -21.4220 O   0  0  0  0  0  0  0  0  0  0  0  0
   -2.0040   -9.9170  -22.1060 H   0  0  0  0  0  0  0  0  0  0  0  0
   -0.9880   -7.1280  -23.6070 C   0  0  0  0  0  0  0  0  0  0  0  0
   -0.9080   -5.7740  -23.2780 C   0  0  0  0  0  3  0  0  0  0  0  0
   -0.5810   -4.8430  -24.2650 C   0  0  0  0  0  3  0  0  0  0  0  0
   -0.3540   -5.2580  -25.5820 C   0  0  0  0  0  0  0  0  0  0  0  0
    0.0770   -4.0450  -26.7320 Cl  0  0  0  0  0  0  0  0  0  0  0  0
   -0.4700   -6.6090  -25.9370 C   0  0  0  0  0  0  0  0  0  0  0  0
   -0.8040   -7.5400  -24.9340 C   0  0  0  0  0  3  0  0  0  0  0  0
   -0.2310   -7.0790  -27.3470 C   0  0  0  0  0  0  0  0  0  0  0  0
    1.0460   -6.8790  -27.7720 F   0  0  0  0  0  0  0  0  0  0  0  0
   -0.4920   -8.4050  -27.5110 F   0  0  0  0  0  0  0  0  0  0  0  0
   -1.0190   -6.4400  -28.2610 F   0  0  0  0  0  0  0  0  0  0  0  0
    2.4030  -11.7990  -24.7180 C   0  0  0  0  0  2  0  0  0  0  0  0
    4.4110   -9.2030  -29.8470 C   0  0  0  0  0  0  0  0  0  0  0  0
    4.5230  -10.3360  -30.6690 C   0  0  0  0  0  3  0  0  0  0  0  0
    4.2490  -11.5880  -30.1450 C   0  0  0  0  0  3  0  0  0  0  0  0
    3.8710  -11.6940  -28.8100 C   0  0  0  0  0  3  0  0  0  0  0  0
    3.7670  -10.5500  -27.9730 C   0  0  0  0  0  0  0  0  0  0  0  0
    3.3760  -10.5910  -26.6190 C   0  0  0  0  0  0  0  0  0  0  0  0
    3.0240  -11.8020  -26.0300 N   0  0  0  0  0  0  0  0  0  0  0  0
    3.2490   -9.4800  -25.8780 N   0  0  0  0  0  0  0  0  0  0  0  0
    3.5260   -8.3220  -26.4770 C   0  0  0  0  0  3  0  0  0  0  0  0
    3.9010   -8.1680  -27.7480 N   0  0  0  0  0  0  0  0  0  0  0  0
    4.0360   -9.2740  -28.5000 C   0  0  0  0  0  0  0  0  0  0  0  0
    3.6300  -12.5880  -26.2240 H   0  0  0  0  0  0  0  0  0  0  0  0
    4.6430   -6.8190  -29.6130 N   0  0  0  0  0  0  0  0  0  0  0  0
    4.7190   -7.8930  -30.4580 C   0  0  0  0  0  0  0  0  0  0  0  0
    4.9700   -7.7670  -31.6460 O   0  0  0  0  0  0  0  0  0  0  0  0
    4.8520   -5.9080  -30.0010 H   0  0  0  0  0  0  0  0  0  0  0  0
    4.4650   -6.9000  -28.6230 H   0  0  0  0  0  0  0  0  0  0  0  0
  1 22  1  0  0  0  0
  1  6  1  0  0  0  0
  2  1  2  0  0  0  0
  3  2  1  0  0  0  0
  3  4  2  0  0  0  0
  4  5  1  0  0  0  0
  5  6  2  0  0  0  0
  5  7  1  0  0  0  0
  7  8  1  0  0  0  0
  7 10  1  0  0  0  0
  8  9  2  0  0  0  0
 11 12  1  0  0  0  0
 11  8  1  0  0  0  0
 13 12  2  0  0  0  0
 14 13  1  0  0  0  0
 15 14  1  0  0  0  0
 16 14  2  0  0  0  0
 16 17  1  0  0  0  0
 17 11  2  0  0  0  0
 18 16  1  0  0  0  0
 19 18  1  0  0  0  0
 20 18  1  0  0  0  0
 21 18  1  0  0  0  0
 23 33  1  0  0  0  0
 24 25  1  0  0  0  0
 24 23  2  0  0  0  0
 25 26  2  0  0  0  0
 26 27  1  0  0  0  0
 27 28  1  0  0  0  0
 28 29  1  0  0  0  0
 28 30  2  0  0  0  0
 29 22  1  0  0  0  0
 31 30  1  0  0  0  0
 32 31  2  0  0  0  0
 33 27  2  0  0  0  0
 33 32  1  0  0  0  0
 34 29  1  0  0  0  0
 35 39  1  0  0  0  0
 36 23  1  0  0  0  0
 36 35  1  0  0  0  0
 37 36  2  0  0  0  0
 38 35  1  0  0  0  0
M  END
>  <minimizedAffinity>
-9.1849556

$$$$

 OpenBabel10152418193D

 39 42  0  0  0  0  0  0  0  0999 V2000
   -0.3510   -6.0150  -27.4050 C   0  0  0  0  0  0  0  0  0  0  0  0
   -0.3620   -4.6890  -26.9600 C   0  0  0  0  0  3  0  0  0  0  0  0
    0.6130   -3.7930  -27.3980 C   0  0  0  0  0  3  0  0  0  0  0  0
    1.6210   -4.2160  -28.2690 C   0  0  0  0  0  3  0  0  0  0  0  0
    1.6770   -5.5450  -28.6910 C   0  0  0  0  0  0  0  0  0  0  0  0
    0.6770   -6.4270  -28.2720 C   0  0  0  0  0  3  0  0  0  0  0  0
    2.6550   -6.0620  -29.5600 N   0  0  0  0  0  0  0  0  0  0  0  0
    3.6050   -7.0410  -29.3940 C   0  0  0  0  0  0  0  0  0  0  0  0
    4.5560   -7.1210  -30.1710 O   0  0  0  0  0  0  0  0  0  0  0  0
    2.7210   -5.6270  -30.4740 H   0  0  0  0  0  0  0  0  0  0  0  0
    3.4620   -8.0810  -28.3530 C   0  0  0  0  0  0  0  0  0  0  0  0
    3.8370   -9.3910  -28.6550 C   0  0  0  0  0  3  0  0  0  0  0  0
    3.7080  -10.3860  -27.6840 C   0  0  0  0  0  3  0  0  0  0  0  0
    3.1880  -10.0790  -26.4210 C   0  0  0  0  0  0  0  0  0  0  0  0
    3.0950  -11.3620  -25.2710 Cl  0  0  0  0  0  0  0  0  0  0  0  0
    2.7700   -8.7770  -26.1160 C   0  0  0  0  0  0  0  0  0  0  0  0
    2.9010   -7.7810  -27.1050 C   0  0  0  0  0  3  0  0  0  0  0  0
    2.2070   -8.4230  -24.7660 C   0  0  0  0  0  0  0  0  0  0  0  0
    1.5240   -9.4440  -24.1830 F   0  0  0  0  0  0  0  0  0  0  0  0
    3.1680   -8.0410  -23.8800 F   0  0  0  0  0  0  0  0  0  0  0  0
    1.3260   -7.3810  -24.8140 F   0  0  0  0  0  0  0  0  0  0  0  0
   -1.3630   -7.0140  -26.8860 C   0  0  0  0  0  2  0  0  0  0  0  0
   -1.8230   -9.7920  -21.4860 C   0  0  0  0  0  0  0  0  0  0  0  0
   -1.8650   -8.6730  -20.6380 C   0  0  0  0  0  3  0  0  0  0  0  0
   -1.7390   -7.4040  -21.1760 C   0  0  0  0  0  3  0  0  0  0  0  0
   -1.5690   -7.2660  -22.5500 C   0  0  0  0  0  3  0  0  0  0  0  0
   -1.5150   -8.3960  -23.4100 C   0  0  0  0  0  0  0  0  0  0  0  0
   -1.3590   -8.3200  -24.8090 C   0  0  0  0  0  0  0  0  0  0  0  0
   -1.2860   -7.0810  -25.4380 N   0  0  0  0  0  0  0  0  0  0  0  0
   -1.3570   -9.4130  -25.5880 N   0  0  0  0  0  0  0  0  0  0  0  0
   -1.4950  -10.5890  -24.9750 C   0  0  0  0  0  3  0  0  0  0  0  0
   -1.6520  -10.7750  -23.6640 N   0  0  0  0  0  0  0  0  0  0  0  0
   -1.6510   -9.6890  -22.8730 C   0  0  0  0  0  0  0  0  0  0  0  0
   -0.6910   -6.3910  -25.0000 H   0  0  0  0  0  0  0  0  0  0  0  0
   -1.0060  -12.0380  -21.2120 N   0  0  0  0  0  0  0  0  0  0  0  0
   -1.9580  -11.1220  -20.8580 C   0  0  0  0  0  0  0  0  0  0  0  0
   -2.8870  -11.4050  -20.1170 O   0  0  0  0  0  0  0  0  0  0  0  0
   -1.0700  -12.9590  -20.7960 H   0  0  0  0  0  0  0  0  0  0  0  0
   -0.2150  -11.8210  -21.8000 H   0  0  0  0  0  0  0  0  0  0  0  0
  1  2  1  0  0  0  0
  1 22  1  0  0  0  0
  3  2  2  0  0  0  0
  4  3  1  0  0  0  0
  5  6  1  0  0  0  0
  5  4  2  0  0  0  0
  6  1  2  0  0  0  0
  7  8  1  0  0  0  0
  7  5  1  0  0  0  0
  8 11  1  0  0  0  0
  9  8  2  0  0  0  0
 10  7  1  0  0  0  0
 11 17  1  0  0  0  0
 12 11  2  0  0  0  0
 12 13  1  0  0  0  0
 13 14  2  0  0  0  0
 14 16  1  0  0  0  0
 14 15  1  0  0  0  0
 16 18  1  0  0  0  0
 17 16  2  0  0  0  0
 18 19  1  0  0  0  0
 18 20  1  0  0  0  0
 21 18  1  0  0  0  0
 22 29  1  0  0  0  0
 23 36  1  0  0  0  0
 23 24  1  0  0  0  0
 25 24  2  0  0  0  0
 26 25  1  0  0  0  0
 27 33  1  0  0  0  0
 27 26  2  0  0  0  0
 28 27  1  0  0  0  0
 29 34  1  0  0  0  0
 29 28  1  0  0  0  0
 30 31  1  0  0  0  0
 30 28  2  0  0  0  0
 31 32  2  0  0  0  0
 32 33  1  0  0  0  0
 33 23  2  0  0  0  0
 35 36  1  0  0  0  0
 35 38  1  0  0  0  0
 36 37  2  0  0  0  0
 39 35  1  0  0  0  0
M  END
>  <minimizedAffinity>
-9.04660511

$$$$

 OpenBabel10152418193D

 39 42  0  0  0  0  0  0  0  0999 V2000
    2.3470  -11.4740  -26.7340 C   0  0  0  0  0  0  0  0  0  0  0  0
    3.2430  -12.0330  -25.8170 C   0  0  0  0  0  3  0  0  0  0  0  0
    4.5470  -11.5450  -25.7220 C   0  0  0  0  0  3  0  0  0  0  0  0
    4.9740  -10.5060  -26.5550 C   0  0  0  0  0  3  0  0  0  0  0  0
    4.1110   -9.9640  -27.5070 C   0  0  0  0  0  0  0  0  0  0  0  0
    2.7980  -10.4380  -27.5730 C   0  0  0  0  0  3  0  0  0  0  0  0
    4.4550   -8.9240  -28.3900 N   0  0  0  0  0  0  0  0  0  0  0  0
    3.8200   -7.7500  -28.7180 C   0  0  0  0  0  0  0  0  0  0  0  0
    4.1370   -7.1370  -29.7360 O   0  0  0  0  0  0  0  0  0  0  0  0
    5.3050   -9.0530  -28.9280 H   0  0  0  0  0  0  0  0  0  0  0  0
    2.8210   -7.1400  -27.8150 C   0  0  0  0  0  0  0  0  0  0  0  0
    2.6720   -7.6590  -26.5290 C   0  0  0  0  0  3  0  0  0  0  0  0
    1.7340   -7.0940  -25.6620 C   0  0  0  0  0  3  0  0  0  0  0  0
    0.9330   -6.0270  -26.0850 C   0  0  0  0  0  0  0  0  0  0  0  0
   -0.1770   -5.3680  -24.9390 Cl  0  0  0  0  0  0  0  0  0  0  0  0
    1.0430   -5.5210  -27.3870 C   0  0  0  0  0  0  0  0  0  0  0  0
    1.9900   -6.1010  -28.2540 C   0  0  0  0  0  3  0  0  0  0  0  0
    0.1920   -4.3750  -27.8640 C   0  0  0  0  0  0  0  0  0  0  0  0
   -0.2910   -3.6050  -26.8530 F   0  0  0  0  0  0  0  0  0  0  0  0
    0.8600   -3.5390  -28.7060 F   0  0  0  0  0  0  0  0  0  0  0  0
   -0.9080   -4.7850  -28.5620 F   0  0  0  0  0  0  0  0  0  0  0  0
    0.9520  -12.0390  -26.8960 C   0  0  0  0  0  2  0  0  0  0  0  0
   -2.1020   -9.0440  -22.5620 C   0  0  0  0  0  0  0  0  0  0  0  0
   -2.0070   -9.9700  -21.5100 C   0  0  0  0  0  3  0  0  0  0  0  0
   -1.3850  -11.1880  -21.7270 C   0  0  0  0  0  3  0  0  0  0  0  0
   -0.8700  -11.4690  -22.9900 C   0  0  0  0  0  3  0  0  0  0  0  0
   -0.9740  -10.5370  -24.0590 C   0  0  0  0  0  0  0  0  0  0  0  0
   -0.4610  -10.7580  -25.3540 C   0  0  0  0  0  0  0  0  0  0  0  0
    0.2320  -11.9300  -25.6410 N   0  0  0  0  0  0  0  0  0  0  0  0
   -0.5440   -9.8320  -26.3220 N   0  0  0  0  0  0  0  0  0  0  0  0
   -1.1530   -8.6880  -26.0100 C   0  0  0  0  0  3  0  0  0  0  0  0
   -1.6700   -8.3750  -24.8210 N   0  0  0  0  0  0  0  0  0  0  0  0
   -1.5970   -9.2950  -23.8440 C   0  0  0  0  0  0  0  0  0  0  0  0
   -0.1770  -12.7880  -25.2960 H   0  0  0  0  0  0  0  0  0  0  0  0
   -2.0300   -6.8420  -21.5940 N   0  0  0  0  0  0  0  0  0  0  0  0
   -2.7790   -7.7630  -22.2750 C   0  0  0  0  0  0  0  0  0  0  0  0
   -3.9450   -7.5580  -22.5730 O   0  0  0  0  0  0  0  0  0  0  0  0
   -2.4650   -5.9530  -21.3850 H   0  0  0  0  0  0  0  0  0  0  0  0
   -1.0570   -6.9780  -21.3620 H   0  0  0  0  0  0  0  0  0  0  0  0
  1  2  1  0  0  0  0
  2  3  2  0  0  0  0
  4  3  1  0  0  0  0
  5  4  2  0  0  0  0
  6  5  1  0  0  0  0
  6  1  2  0  0  0  0
  7  5  1  0  0  0  0
  8  7  1  0  0  0  0
  8 11  1  0  0  0  0
  9  8  2  0  0  0  0
 10  7  1  0  0  0  0
 11 12  1  0  0  0  0
 12 13  2  0  0  0  0
 14 13  1  0  0  0  0
 14 15  1  0  0  0  0
 16 14  2  0  0  0  0
 17 11  2  0  0  0  0
 17 16  1  0  0  0  0
 18 16  1  0  0  0  0
 18 19  1  0  0  0  0
 20 18  1  0  0  0  0
 21 18  1  0  0  0  0
 22  1  1  0  0  0  0
 22 29  1  0  0  0  0
 23 36  1  0  0  0  0
 23 24  1  0  0  0  0
 25 24  2  0  0  0  0
 26 25  1  0  0  0  0
 27 33  1  0  0  0  0
 27 26  2  0  0  0  0
 28 27  1  0  0  0  0
 29 28  1  0  0  0  0
 29 34  1  0  0  0  0
 30 31  1  0  0  0  0
 30 28  2  0  0  0  0
 31 32  2  0  0  0  0
 32 33  1  0  0  0  0
 33 23  2  0  0  0  0
 35 38  1  0  0  0  0
 35 39  1  0  0  0  0
 36 35  1  0  0  0  0
 37 36  2  0  0  0  0
M  END
>  <minimizedAffinity>
-8.93240738

$$$$

 OpenBabel10152418193D

 39 42  0  0  0  0  0  0  0  0999 V2000
    2.2530  -11.6180  -26.7200 C   0  0  0  0  0  0  0  0  0  0  0  0
    3.0170  -12.0350  -25.6240 C   0  0  0  0  0  3  0  0  0  0  0  0
    4.3670  -11.6950  -25.5400 C   0  0  0  0  0  3  0  0  0  0  0  0
    4.9740  -10.9520  -26.5570 C   0  0  0  0  0  3  0  0  0  0  0  0
    4.2430  -10.5630  -27.6790 C   0  0  0  0  0  0  0  0  0  0  0  0
    2.8830  -10.8810  -27.7400 C   0  0  0  0  0  3  0  0  0  0  0  0
    4.7690   -9.8220  -28.7520 N   0  0  0  0  0  0  0  0  0  0  0  0
    4.3100   -8.7060  -29.4100 C   0  0  0  0  0  0  0  0  0  0  0  0
    4.7640   -8.4060  -30.5130 O   0  0  0  0  0  0  0  0  0  0  0  0
    5.6280  -10.1720  -29.1630 H   0  0  0  0  0  0  0  0  0  0  0  0
    3.3440   -7.7840  -28.7750 C   0  0  0  0  0  0  0  0  0  0  0  0
    2.8440   -6.7160  -29.5200 C   0  0  0  0  0  3  0  0  0  0  0  0
    1.9310   -5.8360  -28.9370 C   0  0  0  0  0  3  0  0  0  0  0  0
    1.5310   -6.0100  -27.6060 C   0  0  0  0  0  0  0  0  0  0  0  0
    0.3740   -4.8960  -26.9750 Cl  0  0  0  0  0  0  0  0  0  0  0  0
    2.0550   -7.0550  -26.8330 C   0  0  0  0  0  0  0  0  0  0  0  0
    2.9790   -7.9350  -27.4310 C   0  0  0  0  0  3  0  0  0  0  0  0
    1.6410   -7.2620  -25.4010 C   0  0  0  0  0  0  0  0  0  0  0  0
    0.5150   -6.5790  -25.0610 F   0  0  0  0  0  0  0  0  0  0  0  0
    1.4070   -8.5700  -25.1040 F   0  0  0  0  0  0  0  0  0  0  0  0
    2.5920   -6.8540  -24.5090 F   0  0  0  0  0  0  0  0  0  0  0  0
    0.8050  -12.0360  -26.8590 C   0  0  0  0  0  2  0  0  0  0  0  0
   -2.2110   -9.1750  -22.4090 C   0  0  0  0  0  0  0  0  0  0  0  0
   -1.9990  -10.0740  -21.3510 C   0  0  0  0  0  3  0  0  0  0  0  0
   -1.3090  -11.2520  -21.5850 C   0  0  0  0  0  3  0  0  0  0  0  0
   -0.8440  -11.5200  -22.8690 C   0  0  0  0  0  3  0  0  0  0  0  0
   -1.0660  -10.6160  -23.9440 C   0  0  0  0  0  0  0  0  0  0  0  0
   -0.6080  -10.8240  -25.2610 C   0  0  0  0  0  0  0  0  0  0  0  0
    0.1460  -11.9530  -25.5680 N   0  0  0  0  0  0  0  0  0  0  0  0
   -0.8040   -9.9230  -26.2360 N   0  0  0  0  0  0  0  0  0  0  0  0
   -1.4700   -8.8170  -25.9070 C   0  0  0  0  0  3  0  0  0  0  0  0
   -1.9440   -8.5180  -24.6970 N   0  0  0  0  0  0  0  0  0  0  0  0
   -1.7590   -9.4140  -23.7130 C   0  0  0  0  0  0  0  0  0  0  0  0
   -0.1860  -12.8300  -25.1900 H   0  0  0  0  0  0  0  0  0  0  0  0
   -2.4200   -7.1560  -21.1170 N   0  0  0  0  0  0  0  0  0  0  0  0
   -2.9570   -7.9370  -22.1040 C   0  0  0  0  0  0  0  0  0  0  0  0
   -4.0100   -7.6540  -22.6530 O   0  0  0  0  0  0  0  0  0  0  0  0
   -2.9060   -6.2990  -20.8860 H   0  0  0  0  0  0  0  0  0  0  0  0
   -1.5380   -7.3540  -20.6680 H   0  0  0  0  0  0  0  0  0  0  0  0
  1  2  1  0  0  0  0
  2  3  2  0  0  0  0
  4  3  1  0  0  0  0
  5  4  2  0  0  0  0
  6  5  1  0  0  0  0
  6  1  2  0  0  0  0
  7  5  1  0  0  0  0
  8 11  1  0  0  0  0
  8  7  1  0  0  0  0
  9  8  2  0  0  0  0
 10  7  1  0  0  0  0
 11 17  1  0  0  0  0
 12 13  1  0  0  0  0
 12 11  2  0  0  0  0
 13 14  2  0  0  0  0
 14 15  1  0  0  0  0
 14 16  1  0  0  0  0
 16 18  1  0  0  0  0
 17 16  2  0  0  0  0
 18 20  1  0  0  0  0
 18 19  1  0  0  0  0
 18 21  1  0  0  0  0
 22  1  1  0  0  0  0
 22 29  1  0  0  0  0
 23 36  1  0  0  0  0
 23 24  1  0  0  0  0
 25 24  2  0  0  0  0
 26 25  1  0  0  0  0
 27 33  1  0  0  0  0
 27 26  2  0  0  0  0
 28 27  1  0  0  0  0
 29 28  1  0  0  0  0
 29 34  1  0  0  0  0
 30 31  1  0  0  0  0
 30 28  2  0  0  0  0
 31 32  2  0  0  0  0
 32 33  1  0  0  0  0
 33 23  2  0  0  0  0
 35 38  1  0  0  0  0
 35 39  1  0  0  0  0
 36 35  1  0  0  0  0
 37 36  2  0  0  0  0
M  END
>  <minimizedAffinity>
-8.27183914

$$$$

 OpenBabel10152418193D

 39 42  0  0  0  0  0  0  0  0999 V2000
    1.4220  -11.5910  -25.1060 C   0  0  0  0  0  0  0  0  0  0  0  0
    0.6290  -11.6500  -26.2560 C   0  0  0  0  0  3  0  0  0  0  0  0
   -0.7520  -11.8080  -26.1490 C   0  0  0  0  0  3  0  0  0  0  0  0
   -1.3540  -11.9280  -24.8930 C   0  0  0  0  0  3  0  0  0  0  0  0
   -0.5780  -11.9170  -23.7340 C   0  0  0  0  0  0  0  0  0  0  0  0
    0.8020  -11.7260  -23.8500 C   0  0  0  0  0  3  0  0  0  0  0  0
   -1.0940  -12.0380  -22.4310 N   0  0  0  0  0  0  0  0  0  0  0  0
   -1.2990  -11.1140  -21.4350 C   0  0  0  0  0  0  0  0  0  0  0  0
   -1.4680  -11.4820  -20.2730 O   0  0  0  0  0  0  0  0  0  0  0  0
   -1.3330  -12.9760  -22.1270 H   0  0  0  0  0  0  0  0  0  0  0  0
   -1.4260   -9.6730  -21.7390 C   0  0  0  0  0  0  0  0  0  0  0  0
   -1.4630   -8.7630  -20.6820 C   0  0  0  0  0  3  0  0  0  0  0  0
   -1.5830   -7.3990  -20.9510 C   0  0  0  0  0  3  0  0  0  0  0  0
   -1.6840   -6.9440  -22.2720 C   0  0  0  0  0  0  0  0  0  0  0  0
   -1.7960   -5.2390  -22.5150 Cl  0  0  0  0  0  0  0  0  0  0  0  0
   -1.6880   -7.8490  -23.3420 C   0  0  0  0  0  0  0  0  0  0  0  0
   -1.5710   -9.2240  -23.0580 C   0  0  0  0  0  3  0  0  0  0  0  0
   -1.7970   -7.3840  -24.7690 C   0  0  0  0  0  0  0  0  0  0  0  0
   -3.0760   -7.1390  -25.1600 F   0  0  0  0  0  0  0  0  0  0  0  0
   -1.0910   -6.2440  -25.0060 F   0  0  0  0  0  0  0  0  0  0  0  0
   -1.3150   -8.2970  -25.6630 F   0  0  0  0  0  0  0  0  0  0  0  0
    2.9300  -11.4870  -25.2080 C   0  0  0  0  0  2  0  0  0  0  0  0
    2.4660   -6.3710  -28.4760 C   0  0  0  0  0  0  0  0  0  0  0  0
    3.1240   -6.7690  -29.6520 C   0  0  0  0  0  3  0  0  0  0  0  0
    3.6890   -8.0310  -29.7220 C   0  0  0  0  0  3  0  0  0  0  0  0
    3.5950   -8.8770  -28.6210 C   0  0  0  0  0  3  0  0  0  0  0  0
    2.9390   -8.4720  -27.4260 C   0  0  0  0  0  0  0  0  0  0  0  0
    2.8000   -9.2870  -26.2840 C   0  0  0  0  0  0  0  0  0  0  0  0
    3.2860  -10.5910  -26.2930 N   0  0  0  0  0  0  0  0  0  0  0  0
    2.1340   -8.8790  -25.1930 N   0  0  0  0  0  0  0  0  0  0  0  0
    1.6180   -7.6510  -25.2270 C   0  0  0  0  0  3  0  0  0  0  0  0
    1.6880   -6.8000  -26.2520 N   0  0  0  0  0  0  0  0  0  0  0  0
    2.3560   -7.1950  -27.3490 C   0  0  0  0  0  0  0  0  0  0  0  0
    4.2090  -10.7230  -26.6830 H   0  0  0  0  0  0  0  0  0  0  0  0
    0.7460   -4.8490  -29.1950 N   0  0  0  0  0  0  0  0  0  0  0  0
    1.8860   -5.0120  -28.4550 C   0  0  0  0  0  0  0  0  0  0  0  0
    2.4140   -4.0830  -27.8650 O   0  0  0  0  0  0  0  0  0  0  0  0
    0.3220   -3.9300  -29.1990 H   0  0  0  0  0  0  0  0  0  0  0  0
    0.2760   -5.6060  -29.6690 H   0  0  0  0  0  0  0  0  0  0  0  0
  1  6  1  0  0  0  0
  2  3  1  0  0  0  0
  2  1  2  0  0  0  0
  3  4  2  0  0  0  0
  4  5  1  0  0  0  0
  5  7  1  0  0  0  0
  6  5  2  0  0  0  0
  7 10  1  0  0  0  0
  7  8  1  0  0  0  0
  8  9  2  0  0  0  0
 11  8  1  0  0  0  0
 11 12  1  0  0  0  0
 13 12  2  0  0  0  0
 14 13  1  0  0  0  0
 15 14  1  0  0  0  0
 16 17  1  0  0  0  0
 16 14  2  0  0  0  0
 17 11  2  0  0  0  0
 18 16  1  0  0  0  0
 19 18  1  0  0  0  0
 20 18  1  0  0  0  0
 21 18  1  0  0  0  0
 22  1  1  0  0  0  0
 23 36  1  0  0  0  0
 23 33  1  0  0  0  0
 24 23  2  0  0  0  0
 25 24  1  0  0  0  0
 25 26  2  0  0  0  0
 26 27  1  0  0  0  0
 27 33  2  0  0  0  0
 27 28  1  0  0  0  0
 28 30  2  0  0  0  0
 29 28  1  0  0  0  0
 29 22  1  0  0  0  0
 31 30  1  0  0  0  0
 32 31  2  0  0  0  0
 33 32  1  0  0  0  0
 34 29  1  0  0  0  0
 35 36  1  0  0  0  0
 36 37  2  0  0  0  0
 38 35  1  0  0  0  0
 39 35  1  0  0  0  0
M  END
>  <minimizedAffinity>
-7.49201107

$$$$

 OpenBabel10152418193D

 39 42  0  0  0  0  0  0  0  0999 V2000
   -1.1220   -7.1530  -23.4220 C   0  0  0  0  0  0  0  0  0  0  0  0
   -1.1980   -6.0010  -22.6320 C   0  0  0  0  0  3  0  0  0  0  0  0
   -1.5150   -6.0990  -21.2770 C   0  0  0  0  0  3  0  0  0  0  0  0
   -1.7770   -7.3460  -20.7010 C   0  0  0  0  0  3  0  0  0  0  0  0
   -1.7500   -8.5030  -21.4800 C   0  0  0  0  0  0  0  0  0  0  0  0
   -1.4010   -8.3980  -22.8300 C   0  0  0  0  0  3  0  0  0  0  0  0
   -2.0060   -9.7970  -20.9910 N   0  0  0  0  0  0  0  0  0  0  0  0
   -1.9200  -11.0350  -21.5800 C   0  0  0  0  0  0  0  0  0  0  0  0
   -2.4840  -12.0040  -21.0730 O   0  0  0  0  0  0  0  0  0  0  0  0
   -2.3570   -9.8570  -20.0410 H   0  0  0  0  0  0  0  0  0  0  0  0
   -1.0700  -11.2620  -22.7680 C   0  0  0  0  0  0  0  0  0  0  0  0
    0.1970  -11.8180  -22.5930 C   0  0  0  0  0  3  0  0  0  0  0  0
    1.0130  -12.0390  -23.7040 C   0  0  0  0  0  3  0  0  0  0  0  0
    0.5720  -11.6890  -24.9860 C   0  0  0  0  0  0  0  0  0  0  0  0
    1.6310  -12.0270  -26.3070 Cl  0  0  0  0  0  0  0  0  0  0  0  0
   -0.6820  -11.0930  -25.1740 C   0  0  0  0  0  0  0  0  0  0  0  0
   -1.4950  -10.8710  -24.0450 C   0  0  0  0  0  3  0  0  0  0  0  0
   -1.1770  -10.7070  -26.5420 C   0  0  0  0  0  0  0  0  0  0  0  0
   -0.5170  -11.3370  -27.5510 F   0  0  0  0  0  0  0  0  0  0  0  0
   -2.5010  -10.9730  -26.7170 F   0  0  0  0  0  0  0  0  0  0  0  0
   -1.0400   -9.3730  -26.8000 F   0  0  0  0  0  0  0  0  0  0  0  0
   -0.8460   -7.0560  -24.9080 C   0  0  0  0  0  2  0  0  0  0  0  0
    3.9140   -8.2760  -28.5030 C   0  0  0  0  0  0  0  0  0  0  0  0
    4.5620   -9.2530  -27.7300 C   0  0  0  0  0  3  0  0  0  0  0  0
    4.0530   -9.5870  -26.4870 C   0  0  0  0  0  3  0  0  0  0  0  0
    2.9070   -8.9420  -26.0300 C   0  0  0  0  0  3  0  0  0  0  0  0
    2.2550   -7.9460  -26.8060 C   0  0  0  0  0  0  0  0  0  0  0  0
    1.0860   -7.2680  -26.4040 C   0  0  0  0  0  0  0  0  0  0  0  0
    0.4730   -7.5870  -25.1960 N   0  0  0  0  0  0  0  0  0  0  0  0
    0.4790   -6.3640  -27.1890 N   0  0  0  0  0  0  0  0  0  0  0  0
    1.0420   -6.1200  -28.3720 C   0  0  0  0  0  3  0  0  0  0  0  0
    2.1420   -6.7020  -28.8510 N   0  0  0  0  0  0  0  0  0  0  0  0
    2.7620   -7.6060  -28.0730 C   0  0  0  0  0  0  0  0  0  0  0  0
    1.0850   -7.6940  -24.3980 H   0  0  0  0  0  0  0  0  0  0  0  0
    4.7900   -6.6340  -30.0290 N   0  0  0  0  0  0  0  0  0  0  0  0
    4.5040   -7.9560  -29.8190 C   0  0  0  0  0  0  0  0  0  0  0  0
    4.6740   -8.8010  -30.6840 O   0  0  0  0  0  0  0  0  0  0  0  0
    5.1980   -6.3830  -30.9200 H   0  0  0  0  0  0  0  0  0  0  0  0
    4.6840   -5.9220  -29.3210 H   0  0  0  0  0  0  0  0  0  0  0  0
  1  6  2  0  0  0  0
  1  2  1  0  0  0  0
  2  3  2  0  0  0  0
  3  4  1  0  0  0  0
  5  7  1  0  0  0  0
  5  4  2  0  0  0  0
  6  5  1  0  0  0  0
  7 10  1  0  0  0  0
  8  9  2  0  0  0  0
  8  7  1  0  0  0  0
 11 12  1  0  0  0  0
 11  8  1  0  0  0  0
 13 12  2  0  0  0  0
 14 13  1  0  0  0  0
 15 14  1  0  0  0  0
 16 14  2  0  0  0  0
 16 17  1  0  0  0  0
 17 11  2  0  0  0  0
 18 16  1  0  0  0  0
 19 18  1  0  0  0  0
 20 18  1  0  0  0  0
 21 18  1  0  0  0  0
 22  1  1  0  0  0  0
 23 33  2  0  0  0  0
 23 24  1  0  0  0  0
 24 25  2  0  0  0  0
 25 26  1  0  0  0  0
 27 28  1  0  0  0  0
 27 26  2  0  0  0  0
 28 29  1  0  0  0  0
 29 22  1  0  0  0  0
 29 34  1  0  0  0  0
 30 28  2  0  0  0  0
 31 30  1  0  0  0  0
 32 31  2  0  0  0  0
 32 33  1  0  0  0  0
 33 27  1  0  0  0  0
 35 36  1  0  0  0  0
 35 39  1  0  0  0  0
 36 23  1  0  0  0  0
 37 36  2  0  0  0  0
 38 35  1  0  0  0  0
M  END
>  <minimizedAffinity>
-7.257061

$$$$

 OpenBabel10152418193D

 39 42  0  0  0  0  0  0  0  0999 V2000
    3.2720  -10.9790  -26.6280 C   0  0  0  0  0  0  0  0  0  0  0  0
    2.9890  -12.0390  -27.4970 C   0  0  0  0  0  3  0  0  0  0  0  0
    3.2580  -11.9190  -28.8610 C   0  0  0  0  0  3  0  0  0  0  0  0
    3.7920  -10.7340  -29.3740 C   0  0  0  0  0  3  0  0  0  0  0  0
    4.0410   -9.6490  -28.5330 C   0  0  0  0  0  0  0  0  0  0  0  0
    3.7990   -9.7890  -27.1640 C   0  0  0  0  0  3  0  0  0  0  0  0
    4.5700   -8.4170  -28.9600 N   0  0  0  0  0  0  0  0  0  0  0  0
    3.9790   -7.2030  -29.2160 C   0  0  0  0  0  0  0  0  0  0  0  0
    4.5740   -6.3500  -29.8730 O   0  0  0  0  0  0  0  0  0  0  0  0
    5.5640   -8.4000  -29.1600 H   0  0  0  0  0  0  0  0  0  0  0  0
    2.6700   -6.8480  -28.6290 C   0  0  0  0  0  0  0  0  0  0  0  0
    2.3450   -5.5000  -28.4740 C   0  0  0  0  0  3  0  0  0  0  0  0
    1.1130   -5.1470  -27.9220 C   0  0  0  0  0  3  0  0  0  0  0  0
    0.2130   -6.1360  -27.5080 C   0  0  0  0  0  0  0  0  0  0  0  0
   -1.3010   -5.6110  -26.8660 Cl  0  0  0  0  0  0  0  0  0  0  0  0
    0.5410   -7.4940  -27.6200 C   0  0  0  0  0  0  0  0  0  0  0  0
    1.7890   -7.8390  -28.1760 C   0  0  0  0  0  3  0  0  0  0  0  0
   -0.4100   -8.5750  -27.1810 C   0  0  0  0  0  0  0  0  0  0  0  0
   -1.2740   -8.9620  -28.1580 F   0  0  0  0  0  0  0  0  0  0  0  0
    0.2310   -9.7000  -26.7610 F   0  0  0  0  0  0  0  0  0  0  0  0
   -1.1970   -8.1960  -26.1320 F   0  0  0  0  0  0  0  0  0  0  0  0
    2.9240  -11.0700  -25.1580 C   0  0  0  0  0  2  0  0  0  0  0  0
   -1.4520   -7.5030  -22.8740 C   0  0  0  0  0  0  0  0  0  0  0  0
   -0.9620   -6.2420  -23.2490 C   0  0  0  0  0  3  0  0  0  0  0  0
    0.2600   -6.1490  -23.8940 C   0  0  0  0  0  3  0  0  0  0  0  0
    0.9780   -7.3130  -24.1530 C   0  0  0  0  0  3  0  0  0  0  0  0
    0.4890   -8.5900  -23.7660 C   0  0  0  0  0  0  0  0  0  0  0  0
    1.1620   -9.8050  -24.0120 C   0  0  0  0  0  0  0  0  0  0  0  0
    2.3670   -9.8070  -24.7090 N   0  0  0  0  0  0  0  0  0  0  0  0
    0.6420  -10.9920  -23.6660 N   0  0  0  0  0  0  0  0  0  0  0  0
   -0.5450  -10.9760  -23.0590 C   0  0  0  0  0  3  0  0  0  0  0  0
   -1.2670   -9.8900  -22.7800 N   0  0  0  0  0  0  0  0  0  0  0  0
   -0.7550   -8.6940  -23.1170 C   0  0  0  0  0  0  0  0  0  0  0  0
    3.0410   -9.1030  -24.4400 H   0  0  0  0  0  0  0  0  0  0  0  0
   -2.7020   -7.5580  -20.8190 N   0  0  0  0  0  0  0  0  0  0  0  0
   -2.7580   -7.5430  -22.1860 C   0  0  0  0  0  0  0  0  0  0  0  0
   -3.8170   -7.6130  -22.7910 O   0  0  0  0  0  0  0  0  0  0  0  0
   -3.5800   -7.5820  -20.3170 H   0  0  0  0  0  0  0  0  0  0  0  0
   -1.8430   -7.4730  -20.2960 H   0  0  0  0  0  0  0  0  0  0  0  0
  1 22  1  0  0  0  0
  2  1  2  0  0  0  0
  3  2  1  0  0  0  0
  4  3  2  0  0  0  0
  4  5  1  0  0  0  0
  5  6  2  0  0  0  0
  6  1  1  0  0  0  0
  7  5  1  0  0  0  0
  8  7  1  0  0  0  0
  8 11  1  0  0  0  0
  9  8  2  0  0  0  0
 10  7  1  0  0  0  0
 11 12  2  0  0  0  0
 11 17  1  0  0  0  0
 12 13  1  0  0  0  0
 13 14  2  0  0  0  0
 14 15  1  0  0  0  0
 16 14  1  0  0  0  0
 16 18  1  0  0  0  0
 17 16  2  0  0  0  0
 18 20  1  0  0  0  0
 18 21  1  0  0  0  0
 19 18  1  0  0  0  0
 22 29  1  0  0  0  0
 23 36  1  0  0  0  0
 24 23  2  0  0  0  0
 25 24  1  0  0  0  0
 26 25  2  0  0  0  0
 26 27  1  0  0  0  0
 27 33  1  0  0  0  0
 28 27  2  0  0  0  0
 28 30  1  0  0  0  0
 29 34  1  0  0  0  0
 29 28  1  0  0  0  0
 30 31  2  0  0  0  0
 31 32  1  0  0  0  0
 33 23  1  0  0  0  0
 33 32  2  0  0  0  0
 35 38  1  0  0  0  0
 35 39  1  0  0  0  0
 36 35  1  0  0  0  0
 37 36  2  0  0  0  0
M  END
>  <minimizedAffinity>
-7.1917038

$$$$
