
 OpenBabel10152418193D

 39 42  0  0  0  0  0  0  0  0999 V2000
    0.9570  -11.3640  -24.8390 C   0  0  0  0  0  0  0  0  0  0  0  0
    0.1600  -11.8190  -25.8950 C   0  0  0  0  0  3  0  0  0  0  0  0
   -1.1870  -11.4620  -25.9600 C   0  0  0  0  0  3  0  0  0  0  0  0
   -1.7560  -10.6640  -24.9640 C   0  0  0  0  0  3  0  0  0  0  0  0
   -0.9910  -10.2360  -23.8790 C   0  0  0  0  0  0  0  0  0  0  0  0
    0.3660  -10.5720  -23.8380 C   0  0  0  0  0  3  0  0  0  0  0  0
   -1.4770   -9.4380  -22.8280 N   0  0  0  0  0  0  0  0  0  0  0  0
   -1.3350   -8.1000  -22.5490 C   0  0  0  0  0  0  0  0  0  0  0  0
   -1.5810   -7.6720  -21.4220 O   0  0  0  0  0  0  0  0  0  0  0  0
   -2.0040   -9.9170  -22.1060 H   0  0  0  0  0  0  0  0  0  0  0  0
   -0.9880   -7.1280  -23.6070 C   0  0  0  0  0  0  0  0  0  0  0  0
   -0.9080   -5.7740  -23.2780 C   0  0  0  0  0  3  0  0  0  0  0  0
   -0.5810   -4.8430  -24.2650 C   0  0  0  0  0  3  0  0  0  0  0  0
   -0.3540   -5.2580  -25.5820 C   0  0  0  0  0  0  0  0  0  0  0  0
    0.0770   -4.0450  -26.7320 Cl  0  0  0  0  0  0  0  0  0  0  0  0
   -0.4700   -6.6090  -25.9370 C   0  0  0  0  0  0  0  0  0  0  0  0
   -0.8040   -7.5400  -24.9340 C   0  0  0  0  0  3  0  0  0  0  0  0
   -0.2310   -7.0790  -27.3470 C   0  0  0  0  0  0  0  0  0  0  0  0
    1.0460   -6.8790  -27.7720 F   0  0  0  0  0  0  0  0  0  0  0  0
   -0.4920   -8.4050  -27.5110 F   0  0  0  0  0  0  0  0  0  0  0  0
   -1.0190   -6.4400  -28.2610 F   0  0  0  0  0  0  0  0  0  0  0  0
    2.4030  -11.7990  -24.7180 C   0  0  0  0  0  2  0  0  0  0  0  0
    4.4110   -9.2030  -29.8470 C   0  0  0  0  0  0  0  0  0  0  0  0
    4.5230  -10.3360  -30.6690 C   0  0  0  0  0  3  0  0  0  0  0  0
    4.2490  -11.5880  -30.1450 C   0  0  0  0  0  3  0  0  0  0  0  0
    3.8710  -11.6940  -28.8100 C   0  0  0  0  0  3  0  0  0  0  0  0
    3.7670  -10.5500  -27.9730 C   0  0  0  0  0  0  0  0  0  0  0  0
    3.3760  -10.5910  -26.6190 C   0  0  0  0  0  0  0  0  0  0  0  0
    3.0240  -11.8020  -26.0300 N   0  0  0  0  0  0  0  0  0  0  0  0
    3.2490   -9.4800  -25.8780 N   0  0  0  0  0  0  0  0  0  0  0  0
    3.5260   -8.3220  -26.4770 C   0  0  0  0  0  3  0  0  0  0  0  0
    3.9010   -8.1680  -27.7480 N   0  0  0  0  0  0  0  0  0  0  0  0
    4.0360   -9.2740  -28.5000 C   0  0  0  0  0  0  0  0  0  0  0  0
    3.6300  -12.5880  -26.2240 H   0  0  0  0  0  0  0  0  0  0  0  0
    4.6430   -6.8190  -29.6130 N   0  0  0  0  0  0  0  0  0  0  0  0
    4.7190   -7.8930  -30.4580 C   0  0  0  0  0  0  0  0  0  0  0  0
    4.9700   -7.7670  -31.6460 O   0  0  0  0  0  0  0  0  0  0  0  0
    4.8520   -5.9080  -30.0010 H   0  0  0  0  0  0  0  0  0  0  0  0
    4.4650   -6.9000  -28.6230 H   0  0  0  0  0  0  0  0  0  0  0  0
  1 22  1  0  0  0  0
  1  6  1  0  0  0  0
  2  1  2  0  0  0  0
  3  2  1  0  0  0  0
  3  4  2  0  0  0  0
  4  5  1  0  0  0  0
  5  6  2  0  0  0  0
  5  7  1  0  0  0  0
  7  8  1  0  0  0  0
  7 10  1  0  0  0  0
  8  9  2  0  0  0  0
 11 12  1  0  0  0  0
 11  8  1  0  0  0  0
 13 12  2  0  0  0  0
 14 13  1  0  0  0  0
 15 14  1  0  0  0  0
 16 14  2  0  0  0  0
 16 17  1  0  0  0  0
 17 11  2  0  0  0  0
 18 16  1  0  0  0  0
 19 18  1  0  0  0  0
 20 18  1  0  0  0  0
 21 18  1  0  0  0  0
 23 33  1  0  0  0  0
 24 25  1  0  0  0  0
 24 23  2  0  0  0  0
 25 26  2  0  0  0  0
 26 27  1  0  0  0  0
 27 28  1  0  0  0  0
 28 29  1  0  0  0  0
 28 30  2  0  0  0  0
 29 22  1  0  0  0  0
 31 30  1  0  0  0  0
 32 31  2  0  0  0  0
 33 27  2  0  0  0  0
 33 32  1  0  0  0  0
 34 29  1  0  0  0  0
 35 39  1  0  0  0  0
 36 23  1  0  0  0  0
 36 35  1  0  0  0  0
 37 36  2  0  0  0  0
 38 35  1  0  0  0  0
M  END
>  <minimizedAffinity>
-9.1849556

$$$$
