
 OpenBabel10152418193D

 39 42  0  0  0  0  0  0  0  0999 V2000
    1.4220  -11.5910  -25.1060 C   0  0  0  0  0  0  0  0  0  0  0  0
    0.6290  -11.6500  -26.2560 C   0  0  0  0  0  3  0  0  0  0  0  0
   -0.7520  -11.8080  -26.1490 C   0  0  0  0  0  3  0  0  0  0  0  0
   -1.3540  -11.9280  -24.8930 C   0  0  0  0  0  3  0  0  0  0  0  0
   -0.5780  -11.9170  -23.7340 C   0  0  0  0  0  0  0  0  0  0  0  0
    0.8020  -11.7260  -23.8500 C   0  0  0  0  0  3  0  0  0  0  0  0
   -1.0940  -12.0380  -22.4310 N   0  0  0  0  0  0  0  0  0  0  0  0
   -1.2990  -11.1140  -21.4350 C   0  0  0  0  0  0  0  0  0  0  0  0
   -1.4680  -11.4820  -20.2730 O   0  0  0  0  0  0  0  0  0  0  0  0
   -1.3330  -12.9760  -22.1270 H   0  0  0  0  0  0  0  0  0  0  0  0
   -1.4260   -9.6730  -21.7390 C   0  0  0  0  0  0  0  0  0  0  0  0
   -1.4630   -8.7630  -20.6820 C   0  0  0  0  0  3  0  0  0  0  0  0
   -1.5830   -7.3990  -20.9510 C   0  0  0  0  0  3  0  0  0  0  0  0
   -1.6840   -6.9440  -22.2720 C   0  0  0  0  0  0  0  0  0  0  0  0
   -1.7960   -5.2390  -22.5150 Cl  0  0  0  0  0  0  0  0  0  0  0  0
   -1.6880   -7.8490  -23.3420 C   0  0  0  0  0  0  0  0  0  0  0  0
   -1.5710   -9.2240  -23.0580 C   0  0  0  0  0  3  0  0  0  0  0  0
   -1.7970   -7.3840  -24.7690 C   0  0  0  0  0  0  0  0  0  0  0  0
   -3.0760   -7.1390  -25.1600 F   0  0  0  0  0  0  0  0  0  0  0  0
   -1.0910   -6.2440  -25.0060 F   0  0  0  0  0  0  0  0  0  0  0  0
   -1.3150   -8.2970  -25.6630 F   0  0  0  0  0  0  0  0  0  0  0  0
    2.9300  -11.4870  -25.2080 C   0  0  0  0  0  2  0  0  0  0  0  0
    2.4660   -6.3710  -28.4760 C   0  0  0  0  0  0  0  0  0  0  0  0
    3.1240   -6.7690  -29.6520 C   0  0  0  0  0  3  0  0  0  0  0  0
    3.6890   -8.0310  -29.7220 C   0  0  0  0  0  3  0  0  0  0  0  0
    3.5950   -8.8770  -28.6210 C   0  0  0  0  0  3  0  0  0  0  0  0
    2.9390   -8.4720  -27.4260 C   0  0  0  0  0  0  0  0  0  0  0  0
    2.8000   -9.2870  -26.2840 C   0  0  0  0  0  0  0  0  0  0  0  0
    3.2860  -10.5910  -26.2930 N   0  0  0  0  0  0  0  0  0  0  0  0
    2.1340   -8.8790  -25.1930 N   0  0  0  0  0  0  0  0  0  0  0  0
    1.6180   -7.6510  -25.2270 C   0  0  0  0  0  3  0  0  0  0  0  0
    1.6880   -6.8000  -26.2520 N   0  0  0  0  0  0  0  0  0  0  0  0
    2.3560   -7.1950  -27.3490 C   0  0  0  0  0  0  0  0  0  0  0  0
    4.2090  -10.7230  -26.6830 H   0  0  0  0  0  0  0  0  0  0  0  0
    0.7460   -4.8490  -29.1950 N   0  0  0  0  0  0  0  0  0  0  0  0
    1.8860   -5.0120  -28.4550 C   0  0  0  0  0  0  0  0  0  0  0  0
    2.4140   -4.0830  -27.8650 O   0  0  0  0  0  0  0  0  0  0  0  0
    0.3220   -3.9300  -29.1990 H   0  0  0  0  0  0  0  0  0  0  0  0
    0.2760   -5.6060  -29.6690 H   0  0  0  0  0  0  0  0  0  0  0  0
  1  6  1  0  0  0  0
  2  3  1  0  0  0  0
  2  1  2  0  0  0  0
  3  4  2  0  0  0  0
  4  5  1  0  0  0  0
  5  7  1  0  0  0  0
  6  5  2  0  0  0  0
  7 10  1  0  0  0  0
  7  8  1  0  0  0  0
  8  9  2  0  0  0  0
 11  8  1  0  0  0  0
 11 12  1  0  0  0  0
 13 12  2  0  0  0  0
 14 13  1  0  0  0  0
 15 14  1  0  0  0  0
 16 17  1  0  0  0  0
 16 14  2  0  0  0  0
 17 11  2  0  0  0  0
 18 16  1  0  0  0  0
 19 18  1  0  0  0  0
 20 18  1  0  0  0  0
 21 18  1  0  0  0  0
 22  1  1  0  0  0  0
 23 36  1  0  0  0  0
 23 33  1  0  0  0  0
 24 23  2  0  0  0  0
 25 24  1  0  0  0  0
 25 26  2  0  0  0  0
 26 27  1  0  0  0  0
 27 33  2  0  0  0  0
 27 28  1  0  0  0  0
 28 30  2  0  0  0  0
 29 28  1  0  0  0  0
 29 22  1  0  0  0  0
 31 30  1  0  0  0  0
 32 31  2  0  0  0  0
 33 32  1  0  0  0  0
 34 29  1  0  0  0  0
 35 36  1  0  0  0  0
 36 37  2  0  0  0  0
 38 35  1  0  0  0  0
 39 35  1  0  0  0  0
M  END
>  <minimizedAffinity>
-7.49201107

$$$$
