
 OpenBabel11232420233D

 40 46  0  0  1  0  0  0  0  0999 V2000
  -13.2420  -15.2030    9.7870 C   0  0  0  0  0  0  0  0  0  0  0  0
  -14.3570  -16.0310    9.9560 C   0  0  0  0  0  3  0  0  0  0  0  0
  -14.3270  -17.3510    9.5070 C   0  0  0  0  0  3  0  0  0  0  0  0
  -13.1910  -17.8390    8.8630 C   0  0  0  0  0  3  0  0  0  0  0  0
  -12.0990  -16.9980    8.6520 C   0  0  0  0  0  0  0  0  0  0  0  0
  -12.1030  -15.6750    9.1250 C   0  0  0  0  0  0  0  0  0  0  0  0
  -10.8940  -14.9010    8.8980 C   0  0  0  0  0  0  0  0  0  0  0  0
  -10.4830  -13.7690    9.4260 N   0  0  0  0  0  0  0  0  0  0  0  0
   -9.2560  -13.5080    8.8510 C   0  0  0  0  0  0  0  0  0  0  0  0
   -8.8990  -14.5130    7.9620 C   0  0  0  0  0  0  0  0  0  0  0  0
   -9.9540  -15.3920    8.0330 N   0  0  0  0  0  0  0  0  0  0  0  0
  -10.1640  -16.6300    7.3090 C   0  0  0  0  0  2  0  0  0  0  0  0
  -11.0100  -17.5530    8.0220 O   0  0  0  0  0  0  0  0  0  0  0  0
   -7.7090  -14.7350    7.1490 C   0  0  0  0  0  0  0  0  0  0  0  0
   -6.9990  -13.6500    6.6210 C   0  0  0  0  0  3  0  0  0  0  0  0
   -5.8550  -13.8670    5.8520 C   0  0  0  0  0  3  0  0  0  0  0  0
   -5.4140  -15.1670    5.6060 C   0  0  0  0  0  3  0  0  0  0  0  0
   -6.1170  -16.2520    6.1290 C   0  0  0  0  0  3  0  0  0  0  0  0
   -7.2610  -16.0370    6.9010 C   0  0  0  0  0  3  0  0  0  0  0  0
   -8.4900  -12.3240    9.2090 C   0  0  0  0  0  0  0  0  0  0  0  0
   -7.3800  -12.3750   10.0480 C   0  0  0  0  0  3  0  0  0  0  0  0
   -6.6780  -11.2060   10.3830 C   0  0  0  0  0  3  0  0  0  0  0  0
   -7.0280   -9.9330    9.8760 C   0  0  0  0  0  0  0  0  0  0  0  0
   -8.1520   -9.9230    9.0200 C   0  0  0  0  0  3  0  0  0  0  0  0
   -8.8620  -11.0850    8.6890 C   0  0  0  0  0  3  0  0  0  0  0  0
   -6.2460   -8.5800   10.2670 C   0  0  1  0  0  0  0  0  0  0  0  0
   -5.4110   -7.8360    9.1910 C   0  0  0  0  0  2  0  0  0  0  0  0
   -6.1390   -6.4920    9.5280 C   0  0  1  0  0  0  0  0  0  0  0  0
   -7.1180   -7.3120   10.4330 C   0  0  0  0  0  2  0  0  0  0  0  0
   -5.4060   -8.8390   11.4660 N   0  0  0  0  0  4  0  0  0  0  0  0
   -5.9780   -8.9820   12.3080 H   0  0  0  0  0  0  0  0  0  0  0  0
   -4.8320   -9.6830   11.3340 H   0  0  0  0  0  0  0  0  0  0  0  0
   -4.7610   -8.0680   11.6740 H   0  0  0  0  0  0  0  0  0  0  0  0
   -5.3230   -5.3900   10.2180 C   0  0  0  0  0  3  0  0  0  0  0  0
   -5.6840   -3.9300   10.3200 C   0  0  0  0  0  2  0  0  0  0  0  0
   -5.5980   -4.7650   11.5620 C   0  0  0  0  0  2  0  0  0  0  0  0
   -6.8030   -5.9350    8.3640 O   0  0  0  0  0  0  0  0  0  0  0  0
   -7.3790   -6.6170    7.9790 H   0  0  0  0  0  0  0  0  0  0  0  0
  -13.5020  -13.8600   11.6270 C   0  0  0  0  0  1  0  0  0  0  0  0
  -13.3400  -13.9030   10.2090 O   0  0  0  0  0  0  0  0  0  0  0  0
  1  2  1  0  0  0  0
  1 40  1  0  0  0  0
  3  2  2  0  0  0  0
  4  3  1  0  0  0  0
  5  4  2  0  0  0  0
  5  6  1  0  0  0  0
  6  1  2  0  0  0  0
  7  6  1  0  0  0  0
  7  8  2  0  0  0  0
  9 20  1  0  0  0  0
  9  8  1  0  0  0  0
 10 11  1  0  0  0  0
 10  9  2  0  0  0  0
 11  7  1  0  0  0  0
 12 13  1  0  0  0  0
 12 11  1  0  0  0  0
 13  5  1  0  0  0  0
 14 10  1  0  0  0  0
 15 14  2  0  0  0  0
 16 15  1  0  0  0  0
 17 16  2  0  0  0  0
 17 18  1  0  0  0  0
 18 19  2  0  0  0  0
 19 14  1  0  0  0  0
 20 21  1  0  0  0  0
 21 22  2  0  0  0  0
 23 26  1  0  0  0  0
 23 22  1  0  0  0  0
 24 23  2  0  0  0  0
 25 24  1  0  0  0  0
 25 20  2  0  0  0  0
 26 29  1  0  0  0  0
 26 30  1  1  0  0  0
 27 28  1  0  0  0  0
 27 26  1  0  0  0  0
 28 37  1  6  0  0  0
 28 34  1  0  0  0  0
 28 29  1  0  0  0  0
 30 33  1  0  0  0  0
 30 31  1  0  0  0  0
 32 30  1  0  0  0  0
 34 35  1  0  0  0  0
 34 36  1  0  0  0  0
 35 36  1  0  0  0  0
 38 37  1  0  0  0  0
 40 39  1  0  0  0  0
M  END
>  <minimizedAffinity>
-4.4475913

$$$$
