
 OpenBabel11232420233D

 40 46  0  0  1  0  0  0  0  0999 V2000
   -8.0550  -12.3760    8.5100 C   0  0  0  0  0  0  0  0  0  0  0  0
   -7.6330  -13.4630    7.7360 C   0  0  0  0  0  3  0  0  0  0  0  0
   -6.2980  -13.5700    7.3460 C   0  0  0  0  0  3  0  0  0  0  0  0
   -5.3870  -12.5790    7.7050 C   0  0  0  0  0  3  0  0  0  0  0  0
   -5.8210  -11.4720    8.4360 C   0  0  0  0  0  0  0  0  0  0  0  0
   -7.1550  -11.3640    8.8620 C   0  0  0  0  0  0  0  0  0  0  0  0
   -7.4880  -10.1980    9.6610 C   0  0  0  0  0  0  0  0  0  0  0  0
   -8.5360   -9.9380   10.4140 N   0  0  0  0  0  0  0  0  0  0  0  0
   -8.3150   -8.6860   10.9490 C   0  0  0  0  0  0  0  0  0  0  0  0
   -7.0940   -8.1730   10.5290 C   0  0  0  0  0  0  0  0  0  0  0  0
   -6.5870   -9.1700    9.7290 N   0  0  0  0  0  0  0  0  0  0  0  0
   -5.3440   -9.2010    8.9840 C   0  0  0  0  0  2  0  0  0  0  0  0
   -4.8630  -10.5420    8.7650 O   0  0  0  0  0  0  0  0  0  0  0  0
   -6.3830   -6.9380   10.8370 C   0  0  0  0  0  0  0  0  0  0  0  0
   -5.5610   -6.8570   11.9680 C   0  0  0  0  0  3  0  0  0  0  0  0
   -4.8750   -5.6750   12.2540 C   0  0  0  0  0  3  0  0  0  0  0  0
   -5.0070   -4.5700   11.4140 C   0  0  0  0  0  3  0  0  0  0  0  0
   -5.8230   -4.6450   10.2860 C   0  0  0  0  0  3  0  0  0  0  0  0
   -6.5090   -5.8260    9.9970 C   0  0  0  0  0  3  0  0  0  0  0  0
   -9.2740   -8.0690   11.8520 C   0  0  0  0  0  0  0  0  0  0  0  0
   -8.9760   -6.9370   12.6050 C   0  0  0  0  0  3  0  0  0  0  0  0
   -9.9260   -6.3830   13.4780 C   0  0  0  0  0  3  0  0  0  0  0  0
  -11.2300   -6.9120   13.6230 C   0  0  0  0  0  0  0  0  0  0  0  0
  -11.4990   -8.0540   12.8360 C   0  0  0  0  0  3  0  0  0  0  0  0
  -10.5520   -8.6150   11.9680 C   0  0  0  0  0  3  0  0  0  0  0  0
  -12.3230   -6.3010   14.6360 C   0  0  1  0  0  0  0  0  0  0  0  0
  -12.3990   -4.7650   14.8490 C   0  0  0  0  0  2  0  0  0  0  0  0
  -13.9370   -4.7820   14.5620 C   0  0  1  0  0  0  0  0  0  0  0  0
  -13.7850   -6.2770   14.1280 C   0  0  0  0  0  2  0  0  0  0  0  0
  -12.2000   -6.9860   15.9490 N   0  0  0  0  0  4  0  0  0  0  0  0
  -12.5100   -7.9650   15.8980 H   0  0  0  0  0  0  0  0  0  0  0  0
  -11.2220   -6.9870   16.2700 H   0  0  0  0  0  0  0  0  0  0  0  0
  -12.7570   -6.5380   16.6860 H   0  0  0  0  0  0  0  0  0  0  0  0
  -14.8870   -4.4970   15.7340 C   0  0  0  0  0  3  0  0  0  0  0  0
  -16.1860   -3.7350   15.6780 C   0  0  0  0  0  2  0  0  0  0  0  0
  -16.1920   -5.1920   16.0330 C   0  0  0  0  0  2  0  0  0  0  0  0
  -14.2840   -3.9190   13.4480 O   0  0  0  0  0  0  0  0  0  0  0  0
  -13.7320   -4.1600   12.6850 H   0  0  0  0  0  0  0  0  0  0  0  0
   -9.8100  -13.5070    9.4570 C   0  0  0  0  0  1  0  0  0  0  0  0
   -9.3850  -12.2970    8.8310 O   0  0  0  0  0  0  0  0  0  0  0  0
  1 40  1  0  0  0  0
  1  6  1  0  0  0  0
  2  1  2  0  0  0  0
  3  4  2  0  0  0  0
  3  2  1  0  0  0  0
  4  5  1  0  0  0  0
  5 13  1  0  0  0  0
  5  6  2  0  0  0  0
  6  7  1  0  0  0  0
  7 11  1  0  0  0  0
  7  8  2  0  0  0  0
  8  9  1  0  0  0  0
  9 20  1  0  0  0  0
 10 14  1  0  0  0  0
 10  9  2  0  0  0  0
 11 10  1  0  0  0  0
 12 11  1  0  0  0  0
 13 12  1  0  0  0  0
 14 15  1  0  0  0  0
 15 16  2  0  0  0  0
 17 16  1  0  0  0  0
 18 17  2  0  0  0  0
 19 18  1  0  0  0  0
 19 14  2  0  0  0  0
 20 25  2  0  0  0  0
 20 21  1  0  0  0  0
 21 22  2  0  0  0  0
 22 23  1  0  0  0  0
 23 26  1  0  0  0  0
 24 23  2  0  0  0  0
 25 24  1  0  0  0  0
 26 27  1  0  0  0  0
 26 30  1  1  0  0  0
 28 37  1  6  0  0  0
 28 27  1  0  0  0  0
 28 34  1  0  0  0  0
 29 28  1  0  0  0  0
 29 26  1  0  0  0  0
 30 32  1  0  0  0  0
 30 33  1  0  0  0  0
 31 30  1  0  0  0  0
 34 36  1  0  0  0  0
 35 34  1  0  0  0  0
 35 36  1  0  0  0  0
 38 37  1  0  0  0  0
 40 39  1  0  0  0  0
M  END
>  <minimizedAffinity>
-5.01711273

$$$$
