
 OpenBabel11232420233D

 40 46  0  0  1  0  0  0  0  0999 V2000
  -13.7060   -9.8410    7.3200 C   0  0  0  0  0  0  0  0  0  0  0  0
  -14.9920  -10.0900    6.8270 C   0  0  0  0  0  3  0  0  0  0  0  0
  -15.5070  -11.3860    6.8310 C   0  0  0  0  0  3  0  0  0  0  0  0
  -14.7280  -12.4410    7.3020 C   0  0  0  0  0  3  0  0  0  0  0  0
  -13.4290  -12.1980    7.7490 C   0  0  0  0  0  0  0  0  0  0  0  0
  -12.9070  -10.8940    7.7790 C   0  0  0  0  0  0  0  0  0  0  0  0
  -11.5630  -10.7450    8.3100 C   0  0  0  0  0  0  0  0  0  0  0  0
  -10.9070   -9.6780    8.7130 N   0  0  0  0  0  0  0  0  0  0  0  0
   -9.6730  -10.1290    9.1330 C   0  0  0  0  0  0  0  0  0  0  0  0
   -9.5760  -11.5090    9.0020 C   0  0  0  0  0  0  0  0  0  0  0  0
  -10.8030  -11.8680    8.4960 N   0  0  0  0  0  0  0  0  0  0  0  0
  -11.2900  -13.1830    8.1270 C   0  0  0  0  0  2  0  0  0  0  0  0
  -12.7250  -13.2860    8.2110 O   0  0  0  0  0  0  0  0  0  0  0  0
   -8.5250  -12.4610    9.3400 C   0  0  0  0  0  0  0  0  0  0  0  0
   -8.6310  -13.2530   10.4900 C   0  0  0  0  0  3  0  0  0  0  0  0
   -7.6270  -14.1700   10.8060 C   0  0  0  0  0  3  0  0  0  0  0  0
   -6.5140  -14.3010    9.9750 C   0  0  0  0  0  3  0  0  0  0  0  0
   -6.4040  -13.5150    8.8280 C   0  0  0  0  0  3  0  0  0  0  0  0
   -7.4080  -12.5980    8.5100 C   0  0  0  0  0  3  0  0  0  0  0  0
   -8.6720   -9.2140    9.6590 C   0  0  0  0  0  0  0  0  0  0  0  0
   -7.7260   -8.5910    8.8500 C   0  0  0  0  0  3  0  0  0  0  0  0
   -6.7660   -7.7270    9.4010 C   0  0  0  0  0  3  0  0  0  0  0  0
   -6.7190   -7.4170   10.7800 C   0  0  0  0  0  0  0  0  0  0  0  0
   -7.7010   -8.0600   11.5670 C   0  0  0  0  0  3  0  0  0  0  0  0
   -8.6570   -8.9290   11.0240 C   0  0  0  0  0  3  0  0  0  0  0  0
   -5.6110   -6.4450   11.4300 C   0  0  1  0  0  0  0  0  0  0  0  0
   -5.9310   -4.9400   11.6290 C   0  0  0  0  0  2  0  0  0  0  0  0
   -5.4900   -5.0240   13.1280 C   0  0  1  0  0  0  0  0  0  0  0  0
   -5.4000   -6.5770   12.9570 C   0  0  0  0  0  2  0  0  0  0  0  0
   -4.3380   -6.5940   10.6770 N   0  0  0  0  0  4  0  0  0  0  0  0
   -3.9060   -7.5130   10.8370 H   0  0  0  0  0  0  0  0  0  0  0  0
   -4.5000   -6.5000    9.6650 H   0  0  0  0  0  0  0  0  0  0  0  0
   -3.6380   -5.8890   10.9360 H   0  0  0  0  0  0  0  0  0  0  0  0
   -4.2000   -4.3000   13.5370 C   0  0  0  0  0  3  0  0  0  0  0  0
   -3.9380   -3.5910   14.8410 C   0  0  0  0  0  2  0  0  0  0  0  0
   -3.1350   -4.8050   14.4770 C   0  0  0  0  0  2  0  0  0  0  0  0
   -6.5620   -4.6310   14.0250 O   0  0  0  0  0  0  0  0  0  0  0  0
   -7.3540   -5.1530   13.8110 H   0  0  0  0  0  0  0  0  0  0  0  0
  -12.9420   -8.2100    5.9010 C   0  0  0  0  0  1  0  0  0  0  0  0
  -13.2330   -8.5560    7.2550 O   0  0  0  0  0  0  0  0  0  0  0  0
  1  6  1  0  0  0  0
  2  3  1  0  0  0  0
  2  1  2  0  0  0  0
  3  4  2  0  0  0  0
  4  5  1  0  0  0  0
  5  6  2  0  0  0  0
  5 13  1  0  0  0  0
  6  7  1  0  0  0  0
  7 11  1  0  0  0  0
  7  8  2  0  0  0  0
  8  9  1  0  0  0  0
  9 20  1  0  0  0  0
 10  9  2  0  0  0  0
 10 14  1  0  0  0  0
 11 10  1  0  0  0  0
 12 13  1  0  0  0  0
 12 11  1  0  0  0  0
 14 15  1  0  0  0  0
 15 16  2  0  0  0  0
 17 16  1  0  0  0  0
 18 17  2  0  0  0  0
 19 18  1  0  0  0  0
 19 14  2  0  0  0  0
 20 25  1  0  0  0  0
 21 22  1  0  0  0  0
 21 20  2  0  0  0  0
 22 23  2  0  0  0  0
 23 26  1  0  0  0  0
 23 24  1  0  0  0  0
 25 24  2  0  0  0  0
 26 30  1  6  0  0  0
 26 27  1  0  0  0  0
 26 29  1  0  0  0  0
 27 28  1  0  0  0  0
 28 34  1  0  0  0  0
 28 37  1  1  0  0  0
 29 28  1  0  0  0  0
 30 31  1  0  0  0  0
 30 33  1  0  0  0  0
 32 30  1  0  0  0  0
 34 36  1  0  0  0  0
 34 35  1  0  0  0  0
 36 35  1  0  0  0  0
 38 37  1  0  0  0  0
 39 40  1  0  0  0  0
 40  1  1  0  0  0  0
M  END
>  <minimizedAffinity>
-4.6439147

$$$$
