
 OpenBabel11232420233D

 40 46  0  0  1  0  0  0  0  0999 V2000
   -6.9660  -11.1710   14.7240 C   0  0  0  0  0  0  0  0  0  0  0  0
   -6.3060  -11.2220   15.9560 C   0  0  0  0  0  3  0  0  0  0  0  0
   -5.0990  -11.9120   16.0780 C   0  0  0  0  0  3  0  0  0  0  0  0
   -4.5630  -12.5750   14.9750 C   0  0  0  0  0  3  0  0  0  0  0  0
   -5.2480  -12.5630   13.7600 C   0  0  0  0  0  0  0  0  0  0  0  0
   -6.4490  -11.8490   13.6140 C   0  0  0  0  0  0  0  0  0  0  0  0
   -7.0530  -11.8600   12.2930 C   0  0  0  0  0  0  0  0  0  0  0  0
   -7.9940  -11.1050   11.7670 N   0  0  0  0  0  0  0  0  0  0  0  0
   -8.1600  -11.5540   10.4740 C   0  0  0  0  0  0  0  0  0  0  0  0
   -7.2870  -12.5970   10.1920 C   0  0  0  0  0  0  0  0  0  0  0  0
   -6.5850  -12.7500   11.3650 N   0  0  0  0  0  0  0  0  0  0  0  0
   -5.5450  -13.7070   11.6890 C   0  0  0  0  0  2  0  0  0  0  0  0
   -4.6520  -13.2280   12.7140 O   0  0  0  0  0  0  0  0  0  0  0  0
   -7.0320  -13.3720    8.9850 C   0  0  0  0  0  0  0  0  0  0  0  0
   -6.3540  -12.7960    7.9030 C   0  0  0  0  0  3  0  0  0  0  0  0
   -6.1030  -13.5440    6.7520 C   0  0  0  0  0  3  0  0  0  0  0  0
   -6.5280  -14.8710    6.6750 C   0  0  0  0  0  3  0  0  0  0  0  0
   -7.2030  -15.4500    7.7490 C   0  0  0  0  0  3  0  0  0  0  0  0
   -7.4530  -14.7030    8.9020 C   0  0  0  0  0  3  0  0  0  0  0  0
   -9.1260  -10.9370    9.5780 C   0  0  0  0  0  0  0  0  0  0  0  0
  -10.3930  -11.4720    9.3570 C   0  0  0  0  0  3  0  0  0  0  0  0
  -11.2890  -10.8550    8.4700 C   0  0  0  0  0  3  0  0  0  0  0  0
  -10.9810   -9.6580    7.7820 C   0  0  0  0  0  0  0  0  0  0  0  0
   -9.6920   -9.1400    8.0390 C   0  0  0  0  0  3  0  0  0  0  0  0
   -8.7900   -9.7560    8.9170 C   0  0  0  0  0  3  0  0  0  0  0  0
  -11.9900   -8.9500    6.7460 C   0  0  1  0  0  0  0  0  0  0  0  0
  -12.8340   -7.7310    7.2060 C   0  0  0  0  0  2  0  0  0  0  0  0
  -12.3500   -6.9040    5.9680 C   0  0  1  0  0  0  0  0  0  0  0  0
  -11.3390   -8.0580    5.6610 C   0  0  0  0  0  2  0  0  0  0  0  0
  -12.8800   -9.9840    6.1560 N   0  0  0  0  0  4  0  0  0  0  0  0
  -12.3670  -10.6130    5.5260 H   0  0  0  0  0  0  0  0  0  0  0  0
  -13.3050  -10.5630    6.8930 H   0  0  0  0  0  0  0  0  0  0  0  0
  -13.6500   -9.5820    5.6090 H   0  0  0  0  0  0  0  0  0  0  0  0
  -13.3810   -6.5820    4.8760 C   0  0  0  0  0  3  0  0  0  0  0  0
  -14.8700   -6.8000    4.9490 C   0  0  0  0  0  2  0  0  0  0  0  0
  -14.3240   -5.4070    4.8380 C   0  0  0  0  0  2  0  0  0  0  0  0
  -11.6820   -5.6800    6.3690 O   0  0  0  0  0  0  0  0  0  0  0  0
  -10.9780   -5.9020    7.0010 H   0  0  0  0  0  0  0  0  0  0  0  0
   -7.9710   -9.1150   14.8560 C   0  0  0  0  0  1  0  0  0  0  0  0
   -8.1690  -10.5160   14.6690 O   0  0  0  0  0  0  0  0  0  0  0  0
  1  2  1  0  0  0  0
  2  3  2  0  0  0  0
  4  3  1  0  0  0  0
  5  4  2  0  0  0  0
  6  5  1  0  0  0  0
  6  1  2  0  0  0  0
  7  6  1  0  0  0  0
  8  7  2  0  0  0  0
  9  8  1  0  0  0  0
 10  9  2  0  0  0  0
 10 11  1  0  0  0  0
 11 12  1  0  0  0  0
 11  7  1  0  0  0  0
 12 13  1  0  0  0  0
 13  5  1  0  0  0  0
 14 10  1  0  0  0  0
 15 14  2  0  0  0  0
 16 15  1  0  0  0  0
 17 16  2  0  0  0  0
 17 18  1  0  0  0  0
 18 19  2  0  0  0  0
 19 14  1  0  0  0  0
 20  9  1  0  0  0  0
 21 20  1  0  0  0  0
 22 21  2  0  0  0  0
 23 24  2  0  0  0  0
 23 22  1  0  0  0  0
 24 25  1  0  0  0  0
 25 20  2  0  0  0  0
 26 30  1  6  0  0  0
 26 27  1  0  0  0  0
 26 23  1  0  0  0  0
 28 37  1  1  0  0  0
 28 27  1  0  0  0  0
 29 28  1  0  0  0  0
 29 26  1  0  0  0  0
 30 32  1  0  0  0  0
 31 30  1  0  0  0  0
 33 30  1  0  0  0  0
 34 35  1  0  0  0  0
 34 28  1  0  0  0  0
 36 34  1  0  0  0  0
 36 35  1  0  0  0  0
 37 38  1  0  0  0  0
 40  1  1  0  0  0  0
 40 39  1  0  0  0  0
M  END
>  <minimizedAffinity>
-4.6781702

$$$$
