
 OpenBabel11232420233D

 40 46  0  0  1  0  0  0  0  0999 V2000
  -11.3260  -14.8520    8.8570 C   0  0  0  0  0  0  0  0  0  0  0  0
  -11.8280  -16.1310    8.5910 C   0  0  0  0  0  3  0  0  0  0  0  0
  -12.8200  -16.3090    7.6270 C   0  0  0  0  0  3  0  0  0  0  0  0
  -13.3320  -15.2070    6.9440 C   0  0  0  0  0  3  0  0  0  0  0  0
  -12.8640  -13.9270    7.2450 C   0  0  0  0  0  0  0  0  0  0  0  0
  -11.8450  -13.7340    8.1930 C   0  0  0  0  0  0  0  0  0  0  0  0
  -11.3950  -12.3670    8.3920 C   0  0  0  0  0  0  0  0  0  0  0  0
  -10.3200  -11.8900    8.9810 N   0  0  0  0  0  0  0  0  0  0  0  0
  -10.4020  -10.5180    8.8620 C   0  0  0  0  0  0  0  0  0  0  0  0
  -11.5460  -10.1460    8.1670 C   0  0  0  0  0  0  0  0  0  0  0  0
  -12.1420  -11.3480    7.8660 N   0  0  0  0  0  0  0  0  0  0  0  0
  -13.3860  -11.6020    7.1680 C   0  0  0  0  0  2  0  0  0  0  0  0
  -13.4060  -12.8910    6.5220 O   0  0  0  0  0  0  0  0  0  0  0  0
  -12.0650   -8.8520    7.7410 C   0  0  0  0  0  0  0  0  0  0  0  0
  -11.5510   -8.2250    6.5980 C   0  0  0  0  0  3  0  0  0  0  0  0
  -12.0570   -6.9900    6.1880 C   0  0  0  0  0  3  0  0  0  0  0  0
  -13.0770   -6.3770    6.9150 C   0  0  0  0  0  3  0  0  0  0  0  0
  -13.5930   -6.9970    8.0530 C   0  0  0  0  0  3  0  0  0  0  0  0
  -13.0890   -8.2330    8.4640 C   0  0  0  0  0  3  0  0  0  0  0  0
   -9.3650   -9.6490    9.3970 C   0  0  0  0  0  0  0  0  0  0  0  0
   -9.2650   -9.3480   10.7530 C   0  0  0  0  0  3  0  0  0  0  0  0
   -8.2590   -8.4900   11.2270 C   0  0  0  0  0  3  0  0  0  0  0  0
   -7.2850   -7.9140   10.3780 C   0  0  0  0  0  0  0  0  0  0  0  0
   -7.4130   -8.2510    9.0120 C   0  0  0  0  0  3  0  0  0  0  0  0
   -8.4190   -9.1000    8.5330 C   0  0  0  0  0  3  0  0  0  0  0  0
   -6.1390   -6.9120   10.9040 C   0  0  1  0  0  0  0  0  0  0  0  0
   -6.4700   -5.4110   11.1200 C   0  0  0  0  0  2  0  0  0  0  0  0
   -5.8790   -5.4690   12.5680 C   0  0  1  0  0  0  0  0  0  0  0  0
   -5.7720   -7.0220   12.4040 C   0  0  0  0  0  2  0  0  0  0  0  0
   -4.9450   -7.0430   10.0280 N   0  0  0  0  0  4  0  0  0  0  0  0
   -4.4790   -7.9510   10.1520 H   0  0  0  0  0  0  0  0  0  0  0  0
   -5.2100   -6.9630    9.0360 H   0  0  0  0  0  0  0  0  0  0  0  0
   -4.2380   -6.3210   10.2080 H   0  0  0  0  0  0  0  0  0  0  0  0
   -4.5700   -4.7140   12.8380 C   0  0  0  0  0  3  0  0  0  0  0  0
   -4.2360   -3.8930   14.0580 C   0  0  0  0  0  2  0  0  0  0  0  0
   -3.4520   -5.1360   13.7560 C   0  0  0  0  0  2  0  0  0  0  0  0
   -6.8630   -5.0890   13.5650 O   0  0  0  0  0  0  0  0  0  0  0  0
   -7.6610   -5.6290   13.4360 H   0  0  0  0  0  0  0  0  0  0  0  0
   -9.1720  -15.3720    9.4460 C   0  0  0  0  0  1  0  0  0  0  0  0
  -10.3820  -14.7270    9.8430 O   0  0  0  0  0  0  0  0  0  0  0  0
  1 40  1  0  0  0  0
  2  1  1  0  0  0  0
  3  2  2  0  0  0  0
  4  5  2  0  0  0  0
  4  3  1  0  0  0  0
  5  6  1  0  0  0  0
  6  7  1  0  0  0  0
  6  1  2  0  0  0  0
  7  8  2  0  0  0  0
  9  8  1  0  0  0  0
  9 20  1  0  0  0  0
 10  9  2  0  0  0  0
 11 10  1  0  0  0  0
 11  7  1  0  0  0  0
 12 11  1  0  0  0  0
 13 12  1  0  0  0  0
 13  5  1  0  0  0  0
 14 10  1  0  0  0  0
 14 19  1  0  0  0  0
 15 14  2  0  0  0  0
 16 15  1  0  0  0  0
 16 17  2  0  0  0  0
 17 18  1  0  0  0  0
 18 19  2  0  0  0  0
 20 21  1  0  0  0  0
 21 22  2  0  0  0  0
 23 26  1  0  0  0  0
 23 22  1  0  0  0  0
 24 23  2  0  0  0  0
 25 24  1  0  0  0  0
 25 20  2  0  0  0  0
 26 30  1  6  0  0  0
 26 27  1  0  0  0  0
 26 29  1  0  0  0  0
 27 28  1  0  0  0  0
 28 34  1  0  0  0  0
 28 37  1  1  0  0  0
 29 28  1  0  0  0  0
 30 31  1  0  0  0  0
 30 33  1  0  0  0  0
 32 30  1  0  0  0  0
 34 36  1  0  0  0  0
 34 35  1  0  0  0  0
 36 35  1  0  0  0  0
 38 37  1  0  0  0  0
 39 40  1  0  0  0  0
M  END
>  <minimizedAffinity>
-5.0377059

$$$$
