
 OpenBabel11232420233D

 40 46  0  0  1  0  0  0  0  0999 V2000
   -1.7840   -9.8200   15.3730 C   0  0  0  0  0  0  0  0  0  0  0  0
   -0.6880   -9.7700   16.2420 C   0  0  0  0  0  3  0  0  0  0  0  0
    0.0150   -8.5780   16.4180 C   0  0  0  0  0  3  0  0  0  0  0  0
   -0.3590   -7.4400   15.7060 C   0  0  0  0  0  3  0  0  0  0  0  0
   -1.4210   -7.5050   14.8040 C   0  0  0  0  0  0  0  0  0  0  0  0
   -2.1570   -8.6890   14.6370 C   0  0  0  0  0  0  0  0  0  0  0  0
   -3.2750   -8.6330   13.7120 C   0  0  0  0  0  0  0  0  0  0  0  0
   -4.2900   -9.4520   13.5340 N   0  0  0  0  0  0  0  0  0  0  0  0
   -5.0530   -8.8940   12.5290 C   0  0  0  0  0  0  0  0  0  0  0  0
   -4.5020   -7.6960   12.0920 C   0  0  0  0  0  0  0  0  0  0  0  0
   -3.3850   -7.5520   12.8800 N   0  0  0  0  0  0  0  0  0  0  0  0
   -2.3890   -6.4990   12.8710 C   0  0  0  0  0  2  0  0  0  0  0  0
   -1.7390   -6.3390   14.1470 O   0  0  0  0  0  0  0  0  0  0  0  0
   -4.9340   -6.7130   11.1060 C   0  0  0  0  0  0  0  0  0  0  0  0
   -4.8710   -7.0060    9.7380 C   0  0  0  0  0  3  0  0  0  0  0  0
   -5.2940   -6.0650    8.7980 C   0  0  0  0  0  3  0  0  0  0  0  0
   -5.7830   -4.8280    9.2190 C   0  0  0  0  0  3  0  0  0  0  0  0
   -5.8500   -4.5310   10.5800 C   0  0  0  0  0  3  0  0  0  0  0  0
   -5.4280   -5.4710   11.5220 C   0  0  0  0  0  3  0  0  0  0  0  0
   -6.2780   -9.5300   12.0680 C   0  0  0  0  0  0  0  0  0  0  0  0
   -7.4410   -9.5610   12.8320 C   0  0  0  0  0  3  0  0  0  0  0  0
   -8.5970  -10.2010   12.3570 C   0  0  0  0  0  3  0  0  0  0  0  0
   -8.6610  -10.8160   11.0850 C   0  0  0  0  0  0  0  0  0  0  0  0
   -7.4660  -10.7550   10.3350 C   0  0  0  0  0  3  0  0  0  0  0  0
   -6.3060  -10.1250   10.8070 C   0  0  0  0  0  3  0  0  0  0  0  0
   -9.9720  -11.5720   10.5350 C   0  0  1  0  0  0  0  0  0  0  0  0
  -10.3010  -11.5360    9.0180 C   0  0  0  0  0  2  0  0  0  0  0  0
  -10.4440  -13.0950    8.9930 C   0  0  1  0  0  0  0  0  0  0  0  0
   -9.8860  -13.1150   10.4550 C   0  0  0  0  0  2  0  0  0  0  0  0
  -11.1530  -11.1200   11.3170 N   0  0  0  0  0  4  0  0  0  0  0  0
  -11.1230  -11.4650   12.2850 H   0  0  0  0  0  0  0  0  0  0  0  0
  -11.1940  -10.0920   11.3550 H   0  0  0  0  0  0  0  0  0  0  0  0
  -12.0420  -11.4410   10.9160 H   0  0  0  0  0  0  0  0  0  0  0  0
  -11.8480  -13.6810    8.7830 C   0  0  0  0  0  3  0  0  0  0  0  0
  -12.2620  -14.6730    7.7260 C   0  0  0  0  0  2  0  0  0  0  0  0
  -12.3230  -15.0570    9.1750 C   0  0  0  0  0  2  0  0  0  0  0  0
   -9.5270  -13.7020    8.0460 O   0  0  0  0  0  0  0  0  0  0  0  0
   -8.6280  -13.3850    8.2370 H   0  0  0  0  0  0  0  0  0  0  0  0
   -1.4710  -12.0150   14.7910 C   0  0  0  0  0  1  0  0  0  0  0  0
   -2.4130  -11.0260   15.2050 O   0  0  0  0  0  0  0  0  0  0  0  0
  1  2  1  0  0  0  0
  2  3  2  0  0  0  0
  4  3  1  0  0  0  0
  5  4  2  0  0  0  0
  6  5  1  0  0  0  0
  6  1  2  0  0  0  0
  7  6  1  0  0  0  0
  8  7  2  0  0  0  0
  9  8  1  0  0  0  0
 10  9  2  0  0  0  0
 10 11  1  0  0  0  0
 11  7  1  0  0  0  0
 12 11  1  0  0  0  0
 12 13  1  0  0  0  0
 13  5  1  0  0  0  0
 14 19  1  0  0  0  0
 14 10  1  0  0  0  0
 15 14  2  0  0  0  0
 16 17  2  0  0  0  0
 16 15  1  0  0  0  0
 17 18  1  0  0  0  0
 18 19  2  0  0  0  0
 20  9  1  0  0  0  0
 20 21  1  0  0  0  0
 22 21  2  0  0  0  0
 23 22  1  0  0  0  0
 24 25  1  0  0  0  0
 24 23  2  0  0  0  0
 25 20  2  0  0  0  0
 26 23  1  0  0  0  0
 26 30  1  1  0  0  0
 27 26  1  0  0  0  0
 28 37  1  6  0  0  0
 28 27  1  0  0  0  0
 28 29  1  0  0  0  0
 29 26  1  0  0  0  0
 30 32  1  0  0  0  0
 30 31  1  0  0  0  0
 33 30  1  0  0  0  0
 34 28  1  0  0  0  0
 34 36  1  0  0  0  0
 35 34  1  0  0  0  0
 35 36  1  0  0  0  0
 37 38  1  0  0  0  0
 39 40  1  0  0  0  0
 40  1  1  0  0  0  0
M  END
>  <minimizedAffinity>
-5.47953844

$$$$
