
 OpenBabel11232420233D

 40 46  0  0  1  0  0  0  0  0999 V2000
   -1.8110  -10.0420   15.2210 C   0  0  0  0  0  0  0  0  0  0  0  0
   -0.6960  -10.0750   16.0660 C   0  0  0  0  0  3  0  0  0  0  0  0
    0.0530   -8.9180   16.2850 C   0  0  0  0  0  3  0  0  0  0  0  0
   -0.2940   -7.7330   15.6390 C   0  0  0  0  0  3  0  0  0  0  0  0
   -1.3760   -7.7150   14.7590 C   0  0  0  0  0  0  0  0  0  0  0  0
   -2.1580   -8.8630   14.5510 C   0  0  0  0  0  0  0  0  0  0  0  0
   -3.2930   -8.7210   13.6550 C   0  0  0  0  0  0  0  0  0  0  0  0
   -4.3410   -9.4940   13.4600 N   0  0  0  0  0  0  0  0  0  0  0  0
   -5.1040   -8.8600   12.5020 C   0  0  0  0  0  0  0  0  0  0  0  0
   -4.5190   -7.6610   12.1130 C   0  0  0  0  0  0  0  0  0  0  0  0
   -3.3810   -7.5960   12.8820 N   0  0  0  0  0  0  0  0  0  0  0  0
   -2.3480   -6.5800   12.9010 C   0  0  0  0  0  2  0  0  0  0  0  0
   -1.6660   -6.5070   14.1690 O   0  0  0  0  0  0  0  0  0  0  0  0
   -4.9360   -6.6150   11.1870 C   0  0  0  0  0  0  0  0  0  0  0  0
   -5.3200   -5.3560   11.6670 C   0  0  0  0  0  3  0  0  0  0  0  0
   -5.7100   -4.3540   10.7760 C   0  0  0  0  0  3  0  0  0  0  0  0
   -5.7170   -4.6030    9.4040 C   0  0  0  0  0  3  0  0  0  0  0  0
   -5.3340   -5.8540    8.9200 C   0  0  0  0  0  3  0  0  0  0  0  0
   -4.9430   -6.8570    9.8100 C   0  0  0  0  0  3  0  0  0  0  0  0
   -6.3600   -9.4280   12.0380 C   0  0  0  0  0  0  0  0  0  0  0  0
   -6.4390  -10.2710   10.9330 C   0  0  0  0  0  3  0  0  0  0  0  0
   -7.6740  -10.7850   10.5070 C   0  0  0  0  0  3  0  0  0  0  0  0
   -8.8880  -10.5090   11.1790 C   0  0  0  0  0  0  0  0  0  0  0  0
   -8.7670   -9.6590   12.3010 C   0  0  0  0  0  3  0  0  0  0  0  0
   -7.5370   -9.1370   12.7260 C   0  0  0  0  0  3  0  0  0  0  0  0
  -10.3160  -11.0730   10.6910 C   0  0  1  0  0  0  0  0  0  0  0  0
  -11.2490  -11.7840   11.7060 C   0  0  0  0  0  2  0  0  0  0  0  0
  -12.4400  -10.8570   11.2890 C   0  0  1  0  0  0  0  0  0  0  0  0
  -11.4210  -10.0170   10.4510 C   0  0  0  0  0  2  0  0  0  0  0  0
  -10.1100  -11.9420    9.5020 N   0  0  0  0  0  4  0  0  0  0  0  0
   -9.8250  -11.3990    8.6780 H   0  0  0  0  0  0  0  0  0  0  0  0
   -9.3740  -12.6390    9.6830 H   0  0  0  0  0  0  0  0  0  0  0  0
  -10.9550  -12.4610    9.2370 H   0  0  0  0  0  0  0  0  0  0  0  0
  -13.6060  -11.4940   10.5190 C   0  0  0  0  0  3  0  0  0  0  0  0
  -15.0460  -11.0490   10.5340 C   0  0  0  0  0  2  0  0  0  0  0  0
  -14.2550  -10.9720    9.2620 C   0  0  0  0  0  2  0  0  0  0  0  0
  -12.9650  -10.1160   12.4210 O   0  0  0  0  0  0  0  0  0  0  0  0
  -12.2300   -9.6520   12.8570 H   0  0  0  0  0  0  0  0  0  0  0  0
   -1.5800  -12.3170   15.0500 C   0  0  0  0  0  1  0  0  0  0  0  0
   -2.4860  -11.2150   15.0080 O   0  0  0  0  0  0  0  0  0  0  0  0
  1  2  1  0  0  0  0
  2  3  2  0  0  0  0
  4  3  1  0  0  0  0
  5  4  2  0  0  0  0
  6  5  1  0  0  0  0
  6  1  2  0  0  0  0
  7  6  1  0  0  0  0
  8  7  2  0  0  0  0
  9  8  1  0  0  0  0
 10  9  2  0  0  0  0
 10 11  1  0  0  0  0
 11 12  1  0  0  0  0
 11  7  1  0  0  0  0
 12 13  1  0  0  0  0
 13  5  1  0  0  0  0
 14 15  1  0  0  0  0
 14 10  1  0  0  0  0
 16 15  2  0  0  0  0
 17 16  1  0  0  0  0
 18 17  2  0  0  0  0
 18 19  1  0  0  0  0
 19 14  2  0  0  0  0
 20  9  1  0  0  0  0
 20 25  1  0  0  0  0
 21 20  2  0  0  0  0
 22 21  1  0  0  0  0
 22 23  2  0  0  0  0
 23 24  1  0  0  0  0
 24 25  2  0  0  0  0
 26 30  1  6  0  0  0
 26 23  1  0  0  0  0
 26 27  1  0  0  0  0
 28 27  1  0  0  0  0
 28 37  1  1  0  0  0
 29 26  1  0  0  0  0
 29 28  1  0  0  0  0
 30 32  1  0  0  0  0
 31 30  1  0  0  0  0
 33 30  1  0  0  0  0
 34 35  1  0  0  0  0
 34 28  1  0  0  0  0
 36 34  1  0  0  0  0
 36 35  1  0  0  0  0
 37 38  1  0  0  0  0
 40 39  1  0  0  0  0
 40  1  1  0  0  0  0
M  END
>  <minimizedAffinity>
-5.18863916

$$$$
