
 OpenBabel11232420233D

 40 46  0  0  1  0  0  0  0  0999 V2000
   -2.3990  -10.4660   14.8430 C   0  0  0  0  0  0  0  0  0  0  0  0
   -1.3890  -10.6780   15.7880 C   0  0  0  0  0  3  0  0  0  0  0  0
   -0.6940   -9.5960   16.3290 C   0  0  0  0  0  3  0  0  0  0  0  0
   -0.9890   -8.3010   15.9060 C   0  0  0  0  0  3  0  0  0  0  0  0
   -1.9620   -8.0960   14.9280 C   0  0  0  0  0  0  0  0  0  0  0  0
   -2.6910   -9.1720   14.3960 C   0  0  0  0  0  0  0  0  0  0  0  0
   -3.7170   -8.8420   13.4220 C   0  0  0  0  0  0  0  0  0  0  0  0
   -4.7190   -9.5530   12.9490 N   0  0  0  0  0  0  0  0  0  0  0  0
   -5.3780   -8.7300   12.0600 C   0  0  0  0  0  0  0  0  0  0  0  0
   -4.7780   -7.4790   11.9990 C   0  0  0  0  0  0  0  0  0  0  0  0
   -3.7380   -7.5800   12.8930 N   0  0  0  0  0  0  0  0  0  0  0  0
   -2.7350   -6.5950   13.2450 C   0  0  0  0  0  2  0  0  0  0  0  0
   -2.2070   -6.7900   14.5710 O   0  0  0  0  0  0  0  0  0  0  0  0
   -5.1060   -6.2610   11.2680 C   0  0  0  0  0  0  0  0  0  0  0  0
   -5.1220   -6.2580    9.8680 C   0  0  0  0  0  3  0  0  0  0  0  0
   -5.4460   -5.0920    9.1720 C   0  0  0  0  0  3  0  0  0  0  0  0
   -5.7560   -3.9250    9.8700 C   0  0  0  0  0  3  0  0  0  0  0  0
   -5.7440   -3.9230   11.2650 C   0  0  0  0  0  3  0  0  0  0  0  0
   -5.4210   -5.0890   11.9620 C   0  0  0  0  0  3  0  0  0  0  0  0
   -6.5600   -9.1850   11.3440 C   0  0  0  0  0  0  0  0  0  0  0  0
   -6.4870   -9.9770   10.2010 C   0  0  0  0  0  3  0  0  0  0  0  0
   -7.6520  -10.3800    9.5290 C   0  0  0  0  0  3  0  0  0  0  0  0
   -8.9490  -10.0390    9.9790 C   0  0  0  0  0  0  0  0  0  0  0  0
   -8.9840   -9.2450   11.1460 C   0  0  0  0  0  3  0  0  0  0  0  0
   -7.8240   -8.8330   11.8160 C   0  0  0  0  0  3  0  0  0  0  0  0
  -10.2940  -10.4760    9.2070 C   0  0  1  0  0  0  0  0  0  0  0  0
  -11.6780  -10.1180    9.8120 C   0  0  0  0  0  2  0  0  0  0  0  0
  -12.1290   -9.4860    8.4530 C   0  0  1  0  0  0  0  0  0  0  0  0
  -10.6570   -9.6500    7.9500 C   0  0  0  0  0  2  0  0  0  0  0  0
  -10.2320  -11.9330    8.9170 N   0  0  0  0  0  4  0  0  0  0  0  0
   -9.5230  -12.1500    8.2060 H   0  0  0  0  0  0  0  0  0  0  0  0
   -9.9930  -12.4640    9.7660 H   0  0  0  0  0  0  0  0  0  0  0  0
  -11.1230  -12.3080    8.5700 H   0  0  0  0  0  0  0  0  0  0  0  0
  -13.2170  -10.2150    7.6510 C   0  0  0  0  0  3  0  0  0  0  0  0
  -14.3120   -9.5810    6.8330 C   0  0  0  0  0  2  0  0  0  0  0  0
  -13.2630  -10.4130    6.1570 C   0  0  0  0  0  2  0  0  0  0  0  0
  -12.5050   -8.0930    8.6080 O   0  0  0  0  0  0  0  0  0  0  0  0
  -11.7770   -7.6210    9.0460 H   0  0  0  0  0  0  0  0  0  0  0  0
   -2.1690  -12.7070   14.4160 C   0  0  0  0  0  1  0  0  0  0  0  0
   -3.0210  -11.5660   14.3130 O   0  0  0  0  0  0  0  0  0  0  0  0
  1  2  1  0  0  0  0
  2  3  2  0  0  0  0
  4  3  1  0  0  0  0
  5  4  2  0  0  0  0
  6  1  2  0  0  0  0
  6  5  1  0  0  0  0
  7  6  1  0  0  0  0
  8  7  2  0  0  0  0
  9  8  1  0  0  0  0
 10  9  2  0  0  0  0
 10 11  1  0  0  0  0
 11 12  1  0  0  0  0
 11  7  1  0  0  0  0
 12 13  1  0  0  0  0
 13  5  1  0  0  0  0
 14 19  1  0  0  0  0
 14 10  1  0  0  0  0
 15 14  2  0  0  0  0
 16 15  1  0  0  0  0
 16 17  2  0  0  0  0
 17 18  1  0  0  0  0
 18 19  2  0  0  0  0
 20 25  1  0  0  0  0
 20  9  1  0  0  0  0
 21 20  2  0  0  0  0
 22 23  2  0  0  0  0
 22 21  1  0  0  0  0
 23 24  1  0  0  0  0
 24 25  2  0  0  0  0
 26 30  1  6  0  0  0
 26 27  1  0  0  0  0
 26 23  1  0  0  0  0
 28 37  1  1  0  0  0
 28 27  1  0  0  0  0
 29 28  1  0  0  0  0
 29 26  1  0  0  0  0
 30 32  1  0  0  0  0
 31 30  1  0  0  0  0
 33 30  1  0  0  0  0
 34 28  1  0  0  0  0
 35 34  1  0  0  0  0
 36 35  1  0  0  0  0
 36 34  1  0  0  0  0
 37 38  1  0  0  0  0
 40 39  1  0  0  0  0
 40  1  1  0  0  0  0
M  END
>  <minimizedAffinity>
-5.70324039

$$$$

 OpenBabel11232420233D

 40 46  0  0  1  0  0  0  0  0999 V2000
   -1.7840   -9.8200   15.3730 C   0  0  0  0  0  0  0  0  0  0  0  0
   -0.6880   -9.7700   16.2420 C   0  0  0  0  0  3  0  0  0  0  0  0
    0.0150   -8.5780   16.4180 C   0  0  0  0  0  3  0  0  0  0  0  0
   -0.3590   -7.4400   15.7060 C   0  0  0  0  0  3  0  0  0  0  0  0
   -1.4210   -7.5050   14.8040 C   0  0  0  0  0  0  0  0  0  0  0  0
   -2.1570   -8.6890   14.6370 C   0  0  0  0  0  0  0  0  0  0  0  0
   -3.2750   -8.6330   13.7120 C   0  0  0  0  0  0  0  0  0  0  0  0
   -4.2900   -9.4520   13.5340 N   0  0  0  0  0  0  0  0  0  0  0  0
   -5.0530   -8.8940   12.5290 C   0  0  0  0  0  0  0  0  0  0  0  0
   -4.5020   -7.6960   12.0920 C   0  0  0  0  0  0  0  0  0  0  0  0
   -3.3850   -7.5520   12.8800 N   0  0  0  0  0  0  0  0  0  0  0  0
   -2.3890   -6.4990   12.8710 C   0  0  0  0  0  2  0  0  0  0  0  0
   -1.7390   -6.3390   14.1470 O   0  0  0  0  0  0  0  0  0  0  0  0
   -4.9340   -6.7130   11.1060 C   0  0  0  0  0  0  0  0  0  0  0  0
   -4.8710   -7.0060    9.7380 C   0  0  0  0  0  3  0  0  0  0  0  0
   -5.2940   -6.0650    8.7980 C   0  0  0  0  0  3  0  0  0  0  0  0
   -5.7830   -4.8280    9.2190 C   0  0  0  0  0  3  0  0  0  0  0  0
   -5.8500   -4.5310   10.5800 C   0  0  0  0  0  3  0  0  0  0  0  0
   -5.4280   -5.4710   11.5220 C   0  0  0  0  0  3  0  0  0  0  0  0
   -6.2780   -9.5300   12.0680 C   0  0  0  0  0  0  0  0  0  0  0  0
   -7.4410   -9.5610   12.8320 C   0  0  0  0  0  3  0  0  0  0  0  0
   -8.5970  -10.2010   12.3570 C   0  0  0  0  0  3  0  0  0  0  0  0
   -8.6610  -10.8160   11.0850 C   0  0  0  0  0  0  0  0  0  0  0  0
   -7.4660  -10.7550   10.3350 C   0  0  0  0  0  3  0  0  0  0  0  0
   -6.3060  -10.1250   10.8070 C   0  0  0  0  0  3  0  0  0  0  0  0
   -9.9720  -11.5720   10.5350 C   0  0  1  0  0  0  0  0  0  0  0  0
  -10.3010  -11.5360    9.0180 C   0  0  0  0  0  2  0  0  0  0  0  0
  -10.4440  -13.0950    8.9930 C   0  0  1  0  0  0  0  0  0  0  0  0
   -9.8860  -13.1150   10.4550 C   0  0  0  0  0  2  0  0  0  0  0  0
  -11.1530  -11.1200   11.3170 N   0  0  0  0  0  4  0  0  0  0  0  0
  -11.1230  -11.4650   12.2850 H   0  0  0  0  0  0  0  0  0  0  0  0
  -11.1940  -10.0920   11.3550 H   0  0  0  0  0  0  0  0  0  0  0  0
  -12.0420  -11.4410   10.9160 H   0  0  0  0  0  0  0  0  0  0  0  0
  -11.8480  -13.6810    8.7830 C   0  0  0  0  0  3  0  0  0  0  0  0
  -12.2620  -14.6730    7.7260 C   0  0  0  0  0  2  0  0  0  0  0  0
  -12.3230  -15.0570    9.1750 C   0  0  0  0  0  2  0  0  0  0  0  0
   -9.5270  -13.7020    8.0460 O   0  0  0  0  0  0  0  0  0  0  0  0
   -8.6280  -13.3850    8.2370 H   0  0  0  0  0  0  0  0  0  0  0  0
   -1.4710  -12.0150   14.7910 C   0  0  0  0  0  1  0  0  0  0  0  0
   -2.4130  -11.0260   15.2050 O   0  0  0  0  0  0  0  0  0  0  0  0
  1  2  1  0  0  0  0
  2  3  2  0  0  0  0
  4  3  1  0  0  0  0
  5  4  2  0  0  0  0
  6  5  1  0  0  0  0
  6  1  2  0  0  0  0
  7  6  1  0  0  0  0
  8  7  2  0  0  0  0
  9  8  1  0  0  0  0
 10  9  2  0  0  0  0
 10 11  1  0  0  0  0
 11  7  1  0  0  0  0
 12 11  1  0  0  0  0
 12 13  1  0  0  0  0
 13  5  1  0  0  0  0
 14 19  1  0  0  0  0
 14 10  1  0  0  0  0
 15 14  2  0  0  0  0
 16 17  2  0  0  0  0
 16 15  1  0  0  0  0
 17 18  1  0  0  0  0
 18 19  2  0  0  0  0
 20  9  1  0  0  0  0
 20 21  1  0  0  0  0
 22 21  2  0  0  0  0
 23 22  1  0  0  0  0
 24 25  1  0  0  0  0
 24 23  2  0  0  0  0
 25 20  2  0  0  0  0
 26 23  1  0  0  0  0
 26 30  1  1  0  0  0
 27 26  1  0  0  0  0
 28 37  1  6  0  0  0
 28 27  1  0  0  0  0
 28 29  1  0  0  0  0
 29 26  1  0  0  0  0
 30 32  1  0  0  0  0
 30 31  1  0  0  0  0
 33 30  1  0  0  0  0
 34 28  1  0  0  0  0
 34 36  1  0  0  0  0
 35 34  1  0  0  0  0
 35 36  1  0  0  0  0
 37 38  1  0  0  0  0
 39 40  1  0  0  0  0
 40  1  1  0  0  0  0
M  END
>  <minimizedAffinity>
-5.47953844

$$$$

 OpenBabel11232420233D

 40 46  0  0  1  0  0  0  0  0999 V2000
   -1.8110  -10.0420   15.2210 C   0  0  0  0  0  0  0  0  0  0  0  0
   -0.6960  -10.0750   16.0660 C   0  0  0  0  0  3  0  0  0  0  0  0
    0.0530   -8.9180   16.2850 C   0  0  0  0  0  3  0  0  0  0  0  0
   -0.2940   -7.7330   15.6390 C   0  0  0  0  0  3  0  0  0  0  0  0
   -1.3760   -7.7150   14.7590 C   0  0  0  0  0  0  0  0  0  0  0  0
   -2.1580   -8.8630   14.5510 C   0  0  0  0  0  0  0  0  0  0  0  0
   -3.2930   -8.7210   13.6550 C   0  0  0  0  0  0  0  0  0  0  0  0
   -4.3410   -9.4940   13.4600 N   0  0  0  0  0  0  0  0  0  0  0  0
   -5.1040   -8.8600   12.5020 C   0  0  0  0  0  0  0  0  0  0  0  0
   -4.5190   -7.6610   12.1130 C   0  0  0  0  0  0  0  0  0  0  0  0
   -3.3810   -7.5960   12.8820 N   0  0  0  0  0  0  0  0  0  0  0  0
   -2.3480   -6.5800   12.9010 C   0  0  0  0  0  2  0  0  0  0  0  0
   -1.6660   -6.5070   14.1690 O   0  0  0  0  0  0  0  0  0  0  0  0
   -4.9360   -6.6150   11.1870 C   0  0  0  0  0  0  0  0  0  0  0  0
   -5.3200   -5.3560   11.6670 C   0  0  0  0  0  3  0  0  0  0  0  0
   -5.7100   -4.3540   10.7760 C   0  0  0  0  0  3  0  0  0  0  0  0
   -5.7170   -4.6030    9.4040 C   0  0  0  0  0  3  0  0  0  0  0  0
   -5.3340   -5.8540    8.9200 C   0  0  0  0  0  3  0  0  0  0  0  0
   -4.9430   -6.8570    9.8100 C   0  0  0  0  0  3  0  0  0  0  0  0
   -6.3600   -9.4280   12.0380 C   0  0  0  0  0  0  0  0  0  0  0  0
   -6.4390  -10.2710   10.9330 C   0  0  0  0  0  3  0  0  0  0  0  0
   -7.6740  -10.7850   10.5070 C   0  0  0  0  0  3  0  0  0  0  0  0
   -8.8880  -10.5090   11.1790 C   0  0  0  0  0  0  0  0  0  0  0  0
   -8.7670   -9.6590   12.3010 C   0  0  0  0  0  3  0  0  0  0  0  0
   -7.5370   -9.1370   12.7260 C   0  0  0  0  0  3  0  0  0  0  0  0
  -10.3160  -11.0730   10.6910 C   0  0  1  0  0  0  0  0  0  0  0  0
  -11.2490  -11.7840   11.7060 C   0  0  0  0  0  2  0  0  0  0  0  0
  -12.4400  -10.8570   11.2890 C   0  0  1  0  0  0  0  0  0  0  0  0
  -11.4210  -10.0170   10.4510 C   0  0  0  0  0  2  0  0  0  0  0  0
  -10.1100  -11.9420    9.5020 N   0  0  0  0  0  4  0  0  0  0  0  0
   -9.8250  -11.3990    8.6780 H   0  0  0  0  0  0  0  0  0  0  0  0
   -9.3740  -12.6390    9.6830 H   0  0  0  0  0  0  0  0  0  0  0  0
  -10.9550  -12.4610    9.2370 H   0  0  0  0  0  0  0  0  0  0  0  0
  -13.6060  -11.4940   10.5190 C   0  0  0  0  0  3  0  0  0  0  0  0
  -15.0460  -11.0490   10.5340 C   0  0  0  0  0  2  0  0  0  0  0  0
  -14.2550  -10.9720    9.2620 C   0  0  0  0  0  2  0  0  0  0  0  0
  -12.9650  -10.1160   12.4210 O   0  0  0  0  0  0  0  0  0  0  0  0
  -12.2300   -9.6520   12.8570 H   0  0  0  0  0  0  0  0  0  0  0  0
   -1.5800  -12.3170   15.0500 C   0  0  0  0  0  1  0  0  0  0  0  0
   -2.4860  -11.2150   15.0080 O   0  0  0  0  0  0  0  0  0  0  0  0
  1  2  1  0  0  0  0
  2  3  2  0  0  0  0
  4  3  1  0  0  0  0
  5  4  2  0  0  0  0
  6  5  1  0  0  0  0
  6  1  2  0  0  0  0
  7  6  1  0  0  0  0
  8  7  2  0  0  0  0
  9  8  1  0  0  0  0
 10  9  2  0  0  0  0
 10 11  1  0  0  0  0
 11 12  1  0  0  0  0
 11  7  1  0  0  0  0
 12 13  1  0  0  0  0
 13  5  1  0  0  0  0
 14 15  1  0  0  0  0
 14 10  1  0  0  0  0
 16 15  2  0  0  0  0
 17 16  1  0  0  0  0
 18 17  2  0  0  0  0
 18 19  1  0  0  0  0
 19 14  2  0  0  0  0
 20  9  1  0  0  0  0
 20 25  1  0  0  0  0
 21 20  2  0  0  0  0
 22 21  1  0  0  0  0
 22 23  2  0  0  0  0
 23 24  1  0  0  0  0
 24 25  2  0  0  0  0
 26 30  1  6  0  0  0
 26 23  1  0  0  0  0
 26 27  1  0  0  0  0
 28 27  1  0  0  0  0
 28 37  1  1  0  0  0
 29 26  1  0  0  0  0
 29 28  1  0  0  0  0
 30 32  1  0  0  0  0
 31 30  1  0  0  0  0
 33 30  1  0  0  0  0
 34 35  1  0  0  0  0
 34 28  1  0  0  0  0
 36 34  1  0  0  0  0
 36 35  1  0  0  0  0
 37 38  1  0  0  0  0
 40 39  1  0  0  0  0
 40  1  1  0  0  0  0
M  END
>  <minimizedAffinity>
-5.18863916

$$$$

 OpenBabel11232420233D

 40 46  0  0  1  0  0  0  0  0999 V2000
  -11.3260  -14.8520    8.8570 C   0  0  0  0  0  0  0  0  0  0  0  0
  -11.8280  -16.1310    8.5910 C   0  0  0  0  0  3  0  0  0  0  0  0
  -12.8200  -16.3090    7.6270 C   0  0  0  0  0  3  0  0  0  0  0  0
  -13.3320  -15.2070    6.9440 C   0  0  0  0  0  3  0  0  0  0  0  0
  -12.8640  -13.9270    7.2450 C   0  0  0  0  0  0  0  0  0  0  0  0
  -11.8450  -13.7340    8.1930 C   0  0  0  0  0  0  0  0  0  0  0  0
  -11.3950  -12.3670    8.3920 C   0  0  0  0  0  0  0  0  0  0  0  0
  -10.3200  -11.8900    8.9810 N   0  0  0  0  0  0  0  0  0  0  0  0
  -10.4020  -10.5180    8.8620 C   0  0  0  0  0  0  0  0  0  0  0  0
  -11.5460  -10.1460    8.1670 C   0  0  0  0  0  0  0  0  0  0  0  0
  -12.1420  -11.3480    7.8660 N   0  0  0  0  0  0  0  0  0  0  0  0
  -13.3860  -11.6020    7.1680 C   0  0  0  0  0  2  0  0  0  0  0  0
  -13.4060  -12.8910    6.5220 O   0  0  0  0  0  0  0  0  0  0  0  0
  -12.0650   -8.8520    7.7410 C   0  0  0  0  0  0  0  0  0  0  0  0
  -11.5510   -8.2250    6.5980 C   0  0  0  0  0  3  0  0  0  0  0  0
  -12.0570   -6.9900    6.1880 C   0  0  0  0  0  3  0  0  0  0  0  0
  -13.0770   -6.3770    6.9150 C   0  0  0  0  0  3  0  0  0  0  0  0
  -13.5930   -6.9970    8.0530 C   0  0  0  0  0  3  0  0  0  0  0  0
  -13.0890   -8.2330    8.4640 C   0  0  0  0  0  3  0  0  0  0  0  0
   -9.3650   -9.6490    9.3970 C   0  0  0  0  0  0  0  0  0  0  0  0
   -9.2650   -9.3480   10.7530 C   0  0  0  0  0  3  0  0  0  0  0  0
   -8.2590   -8.4900   11.2270 C   0  0  0  0  0  3  0  0  0  0  0  0
   -7.2850   -7.9140   10.3780 C   0  0  0  0  0  0  0  0  0  0  0  0
   -7.4130   -8.2510    9.0120 C   0  0  0  0  0  3  0  0  0  0  0  0
   -8.4190   -9.1000    8.5330 C   0  0  0  0  0  3  0  0  0  0  0  0
   -6.1390   -6.9120   10.9040 C   0  0  1  0  0  0  0  0  0  0  0  0
   -6.4700   -5.4110   11.1200 C   0  0  0  0  0  2  0  0  0  0  0  0
   -5.8790   -5.4690   12.5680 C   0  0  1  0  0  0  0  0  0  0  0  0
   -5.7720   -7.0220   12.4040 C   0  0  0  0  0  2  0  0  0  0  0  0
   -4.9450   -7.0430   10.0280 N   0  0  0  0  0  4  0  0  0  0  0  0
   -4.4790   -7.9510   10.1520 H   0  0  0  0  0  0  0  0  0  0  0  0
   -5.2100   -6.9630    9.0360 H   0  0  0  0  0  0  0  0  0  0  0  0
   -4.2380   -6.3210   10.2080 H   0  0  0  0  0  0  0  0  0  0  0  0
   -4.5700   -4.7140   12.8380 C   0  0  0  0  0  3  0  0  0  0  0  0
   -4.2360   -3.8930   14.0580 C   0  0  0  0  0  2  0  0  0  0  0  0
   -3.4520   -5.1360   13.7560 C   0  0  0  0  0  2  0  0  0  0  0  0
   -6.8630   -5.0890   13.5650 O   0  0  0  0  0  0  0  0  0  0  0  0
   -7.6610   -5.6290   13.4360 H   0  0  0  0  0  0  0  0  0  0  0  0
   -9.1720  -15.3720    9.4460 C   0  0  0  0  0  1  0  0  0  0  0  0
  -10.3820  -14.7270    9.8430 O   0  0  0  0  0  0  0  0  0  0  0  0
  1 40  1  0  0  0  0
  2  1  1  0  0  0  0
  3  2  2  0  0  0  0
  4  5  2  0  0  0  0
  4  3  1  0  0  0  0
  5  6  1  0  0  0  0
  6  7  1  0  0  0  0
  6  1  2  0  0  0  0
  7  8  2  0  0  0  0
  9  8  1  0  0  0  0
  9 20  1  0  0  0  0
 10  9  2  0  0  0  0
 11 10  1  0  0  0  0
 11  7  1  0  0  0  0
 12 11  1  0  0  0  0
 13 12  1  0  0  0  0
 13  5  1  0  0  0  0
 14 10  1  0  0  0  0
 14 19  1  0  0  0  0
 15 14  2  0  0  0  0
 16 15  1  0  0  0  0
 16 17  2  0  0  0  0
 17 18  1  0  0  0  0
 18 19  2  0  0  0  0
 20 21  1  0  0  0  0
 21 22  2  0  0  0  0
 23 26  1  0  0  0  0
 23 22  1  0  0  0  0
 24 23  2  0  0  0  0
 25 24  1  0  0  0  0
 25 20  2  0  0  0  0
 26 30  1  6  0  0  0
 26 27  1  0  0  0  0
 26 29  1  0  0  0  0
 27 28  1  0  0  0  0
 28 34  1  0  0  0  0
 28 37  1  1  0  0  0
 29 28  1  0  0  0  0
 30 31  1  0  0  0  0
 30 33  1  0  0  0  0
 32 30  1  0  0  0  0
 34 36  1  0  0  0  0
 34 35  1  0  0  0  0
 36 35  1  0  0  0  0
 38 37  1  0  0  0  0
 39 40  1  0  0  0  0
M  END
>  <minimizedAffinity>
-5.0377059

$$$$

 OpenBabel11232420233D

 40 46  0  0  1  0  0  0  0  0999 V2000
   -8.0550  -12.3760    8.5100 C   0  0  0  0  0  0  0  0  0  0  0  0
   -7.6330  -13.4630    7.7360 C   0  0  0  0  0  3  0  0  0  0  0  0
   -6.2980  -13.5700    7.3460 C   0  0  0  0  0  3  0  0  0  0  0  0
   -5.3870  -12.5790    7.7050 C   0  0  0  0  0  3  0  0  0  0  0  0
   -5.8210  -11.4720    8.4360 C   0  0  0  0  0  0  0  0  0  0  0  0
   -7.1550  -11.3640    8.8620 C   0  0  0  0  0  0  0  0  0  0  0  0
   -7.4880  -10.1980    9.6610 C   0  0  0  0  0  0  0  0  0  0  0  0
   -8.5360   -9.9380   10.4140 N   0  0  0  0  0  0  0  0  0  0  0  0
   -8.3150   -8.6860   10.9490 C   0  0  0  0  0  0  0  0  0  0  0  0
   -7.0940   -8.1730   10.5290 C   0  0  0  0  0  0  0  0  0  0  0  0
   -6.5870   -9.1700    9.7290 N   0  0  0  0  0  0  0  0  0  0  0  0
   -5.3440   -9.2010    8.9840 C   0  0  0  0  0  2  0  0  0  0  0  0
   -4.8630  -10.5420    8.7650 O   0  0  0  0  0  0  0  0  0  0  0  0
   -6.3830   -6.9380   10.8370 C   0  0  0  0  0  0  0  0  0  0  0  0
   -5.5610   -6.8570   11.9680 C   0  0  0  0  0  3  0  0  0  0  0  0
   -4.8750   -5.6750   12.2540 C   0  0  0  0  0  3  0  0  0  0  0  0
   -5.0070   -4.5700   11.4140 C   0  0  0  0  0  3  0  0  0  0  0  0
   -5.8230   -4.6450   10.2860 C   0  0  0  0  0  3  0  0  0  0  0  0
   -6.5090   -5.8260    9.9970 C   0  0  0  0  0  3  0  0  0  0  0  0
   -9.2740   -8.0690   11.8520 C   0  0  0  0  0  0  0  0  0  0  0  0
   -8.9760   -6.9370   12.6050 C   0  0  0  0  0  3  0  0  0  0  0  0
   -9.9260   -6.3830   13.4780 C   0  0  0  0  0  3  0  0  0  0  0  0
  -11.2300   -6.9120   13.6230 C   0  0  0  0  0  0  0  0  0  0  0  0
  -11.4990   -8.0540   12.8360 C   0  0  0  0  0  3  0  0  0  0  0  0
  -10.5520   -8.6150   11.9680 C   0  0  0  0  0  3  0  0  0  0  0  0
  -12.3230   -6.3010   14.6360 C   0  0  1  0  0  0  0  0  0  0  0  0
  -12.3990   -4.7650   14.8490 C   0  0  0  0  0  2  0  0  0  0  0  0
  -13.9370   -4.7820   14.5620 C   0  0  1  0  0  0  0  0  0  0  0  0
  -13.7850   -6.2770   14.1280 C   0  0  0  0  0  2  0  0  0  0  0  0
  -12.2000   -6.9860   15.9490 N   0  0  0  0  0  4  0  0  0  0  0  0
  -12.5100   -7.9650   15.8980 H   0  0  0  0  0  0  0  0  0  0  0  0
  -11.2220   -6.9870   16.2700 H   0  0  0  0  0  0  0  0  0  0  0  0
  -12.7570   -6.5380   16.6860 H   0  0  0  0  0  0  0  0  0  0  0  0
  -14.8870   -4.4970   15.7340 C   0  0  0  0  0  3  0  0  0  0  0  0
  -16.1860   -3.7350   15.6780 C   0  0  0  0  0  2  0  0  0  0  0  0
  -16.1920   -5.1920   16.0330 C   0  0  0  0  0  2  0  0  0  0  0  0
  -14.2840   -3.9190   13.4480 O   0  0  0  0  0  0  0  0  0  0  0  0
  -13.7320   -4.1600   12.6850 H   0  0  0  0  0  0  0  0  0  0  0  0
   -9.8100  -13.5070    9.4570 C   0  0  0  0  0  1  0  0  0  0  0  0
   -9.3850  -12.2970    8.8310 O   0  0  0  0  0  0  0  0  0  0  0  0
  1 40  1  0  0  0  0
  1  6  1  0  0  0  0
  2  1  2  0  0  0  0
  3  4  2  0  0  0  0
  3  2  1  0  0  0  0
  4  5  1  0  0  0  0
  5 13  1  0  0  0  0
  5  6  2  0  0  0  0
  6  7  1  0  0  0  0
  7 11  1  0  0  0  0
  7  8  2  0  0  0  0
  8  9  1  0  0  0  0
  9 20  1  0  0  0  0
 10 14  1  0  0  0  0
 10  9  2  0  0  0  0
 11 10  1  0  0  0  0
 12 11  1  0  0  0  0
 13 12  1  0  0  0  0
 14 15  1  0  0  0  0
 15 16  2  0  0  0  0
 17 16  1  0  0  0  0
 18 17  2  0  0  0  0
 19 18  1  0  0  0  0
 19 14  2  0  0  0  0
 20 25  2  0  0  0  0
 20 21  1  0  0  0  0
 21 22  2  0  0  0  0
 22 23  1  0  0  0  0
 23 26  1  0  0  0  0
 24 23  2  0  0  0  0
 25 24  1  0  0  0  0
 26 27  1  0  0  0  0
 26 30  1  1  0  0  0
 28 37  1  6  0  0  0
 28 27  1  0  0  0  0
 28 34  1  0  0  0  0
 29 28  1  0  0  0  0
 29 26  1  0  0  0  0
 30 32  1  0  0  0  0
 30 33  1  0  0  0  0
 31 30  1  0  0  0  0
 34 36  1  0  0  0  0
 35 34  1  0  0  0  0
 35 36  1  0  0  0  0
 38 37  1  0  0  0  0
 40 39  1  0  0  0  0
M  END
>  <minimizedAffinity>
-5.01711273

$$$$

 OpenBabel11232420233D

 40 46  0  0  1  0  0  0  0  0999 V2000
   -4.9020  -12.0400   14.4170 C   0  0  0  0  0  0  0  0  0  0  0  0
   -4.0610  -12.5690   15.4020 C   0  0  0  0  0  3  0  0  0  0  0  0
   -3.0970  -11.7640   16.0090 C   0  0  0  0  0  3  0  0  0  0  0  0
   -2.9540  -10.4350   15.6150 C   0  0  0  0  0  3  0  0  0  0  0  0
   -3.7610   -9.9230   14.5990 C   0  0  0  0  0  0  0  0  0  0  0  0
   -4.7560  -10.7130   13.9980 C   0  0  0  0  0  0  0  0  0  0  0  0
   -5.5750  -10.0660   12.9880 C   0  0  0  0  0  0  0  0  0  0  0  0
   -6.7190  -10.4230   12.4460 N   0  0  0  0  0  0  0  0  0  0  0  0
   -7.0430   -9.4230   11.5530 C   0  0  0  0  0  0  0  0  0  0  0  0
   -6.0840   -8.4180   11.5610 C   0  0  0  0  0  0  0  0  0  0  0  0
   -5.1770   -8.8510   12.5000 N   0  0  0  0  0  0  0  0  0  0  0  0
   -3.9400   -8.2300   12.9300 C   0  0  0  0  0  2  0  0  0  0  0  0
   -3.5710   -8.6000   14.2720 O   0  0  0  0  0  0  0  0  0  0  0  0
   -5.9800   -7.1480   10.8550 C   0  0  0  0  0  0  0  0  0  0  0  0
   -6.3100   -5.9490   11.5000 C   0  0  0  0  0  3  0  0  0  0  0  0
   -6.2000   -4.7340   10.8230 C   0  0  0  0  0  3  0  0  0  0  0  0
   -5.7600   -4.7080    9.5000 C   0  0  0  0  0  3  0  0  0  0  0  0
   -5.4290   -5.8980    8.8520 C   0  0  0  0  0  3  0  0  0  0  0  0
   -5.5370   -7.1150    9.5280 C   0  0  0  0  0  3  0  0  0  0  0  0
   -8.2660   -9.4780   10.7680 C   0  0  0  0  0  0  0  0  0  0  0  0
   -8.2630   -9.6300    9.3840 C   0  0  0  0  0  3  0  0  0  0  0  0
   -9.4660   -9.6610    8.6610 C   0  0  0  0  0  3  0  0  0  0  0  0
  -10.7340   -9.5710    9.2830 C   0  0  0  0  0  0  0  0  0  0  0  0
  -10.6970   -9.4280   10.6880 C   0  0  0  0  0  3  0  0  0  0  0  0
   -9.4990   -9.3890   11.4140 C   0  0  0  0  0  3  0  0  0  0  0  0
  -12.1210   -9.5830    8.4650 C   0  0  1  0  0  0  0  0  0  0  0  0
  -12.0990   -9.5520    6.9130 C   0  0  0  0  0  2  0  0  0  0  0  0
  -13.0490  -10.7950    6.8550 C   0  0  1  0  0  0  0  0  0  0  0  0
  -12.8630  -10.9400    8.4020 C   0  0  0  0  0  2  0  0  0  0  0  0
  -12.9940   -8.4950    8.9790 N   0  0  0  0  0  4  0  0  0  0  0  0
  -13.3290   -8.6920    9.9300 H   0  0  0  0  0  0  0  0  0  0  0  0
  -12.4830   -7.6020    9.0090 H   0  0  0  0  0  0  0  0  0  0  0  0
  -13.8260   -8.3440    8.3980 H   0  0  0  0  0  0  0  0  0  0  0  0
  -14.4820  -10.5770    6.3500 C   0  0  0  0  0  3  0  0  0  0  0  0
  -15.1820  -11.3510    5.2620 C   0  0  0  0  0  2  0  0  0  0  0  0
  -15.6930  -11.4160    6.6710 C   0  0  0  0  0  2  0  0  0  0  0  0
  -12.4470  -11.8950    6.1240 O   0  0  0  0  0  0  0  0  0  0  0  0
  -11.5710  -12.0780    6.5030 H   0  0  0  0  0  0  0  0  0  0  0  0
   -5.1240  -13.7940   12.9580 C   0  0  0  0  0  1  0  0  0  0  0  0
   -5.8030  -12.8850   13.8230 O   0  0  0  0  0  0  0  0  0  0  0  0
  1  2  1  0  0  0  0
  2  3  2  0  0  0  0
  4  3  1  0  0  0  0
  5  4  2  0  0  0  0
  6  1  2  0  0  0  0
  6  5  1  0  0  0  0
  7  6  1  0  0  0  0
  8  7  2  0  0  0  0
  9 10  2  0  0  0  0
  9  8  1  0  0  0  0
 10 11  1  0  0  0  0
 11 12  1  0  0  0  0
 11  7  1  0  0  0  0
 12 13  1  0  0  0  0
 13  5  1  0  0  0  0
 14 15  1  0  0  0  0
 14 10  1  0  0  0  0
 16 15  2  0  0  0  0
 17 16  1  0  0  0  0
 18 17  2  0  0  0  0
 18 19  1  0  0  0  0
 19 14  2  0  0  0  0
 20 25  1  0  0  0  0
 20  9  1  0  0  0  0
 21 20  2  0  0  0  0
 22 23  2  0  0  0  0
 22 21  1  0  0  0  0
 23 24  1  0  0  0  0
 24 25  2  0  0  0  0
 26 30  1  1  0  0  0
 26 23  1  0  0  0  0
 27 26  1  0  0  0  0
 28 37  1  6  0  0  0
 28 27  1  0  0  0  0
 28 29  1  0  0  0  0
 29 26  1  0  0  0  0
 30 32  1  0  0  0  0
 30 31  1  0  0  0  0
 33 30  1  0  0  0  0
 34 36  1  0  0  0  0
 34 28  1  0  0  0  0
 35 34  1  0  0  0  0
 35 36  1  0  0  0  0
 37 38  1  0  0  0  0
 39 40  1  0  0  0  0
 40  1  1  0  0  0  0
M  END
>  <minimizedAffinity>
-4.93799162

$$$$

 OpenBabel11232420233D

 40 46  0  0  1  0  0  0  0  0999 V2000
   -6.9660  -11.1710   14.7240 C   0  0  0  0  0  0  0  0  0  0  0  0
   -6.3060  -11.2220   15.9560 C   0  0  0  0  0  3  0  0  0  0  0  0
   -5.0990  -11.9120   16.0780 C   0  0  0  0  0  3  0  0  0  0  0  0
   -4.5630  -12.5750   14.9750 C   0  0  0  0  0  3  0  0  0  0  0  0
   -5.2480  -12.5630   13.7600 C   0  0  0  0  0  0  0  0  0  0  0  0
   -6.4490  -11.8490   13.6140 C   0  0  0  0  0  0  0  0  0  0  0  0
   -7.0530  -11.8600   12.2930 C   0  0  0  0  0  0  0  0  0  0  0  0
   -7.9940  -11.1050   11.7670 N   0  0  0  0  0  0  0  0  0  0  0  0
   -8.1600  -11.5540   10.4740 C   0  0  0  0  0  0  0  0  0  0  0  0
   -7.2870  -12.5970   10.1920 C   0  0  0  0  0  0  0  0  0  0  0  0
   -6.5850  -12.7500   11.3650 N   0  0  0  0  0  0  0  0  0  0  0  0
   -5.5450  -13.7070   11.6890 C   0  0  0  0  0  2  0  0  0  0  0  0
   -4.6520  -13.2280   12.7140 O   0  0  0  0  0  0  0  0  0  0  0  0
   -7.0320  -13.3720    8.9850 C   0  0  0  0  0  0  0  0  0  0  0  0
   -6.3540  -12.7960    7.9030 C   0  0  0  0  0  3  0  0  0  0  0  0
   -6.1030  -13.5440    6.7520 C   0  0  0  0  0  3  0  0  0  0  0  0
   -6.5280  -14.8710    6.6750 C   0  0  0  0  0  3  0  0  0  0  0  0
   -7.2030  -15.4500    7.7490 C   0  0  0  0  0  3  0  0  0  0  0  0
   -7.4530  -14.7030    8.9020 C   0  0  0  0  0  3  0  0  0  0  0  0
   -9.1260  -10.9370    9.5780 C   0  0  0  0  0  0  0  0  0  0  0  0
  -10.3930  -11.4720    9.3570 C   0  0  0  0  0  3  0  0  0  0  0  0
  -11.2890  -10.8550    8.4700 C   0  0  0  0  0  3  0  0  0  0  0  0
  -10.9810   -9.6580    7.7820 C   0  0  0  0  0  0  0  0  0  0  0  0
   -9.6920   -9.1400    8.0390 C   0  0  0  0  0  3  0  0  0  0  0  0
   -8.7900   -9.7560    8.9170 C   0  0  0  0  0  3  0  0  0  0  0  0
  -11.9900   -8.9500    6.7460 C   0  0  1  0  0  0  0  0  0  0  0  0
  -12.8340   -7.7310    7.2060 C   0  0  0  0  0  2  0  0  0  0  0  0
  -12.3500   -6.9040    5.9680 C   0  0  1  0  0  0  0  0  0  0  0  0
  -11.3390   -8.0580    5.6610 C   0  0  0  0  0  2  0  0  0  0  0  0
  -12.8800   -9.9840    6.1560 N   0  0  0  0  0  4  0  0  0  0  0  0
  -12.3670  -10.6130    5.5260 H   0  0  0  0  0  0  0  0  0  0  0  0
  -13.3050  -10.5630    6.8930 H   0  0  0  0  0  0  0  0  0  0  0  0
  -13.6500   -9.5820    5.6090 H   0  0  0  0  0  0  0  0  0  0  0  0
  -13.3810   -6.5820    4.8760 C   0  0  0  0  0  3  0  0  0  0  0  0
  -14.8700   -6.8000    4.9490 C   0  0  0  0  0  2  0  0  0  0  0  0
  -14.3240   -5.4070    4.8380 C   0  0  0  0  0  2  0  0  0  0  0  0
  -11.6820   -5.6800    6.3690 O   0  0  0  0  0  0  0  0  0  0  0  0
  -10.9780   -5.9020    7.0010 H   0  0  0  0  0  0  0  0  0  0  0  0
   -7.9710   -9.1150   14.8560 C   0  0  0  0  0  1  0  0  0  0  0  0
   -8.1690  -10.5160   14.6690 O   0  0  0  0  0  0  0  0  0  0  0  0
  1  2  1  0  0  0  0
  2  3  2  0  0  0  0
  4  3  1  0  0  0  0
  5  4  2  0  0  0  0
  6  5  1  0  0  0  0
  6  1  2  0  0  0  0
  7  6  1  0  0  0  0
  8  7  2  0  0  0  0
  9  8  1  0  0  0  0
 10  9  2  0  0  0  0
 10 11  1  0  0  0  0
 11 12  1  0  0  0  0
 11  7  1  0  0  0  0
 12 13  1  0  0  0  0
 13  5  1  0  0  0  0
 14 10  1  0  0  0  0
 15 14  2  0  0  0  0
 16 15  1  0  0  0  0
 17 16  2  0  0  0  0
 17 18  1  0  0  0  0
 18 19  2  0  0  0  0
 19 14  1  0  0  0  0
 20  9  1  0  0  0  0
 21 20  1  0  0  0  0
 22 21  2  0  0  0  0
 23 24  2  0  0  0  0
 23 22  1  0  0  0  0
 24 25  1  0  0  0  0
 25 20  2  0  0  0  0
 26 30  1  6  0  0  0
 26 27  1  0  0  0  0
 26 23  1  0  0  0  0
 28 37  1  1  0  0  0
 28 27  1  0  0  0  0
 29 28  1  0  0  0  0
 29 26  1  0  0  0  0
 30 32  1  0  0  0  0
 31 30  1  0  0  0  0
 33 30  1  0  0  0  0
 34 35  1  0  0  0  0
 34 28  1  0  0  0  0
 36 34  1  0  0  0  0
 36 35  1  0  0  0  0
 37 38  1  0  0  0  0
 40  1  1  0  0  0  0
 40 39  1  0  0  0  0
M  END
>  <minimizedAffinity>
-4.6781702

$$$$

 OpenBabel11232420233D

 40 46  0  0  1  0  0  0  0  0999 V2000
  -13.7060   -9.8410    7.3200 C   0  0  0  0  0  0  0  0  0  0  0  0
  -14.9920  -10.0900    6.8270 C   0  0  0  0  0  3  0  0  0  0  0  0
  -15.5070  -11.3860    6.8310 C   0  0  0  0  0  3  0  0  0  0  0  0
  -14.7280  -12.4410    7.3020 C   0  0  0  0  0  3  0  0  0  0  0  0
  -13.4290  -12.1980    7.7490 C   0  0  0  0  0  0  0  0  0  0  0  0
  -12.9070  -10.8940    7.7790 C   0  0  0  0  0  0  0  0  0  0  0  0
  -11.5630  -10.7450    8.3100 C   0  0  0  0  0  0  0  0  0  0  0  0
  -10.9070   -9.6780    8.7130 N   0  0  0  0  0  0  0  0  0  0  0  0
   -9.6730  -10.1290    9.1330 C   0  0  0  0  0  0  0  0  0  0  0  0
   -9.5760  -11.5090    9.0020 C   0  0  0  0  0  0  0  0  0  0  0  0
  -10.8030  -11.8680    8.4960 N   0  0  0  0  0  0  0  0  0  0  0  0
  -11.2900  -13.1830    8.1270 C   0  0  0  0  0  2  0  0  0  0  0  0
  -12.7250  -13.2860    8.2110 O   0  0  0  0  0  0  0  0  0  0  0  0
   -8.5250  -12.4610    9.3400 C   0  0  0  0  0  0  0  0  0  0  0  0
   -8.6310  -13.2530   10.4900 C   0  0  0  0  0  3  0  0  0  0  0  0
   -7.6270  -14.1700   10.8060 C   0  0  0  0  0  3  0  0  0  0  0  0
   -6.5140  -14.3010    9.9750 C   0  0  0  0  0  3  0  0  0  0  0  0
   -6.4040  -13.5150    8.8280 C   0  0  0  0  0  3  0  0  0  0  0  0
   -7.4080  -12.5980    8.5100 C   0  0  0  0  0  3  0  0  0  0  0  0
   -8.6720   -9.2140    9.6590 C   0  0  0  0  0  0  0  0  0  0  0  0
   -7.7260   -8.5910    8.8500 C   0  0  0  0  0  3  0  0  0  0  0  0
   -6.7660   -7.7270    9.4010 C   0  0  0  0  0  3  0  0  0  0  0  0
   -6.7190   -7.4170   10.7800 C   0  0  0  0  0  0  0  0  0  0  0  0
   -7.7010   -8.0600   11.5670 C   0  0  0  0  0  3  0  0  0  0  0  0
   -8.6570   -8.9290   11.0240 C   0  0  0  0  0  3  0  0  0  0  0  0
   -5.6110   -6.4450   11.4300 C   0  0  1  0  0  0  0  0  0  0  0  0
   -5.9310   -4.9400   11.6290 C   0  0  0  0  0  2  0  0  0  0  0  0
   -5.4900   -5.0240   13.1280 C   0  0  1  0  0  0  0  0  0  0  0  0
   -5.4000   -6.5770   12.9570 C   0  0  0  0  0  2  0  0  0  0  0  0
   -4.3380   -6.5940   10.6770 N   0  0  0  0  0  4  0  0  0  0  0  0
   -3.9060   -7.5130   10.8370 H   0  0  0  0  0  0  0  0  0  0  0  0
   -4.5000   -6.5000    9.6650 H   0  0  0  0  0  0  0  0  0  0  0  0
   -3.6380   -5.8890   10.9360 H   0  0  0  0  0  0  0  0  0  0  0  0
   -4.2000   -4.3000   13.5370 C   0  0  0  0  0  3  0  0  0  0  0  0
   -3.9380   -3.5910   14.8410 C   0  0  0  0  0  2  0  0  0  0  0  0
   -3.1350   -4.8050   14.4770 C   0  0  0  0  0  2  0  0  0  0  0  0
   -6.5620   -4.6310   14.0250 O   0  0  0  0  0  0  0  0  0  0  0  0
   -7.3540   -5.1530   13.8110 H   0  0  0  0  0  0  0  0  0  0  0  0
  -12.9420   -8.2100    5.9010 C   0  0  0  0  0  1  0  0  0  0  0  0
  -13.2330   -8.5560    7.2550 O   0  0  0  0  0  0  0  0  0  0  0  0
  1  6  1  0  0  0  0
  2  3  1  0  0  0  0
  2  1  2  0  0  0  0
  3  4  2  0  0  0  0
  4  5  1  0  0  0  0
  5  6  2  0  0  0  0
  5 13  1  0  0  0  0
  6  7  1  0  0  0  0
  7 11  1  0  0  0  0
  7  8  2  0  0  0  0
  8  9  1  0  0  0  0
  9 20  1  0  0  0  0
 10  9  2  0  0  0  0
 10 14  1  0  0  0  0
 11 10  1  0  0  0  0
 12 13  1  0  0  0  0
 12 11  1  0  0  0  0
 14 15  1  0  0  0  0
 15 16  2  0  0  0  0
 17 16  1  0  0  0  0
 18 17  2  0  0  0  0
 19 18  1  0  0  0  0
 19 14  2  0  0  0  0
 20 25  1  0  0  0  0
 21 22  1  0  0  0  0
 21 20  2  0  0  0  0
 22 23  2  0  0  0  0
 23 26  1  0  0  0  0
 23 24  1  0  0  0  0
 25 24  2  0  0  0  0
 26 30  1  6  0  0  0
 26 27  1  0  0  0  0
 26 29  1  0  0  0  0
 27 28  1  0  0  0  0
 28 34  1  0  0  0  0
 28 37  1  1  0  0  0
 29 28  1  0  0  0  0
 30 31  1  0  0  0  0
 30 33  1  0  0  0  0
 32 30  1  0  0  0  0
 34 36  1  0  0  0  0
 34 35  1  0  0  0  0
 36 35  1  0  0  0  0
 38 37  1  0  0  0  0
 39 40  1  0  0  0  0
 40  1  1  0  0  0  0
M  END
>  <minimizedAffinity>
-4.6439147

$$$$

 OpenBabel11232420233D

 40 46  0  0  1  0  0  0  0  0999 V2000
  -13.2420  -15.2030    9.7870 C   0  0  0  0  0  0  0  0  0  0  0  0
  -14.3570  -16.0310    9.9560 C   0  0  0  0  0  3  0  0  0  0  0  0
  -14.3270  -17.3510    9.5070 C   0  0  0  0  0  3  0  0  0  0  0  0
  -13.1910  -17.8390    8.8630 C   0  0  0  0  0  3  0  0  0  0  0  0
  -12.0990  -16.9980    8.6520 C   0  0  0  0  0  0  0  0  0  0  0  0
  -12.1030  -15.6750    9.1250 C   0  0  0  0  0  0  0  0  0  0  0  0
  -10.8940  -14.9010    8.8980 C   0  0  0  0  0  0  0  0  0  0  0  0
  -10.4830  -13.7690    9.4260 N   0  0  0  0  0  0  0  0  0  0  0  0
   -9.2560  -13.5080    8.8510 C   0  0  0  0  0  0  0  0  0  0  0  0
   -8.8990  -14.5130    7.9620 C   0  0  0  0  0  0  0  0  0  0  0  0
   -9.9540  -15.3920    8.0330 N   0  0  0  0  0  0  0  0  0  0  0  0
  -10.1640  -16.6300    7.3090 C   0  0  0  0  0  2  0  0  0  0  0  0
  -11.0100  -17.5530    8.0220 O   0  0  0  0  0  0  0  0  0  0  0  0
   -7.7090  -14.7350    7.1490 C   0  0  0  0  0  0  0  0  0  0  0  0
   -6.9990  -13.6500    6.6210 C   0  0  0  0  0  3  0  0  0  0  0  0
   -5.8550  -13.8670    5.8520 C   0  0  0  0  0  3  0  0  0  0  0  0
   -5.4140  -15.1670    5.6060 C   0  0  0  0  0  3  0  0  0  0  0  0
   -6.1170  -16.2520    6.1290 C   0  0  0  0  0  3  0  0  0  0  0  0
   -7.2610  -16.0370    6.9010 C   0  0  0  0  0  3  0  0  0  0  0  0
   -8.4900  -12.3240    9.2090 C   0  0  0  0  0  0  0  0  0  0  0  0
   -7.3800  -12.3750   10.0480 C   0  0  0  0  0  3  0  0  0  0  0  0
   -6.6780  -11.2060   10.3830 C   0  0  0  0  0  3  0  0  0  0  0  0
   -7.0280   -9.9330    9.8760 C   0  0  0  0  0  0  0  0  0  0  0  0
   -8.1520   -9.9230    9.0200 C   0  0  0  0  0  3  0  0  0  0  0  0
   -8.8620  -11.0850    8.6890 C   0  0  0  0  0  3  0  0  0  0  0  0
   -6.2460   -8.5800   10.2670 C   0  0  1  0  0  0  0  0  0  0  0  0
   -5.4110   -7.8360    9.1910 C   0  0  0  0  0  2  0  0  0  0  0  0
   -6.1390   -6.4920    9.5280 C   0  0  1  0  0  0  0  0  0  0  0  0
   -7.1180   -7.3120   10.4330 C   0  0  0  0  0  2  0  0  0  0  0  0
   -5.4060   -8.8390   11.4660 N   0  0  0  0  0  4  0  0  0  0  0  0
   -5.9780   -8.9820   12.3080 H   0  0  0  0  0  0  0  0  0  0  0  0
   -4.8320   -9.6830   11.3340 H   0  0  0  0  0  0  0  0  0  0  0  0
   -4.7610   -8.0680   11.6740 H   0  0  0  0  0  0  0  0  0  0  0  0
   -5.3230   -5.3900   10.2180 C   0  0  0  0  0  3  0  0  0  0  0  0
   -5.6840   -3.9300   10.3200 C   0  0  0  0  0  2  0  0  0  0  0  0
   -5.5980   -4.7650   11.5620 C   0  0  0  0  0  2  0  0  0  0  0  0
   -6.8030   -5.9350    8.3640 O   0  0  0  0  0  0  0  0  0  0  0  0
   -7.3790   -6.6170    7.9790 H   0  0  0  0  0  0  0  0  0  0  0  0
  -13.5020  -13.8600   11.6270 C   0  0  0  0  0  1  0  0  0  0  0  0
  -13.3400  -13.9030   10.2090 O   0  0  0  0  0  0  0  0  0  0  0  0
  1  2  1  0  0  0  0
  1 40  1  0  0  0  0
  3  2  2  0  0  0  0
  4  3  1  0  0  0  0
  5  4  2  0  0  0  0
  5  6  1  0  0  0  0
  6  1  2  0  0  0  0
  7  6  1  0  0  0  0
  7  8  2  0  0  0  0
  9 20  1  0  0  0  0
  9  8  1  0  0  0  0
 10 11  1  0  0  0  0
 10  9  2  0  0  0  0
 11  7  1  0  0  0  0
 12 13  1  0  0  0  0
 12 11  1  0  0  0  0
 13  5  1  0  0  0  0
 14 10  1  0  0  0  0
 15 14  2  0  0  0  0
 16 15  1  0  0  0  0
 17 16  2  0  0  0  0
 17 18  1  0  0  0  0
 18 19  2  0  0  0  0
 19 14  1  0  0  0  0
 20 21  1  0  0  0  0
 21 22  2  0  0  0  0
 23 26  1  0  0  0  0
 23 22  1  0  0  0  0
 24 23  2  0  0  0  0
 25 24  1  0  0  0  0
 25 20  2  0  0  0  0
 26 29  1  0  0  0  0
 26 30  1  1  0  0  0
 27 28  1  0  0  0  0
 27 26  1  0  0  0  0
 28 37  1  6  0  0  0
 28 34  1  0  0  0  0
 28 29  1  0  0  0  0
 30 33  1  0  0  0  0
 30 31  1  0  0  0  0
 32 30  1  0  0  0  0
 34 35  1  0  0  0  0
 34 36  1  0  0  0  0
 35 36  1  0  0  0  0
 38 37  1  0  0  0  0
 40 39  1  0  0  0  0
M  END
>  <minimizedAffinity>
-4.4475913

$$$$
