
 OpenBabel10152418213D

 39 42  0  0  1  0  0  0  0  0999 V2000
    0.8610   -6.5070  -26.7690 C   0  0  0  0  0  0  0  0  0  0  0  0
    0.4060   -5.1770  -26.7680 C   0  0  0  0  0  3  0  0  0  0  0  0
    0.6880   -4.3250  -27.8340 C   0  0  0  0  0  3  0  0  0  0  0  0
    1.4950   -4.7650  -28.8820 C   0  0  0  0  0  3  0  0  0  0  0  0
    2.0410   -6.0450  -28.8650 C   0  0  0  0  0  0  0  0  0  0  0  0
    1.6130   -6.9390  -27.8760 C   0  0  0  0  0  3  0  0  0  0  0  0
    3.0080   -6.5170  -29.7730 N   0  0  0  0  0  0  0  0  0  0  0  0
    4.0100   -7.4580  -29.6730 C   0  0  0  0  0  0  0  0  0  0  0  0
    4.8670   -7.4710  -30.5610 O   0  0  0  0  0  0  0  0  0  0  0  0
    2.9830   -6.1190  -30.7060 H   0  0  0  0  0  0  0  0  0  0  0  0
    4.0610   -8.3940  -28.5840 C   0  0  1  0  0  3  0  0  0  0  0  0
    3.6950   -9.7200  -28.4490 C   0  0  0  0  0  2  0  0  0  0  0  0
    3.7480   -9.9800  -27.0550 C   0  0  1  0  0  3  0  0  0  0  0  0
    4.3260   -8.9590  -26.4040 N   0  0  0  0  0  2  0  0  0  0  0  0
    4.5900   -8.0630  -27.3690 N   0  0  0  0  0  0  0  0  0  0  0  0
    5.0510   -7.1940  -27.1190 H   0  0  0  0  0  0  0  0  0  0  0  0
    3.1430  -11.1390  -26.2790 C   0  0  0  0  0  0  0  0  0  0  0  0
    4.2370  -12.0380  -25.6740 C   0  0  0  0  0  1  0  0  0  0  0  0
    2.2720  -10.5730  -25.1350 C   0  0  0  0  0  1  0  0  0  0  0  0
    2.2390  -12.0190  -27.1670 C   0  0  0  0  0  1  0  0  0  0  0  0
    0.6760   -6.5510  -24.2850 C   0  0  0  0  0  1  0  0  0  0  0  0
    0.5230   -7.3850  -25.5660 C   0  0  1  0  0  3  0  0  0  0  0  0
   -0.7960   -8.0140  -25.5410 N   0  0  0  0  0  0  0  0  0  0  0  0
   -1.2740   -8.0400  -26.4370 H   0  0  0  0  0  0  0  0  0  0  0  0
   -1.2730   -9.0410  -24.7710 C   0  0  0  0  0  0  0  0  0  0  0  0
   -1.1790  -10.2080  -25.4320 N   0  0  0  0  0  0  0  0  0  0  0  0
   -1.3510  -11.3150  -24.7200 C   0  0  0  0  0  3  0  0  0  0  0  0
   -1.5710  -11.3680  -23.4040 N   0  0  0  0  0  0  0  0  0  0  0  0
   -1.7470  -10.2020  -22.7440 C   0  0  0  0  0  0  0  0  0  0  0  0
   -1.9860  -10.1660  -21.3550 C   0  0  0  0  0  0  0  0  0  0  0  0
   -2.2420   -8.9540  -20.6880 C   0  0  0  0  0  3  0  0  0  0  0  0
   -2.2560   -7.7570  -21.3840 C   0  0  0  0  0  3  0  0  0  0  0  0
   -1.9670   -7.7660  -22.7410 C   0  0  0  0  0  3  0  0  0  0  0  0
   -1.6740   -8.9720  -23.4250 C   0  0  0  0  0  0  0  0  0  0  0  0
   -1.9470  -11.3860  -20.4880 C   0  0  0  0  0  0  0  0  0  0  0  0
   -0.7610  -12.0380  -20.3340 N   0  0  0  0  0  0  0  0  0  0  0  0
   -2.9480  -11.7840  -19.8990 O   0  0  0  0  0  0  0  0  0  0  0  0
   -0.7180  -12.8440  -19.7270 H   0  0  0  0  0  0  0  0  0  0  0  0
    0.0680  -11.7430  -20.8410 H   0  0  0  0  0  0  0  0  0  0  0  0
  1  2  1  0  0  0  0
  1 22  1  0  0  0  0
  3  2  2  0  0  0  0
  4  5  2  0  0  0  0
  4  3  1  0  0  0  0
  5  6  1  0  0  0  0
  6  1  2  0  0  0  0
  7  8  1  0  0  0  0
  7  5  1  0  0  0  0
  9  8  2  0  0  0  0
 10  7  1  0  0  0  0
 11  8  1  6  0  0  0
 11 12  1  0  0  0  0
 11 15  1  0  0  0  0
 12 13  1  0  0  0  0
 13 14  1  0  0  0  0
 13 17  1  1  0  0  0
 15 16  1  0  0  0  0
 15 14  1  0  0  0  0
 17 18  1  0  0  0  0
 17 19  1  0  0  0  0
 20 17  1  0  0  0  0
 22 23  1  0  0  0  0
 22 21  1  1  0  0  0
 23 25  1  0  0  0  0
 24 23  1  0  0  0  0
 25 34  1  0  0  0  0
 26 25  2  0  0  0  0
 26 27  1  0  0  0  0
 27 28  2  0  0  0  0
 28 29  1  0  0  0  0
 29 30  1  0  0  0  0
 30 31  2  0  0  0  0
 30 35  1  0  0  0  0
 32 31  1  0  0  0  0
 33 32  2  0  0  0  0
 34 29  2  0  0  0  0
 34 33  1  0  0  0  0
 35 36  1  0  0  0  0
 35 37  2  0  0  0  0
 36 38  1  0  0  0  0
 39 36  1  0  0  0  0
M  END
>  <minimizedAffinity>
-9.33608913

$$$$

 OpenBabel10152418213D

 39 42  0  0  1  0  0  0  0  0999 V2000
    3.2160  -11.7050  -26.6110 C   0  0  0  0  0  0  0  0  0  0  0  0
    3.5590  -11.7230  -25.2480 C   0  0  0  0  0  3  0  0  0  0  0  0
    2.5850  -11.9010  -24.2680 C   0  0  0  0  0  3  0  0  0  0  0  0
    1.2410  -11.9860  -24.6300 C   0  0  0  0  0  3  0  0  0  0  0  0
    0.8600  -11.8730  -25.9630 C   0  0  0  0  0  0  0  0  0  0  0  0
    1.8600  -11.8640  -26.9440 C   0  0  0  0  0  3  0  0  0  0  0  0
   -0.4710  -11.7610  -26.4100 N   0  0  0  0  0  0  0  0  0  0  0  0
   -1.5490  -11.0200  -25.9740 C   0  0  0  0  0  0  0  0  0  0  0  0
   -2.6620  -11.3260  -26.4110 O   0  0  0  0  0  0  0  0  0  0  0  0
   -0.7200  -12.3070  -27.2270 H   0  0  0  0  0  0  0  0  0  0  0  0
   -1.3920   -9.9300  -25.0520 C   0  0  1  0  0  3  0  0  0  0  0  0
   -1.4390   -9.8310  -23.6740 C   0  0  0  0  0  2  0  0  0  0  0  0
   -1.4770   -8.4390  -23.4010 C   0  0  1  0  0  3  0  0  0  0  0  0
   -1.2370   -7.7320  -24.5160 N   0  0  0  0  0  2  0  0  0  0  0  0
   -1.0940   -8.6640  -25.4710 N   0  0  0  0  0  0  0  0  0  0  0  0
   -0.8870   -8.3670  -26.4190 H   0  0  0  0  0  0  0  0  0  0  0  0
   -1.8650   -7.7310  -22.1130 C   0  0  0  0  0  0  0  0  0  0  0  0
   -1.3380   -6.2840  -22.0900 C   0  0  0  0  0  1  0  0  0  0  0  0
   -3.4070   -7.7030  -22.0050 C   0  0  0  0  0  1  0  0  0  0  0  0
   -1.3190   -8.4590  -20.8680 C   0  0  0  0  0  1  0  0  0  0  0  0
    3.7880  -11.8190  -29.0330 C   0  0  0  0  0  1  0  0  0  0  0  0
    4.3320  -11.4980  -27.6330 C   0  0  1  0  0  3  0  0  0  0  0  0
    4.9620  -10.1800  -27.6840 N   0  0  0  0  0  0  0  0  0  0  0  0
    5.9500  -10.1880  -27.9230 H   0  0  0  0  0  0  0  0  0  0  0  0
    4.4430   -8.9640  -28.0400 C   0  0  0  0  0  0  0  0  0  0  0  0
    4.8290   -8.6340  -29.2840 N   0  0  0  0  0  0  0  0  0  0  0  0
    4.1940   -7.6200  -29.8600 C   0  0  0  0  0  3  0  0  0  0  0  0
    3.1850   -6.9290  -29.3240 N   0  0  0  0  0  0  0  0  0  0  0  0
    2.8420   -7.1980  -28.0450 C   0  0  0  0  0  0  0  0  0  0  0  0
    1.7910   -6.5150  -27.4000 C   0  0  0  0  0  0  0  0  0  0  0  0
    1.4890   -6.7470  -26.0450 C   0  0  0  0  0  3  0  0  0  0  0  0
    2.2170   -7.6670  -25.3100 C   0  0  0  0  0  3  0  0  0  0  0  0
    3.2190   -8.3910  -25.9420 C   0  0  0  0  0  3  0  0  0  0  0  0
    3.5170   -8.1960  -27.3140 C   0  0  0  0  0  0  0  0  0  0  0  0
    0.9030   -5.5350  -28.1020 C   0  0  0  0  0  0  0  0  0  0  0  0
    1.4750   -4.4680  -28.7260 N   0  0  0  0  0  0  0  0  0  0  0  0
   -0.3140   -5.6930  -28.1480 O   0  0  0  0  0  0  0  0  0  0  0  0
    0.8870   -3.8190  -29.2290 H   0  0  0  0  0  0  0  0  0  0  0  0
    2.4760   -4.3040  -28.6690 H   0  0  0  0  0  0  0  0  0  0  0  0
  1  2  1  0  0  0  0
  2  3  2  0  0  0  0
  4  3  1  0  0  0  0
  5  4  2  0  0  0  0
  6  1  2  0  0  0  0
  6  5  1  0  0  0  0
  7  8  1  0  0  0  0
  7  5  1  0  0  0  0
  9  8  2  0  0  0  0
 10  7  1  0  0  0  0
 11  8  1  1  0  0  0
 11 12  1  0  0  0  0
 12 13  1  0  0  0  0
 13 17  1  6  0  0  0
 14 13  1  0  0  0  0
 15 11  1  0  0  0  0
 15 14  1  0  0  0  0
 16 15  1  0  0  0  0
 17 18  1  0  0  0  0
 17 19  1  0  0  0  0
 17 20  1  0  0  0  0
 22 21  1  6  0  0  0
 22  1  1  0  0  0  0
 23 22  1  0  0  0  0
 24 23  1  0  0  0  0
 25 23  1  0  0  0  0
 25 34  1  0  0  0  0
 26 25  2  0  0  0  0
 27 28  2  0  0  0  0
 27 26  1  0  0  0  0
 28 29  1  0  0  0  0
 29 30  2  0  0  0  0
 29 34  1  0  0  0  0
 30 31  1  0  0  0  0
 31 32  2  0  0  0  0
 33 32  1  0  0  0  0
 34 33  2  0  0  0  0
 35 30  1  0  0  0  0
 36 39  1  0  0  0  0
 36 35  1  0  0  0  0
 37 35  2  0  0  0  0
 38 36  1  0  0  0  0
M  END
>  <minimizedAffinity>
-8.02849293

$$$$
