
 OpenBabel10152418213D

 39 42  0  0  1  0  0  0  0  0999 V2000
    3.2160  -11.7050  -26.6110 C   0  0  0  0  0  0  0  0  0  0  0  0
    3.5590  -11.7230  -25.2480 C   0  0  0  0  0  3  0  0  0  0  0  0
    2.5850  -11.9010  -24.2680 C   0  0  0  0  0  3  0  0  0  0  0  0
    1.2410  -11.9860  -24.6300 C   0  0  0  0  0  3  0  0  0  0  0  0
    0.8600  -11.8730  -25.9630 C   0  0  0  0  0  0  0  0  0  0  0  0
    1.8600  -11.8640  -26.9440 C   0  0  0  0  0  3  0  0  0  0  0  0
   -0.4710  -11.7610  -26.4100 N   0  0  0  0  0  0  0  0  0  0  0  0
   -1.5490  -11.0200  -25.9740 C   0  0  0  0  0  0  0  0  0  0  0  0
   -2.6620  -11.3260  -26.4110 O   0  0  0  0  0  0  0  0  0  0  0  0
   -0.7200  -12.3070  -27.2270 H   0  0  0  0  0  0  0  0  0  0  0  0
   -1.3920   -9.9300  -25.0520 C   0  0  1  0  0  3  0  0  0  0  0  0
   -1.4390   -9.8310  -23.6740 C   0  0  0  0  0  2  0  0  0  0  0  0
   -1.4770   -8.4390  -23.4010 C   0  0  1  0  0  3  0  0  0  0  0  0
   -1.2370   -7.7320  -24.5160 N   0  0  0  0  0  2  0  0  0  0  0  0
   -1.0940   -8.6640  -25.4710 N   0  0  0  0  0  0  0  0  0  0  0  0
   -0.8870   -8.3670  -26.4190 H   0  0  0  0  0  0  0  0  0  0  0  0
   -1.8650   -7.7310  -22.1130 C   0  0  0  0  0  0  0  0  0  0  0  0
   -1.3380   -6.2840  -22.0900 C   0  0  0  0  0  1  0  0  0  0  0  0
   -3.4070   -7.7030  -22.0050 C   0  0  0  0  0  1  0  0  0  0  0  0
   -1.3190   -8.4590  -20.8680 C   0  0  0  0  0  1  0  0  0  0  0  0
    3.7880  -11.8190  -29.0330 C   0  0  0  0  0  1  0  0  0  0  0  0
    4.3320  -11.4980  -27.6330 C   0  0  1  0  0  3  0  0  0  0  0  0
    4.9620  -10.1800  -27.6840 N   0  0  0  0  0  0  0  0  0  0  0  0
    5.9500  -10.1880  -27.9230 H   0  0  0  0  0  0  0  0  0  0  0  0
    4.4430   -8.9640  -28.0400 C   0  0  0  0  0  0  0  0  0  0  0  0
    4.8290   -8.6340  -29.2840 N   0  0  0  0  0  0  0  0  0  0  0  0
    4.1940   -7.6200  -29.8600 C   0  0  0  0  0  3  0  0  0  0  0  0
    3.1850   -6.9290  -29.3240 N   0  0  0  0  0  0  0  0  0  0  0  0
    2.8420   -7.1980  -28.0450 C   0  0  0  0  0  0  0  0  0  0  0  0
    1.7910   -6.5150  -27.4000 C   0  0  0  0  0  0  0  0  0  0  0  0
    1.4890   -6.7470  -26.0450 C   0  0  0  0  0  3  0  0  0  0  0  0
    2.2170   -7.6670  -25.3100 C   0  0  0  0  0  3  0  0  0  0  0  0
    3.2190   -8.3910  -25.9420 C   0  0  0  0  0  3  0  0  0  0  0  0
    3.5170   -8.1960  -27.3140 C   0  0  0  0  0  0  0  0  0  0  0  0
    0.9030   -5.5350  -28.1020 C   0  0  0  0  0  0  0  0  0  0  0  0
    1.4750   -4.4680  -28.7260 N   0  0  0  0  0  0  0  0  0  0  0  0
   -0.3140   -5.6930  -28.1480 O   0  0  0  0  0  0  0  0  0  0  0  0
    0.8870   -3.8190  -29.2290 H   0  0  0  0  0  0  0  0  0  0  0  0
    2.4760   -4.3040  -28.6690 H   0  0  0  0  0  0  0  0  0  0  0  0
  1  2  1  0  0  0  0
  2  3  2  0  0  0  0
  4  3  1  0  0  0  0
  5  4  2  0  0  0  0
  6  1  2  0  0  0  0
  6  5  1  0  0  0  0
  7  8  1  0  0  0  0
  7  5  1  0  0  0  0
  9  8  2  0  0  0  0
 10  7  1  0  0  0  0
 11  8  1  1  0  0  0
 11 12  1  0  0  0  0
 12 13  1  0  0  0  0
 13 17  1  6  0  0  0
 14 13  1  0  0  0  0
 15 11  1  0  0  0  0
 15 14  1  0  0  0  0
 16 15  1  0  0  0  0
 17 18  1  0  0  0  0
 17 19  1  0  0  0  0
 17 20  1  0  0  0  0
 22 21  1  6  0  0  0
 22  1  1  0  0  0  0
 23 22  1  0  0  0  0
 24 23  1  0  0  0  0
 25 23  1  0  0  0  0
 25 34  1  0  0  0  0
 26 25  2  0  0  0  0
 27 28  2  0  0  0  0
 27 26  1  0  0  0  0
 28 29  1  0  0  0  0
 29 30  2  0  0  0  0
 29 34  1  0  0  0  0
 30 31  1  0  0  0  0
 31 32  2  0  0  0  0
 33 32  1  0  0  0  0
 34 33  2  0  0  0  0
 35 30  1  0  0  0  0
 36 39  1  0  0  0  0
 36 35  1  0  0  0  0
 37 35  2  0  0  0  0
 38 36  1  0  0  0  0
M  END
>  <minimizedAffinity>
-8.02849293

$$$$
