
 OpenBabel10152418183D

 37 40  0  0  0  0  0  0  0  0999 V2000
    0.4280   -7.0710  -27.2310 C   0  0  0  0  0  0  0  0  0  0  0  0
    0.0810   -5.7750  -26.8310 C   0  0  0  0  0  3  0  0  0  0  0  0
    0.6800   -4.6650  -27.4240 C   0  0  0  0  0  3  0  0  0  0  0  0
    1.6550   -4.8300  -28.4100 C   0  0  0  0  0  3  0  0  0  0  0  0
    2.0490   -6.1080  -28.8040 C   0  0  0  0  0  0  0  0  0  0  0  0
    1.4130   -7.2160  -28.2270 C   0  0  0  0  0  3  0  0  0  0  0  0
    3.0210   -6.3760  -29.7850 N   0  0  0  0  0  0  0  0  0  0  0  0
    4.0870   -7.2430  -29.8250 C   0  0  0  0  0  0  0  0  0  0  0  0
    4.9140   -7.1640  -30.7320 O   0  0  0  0  0  0  0  0  0  0  0  0
    2.9540   -5.8400  -30.6440 H   0  0  0  0  0  0  0  0  0  0  0  0
    4.2170   -8.3500  -28.8800 C   0  0  0  0  0  0  0  0  0  0  0  0
    4.0010   -9.6560  -29.3080 C   0  0  0  0  0  0  0  0  0  0  0  0
    3.7570   -9.9240  -30.5990 F   0  0  0  0  0  0  0  0  0  0  0  0
    4.0750  -10.7180  -28.4110 C   0  0  0  0  0  3  0  0  0  0  0  0
    4.3490  -10.4610  -27.0680 C   0  0  0  0  0  0  0  0  0  0  0  0
    4.4470  -11.7660  -25.9530 Cl  0  0  0  0  0  0  0  0  0  0  0  0
    4.5450   -9.1550  -26.6220 C   0  0  0  0  0  3  0  0  0  0  0  0
    4.4680   -8.1040  -27.5320 C   0  0  0  0  0  0  0  0  0  0  0  0
    4.6350   -6.8520  -27.0820 F   0  0  0  0  0  0  0  0  0  0  0  0
   -0.1710   -8.3220  -26.6190 C   0  0  0  0  0  2  0  0  0  0  0  0
   -1.7960  -10.2850  -21.0670 C   0  0  0  0  0  0  0  0  0  0  0  0
   -2.0360   -9.0530  -20.4400 C   0  0  0  0  0  3  0  0  0  0  0  0
   -1.8520   -7.8820  -21.1530 C   0  0  0  0  0  3  0  0  0  0  0  0
   -1.4130   -7.9560  -22.4720 C   0  0  0  0  0  3  0  0  0  0  0  0
   -1.1520   -9.2050  -23.1020 C   0  0  0  0  0  0  0  0  0  0  0  0
   -0.6920   -9.3420  -24.4280 C   0  0  0  0  0  0  0  0  0  0  0  0
   -0.4360   -8.2090  -25.1960 N   0  0  0  0  0  0  0  0  0  0  0  0
   -0.5240  -10.5440  -25.0000 N   0  0  0  0  0  0  0  0  0  0  0  0
   -0.7720  -11.6140  -24.2420 C   0  0  0  0  0  3  0  0  0  0  0  0
   -1.1820  -11.6000  -22.9720 N   0  0  0  0  0  0  0  0  0  0  0  0
   -1.3660  -10.4000  -22.3940 C   0  0  0  0  0  0  0  0  0  0  0  0
    0.0540   -7.4640  -24.7200 H   0  0  0  0  0  0  0  0  0  0  0  0
   -0.8580  -12.0350  -19.7180 N   0  0  0  0  0  0  0  0  0  0  0  0
   -1.9930  -11.4910  -20.2480 C   0  0  0  0  0  0  0  0  0  0  0  0
   -3.0930  -12.0090  -20.1280 O   0  0  0  0  0  0  0  0  0  0  0  0
   -0.9550  -12.8710  -19.1590 H   0  0  0  0  0  0  0  0  0  0  0  0
    0.0530  -11.6100  -19.8120 H   0  0  0  0  0  0  0  0  0  0  0  0
  1  2  1  0  0  0  0
  1 20  1  0  0  0  0
  3  2  2  0  0  0  0
  4  3  1  0  0  0  0
  5  4  2  0  0  0  0
  5  6  1  0  0  0  0
  6  1  2  0  0  0  0
  7  5  1  0  0  0  0
  8  7  1  0  0  0  0
  8 11  1  0  0  0  0
  9  8  2  0  0  0  0
 10  7  1  0  0  0  0
 11 18  1  0  0  0  0
 12 11  2  0  0  0  0
 12 14  1  0  0  0  0
 13 12  1  0  0  0  0
 14 15  2  0  0  0  0
 15 17  1  0  0  0  0
 15 16  1  0  0  0  0
 18 19  1  0  0  0  0
 18 17  2  0  0  0  0
 20 27  1  0  0  0  0
 21 22  1  0  0  0  0
 21 34  1  0  0  0  0
 23 22  2  0  0  0  0
 24 23  1  0  0  0  0
 25 24  2  0  0  0  0
 25 31  1  0  0  0  0
 26 25  1  0  0  0  0
 27 32  1  0  0  0  0
 27 26  1  0  0  0  0
 28 26  2  0  0  0  0
 28 29  1  0  0  0  0
 29 30  2  0  0  0  0
 30 31  1  0  0  0  0
 31 21  2  0  0  0  0
 33 36  1  0  0  0  0
 34 35  2  0  0  0  0
 34 33  1  0  0  0  0
 37 33  1  0  0  0  0
M  END
>  <minimizedAffinity>
-10.3176975

$$$$
