
 OpenBabel10152418183D

 37 40  0  0  0  0  0  0  0  0999 V2000
    0.4280   -7.0710  -27.2310 C   0  0  0  0  0  0  0  0  0  0  0  0
    0.0810   -5.7750  -26.8310 C   0  0  0  0  0  3  0  0  0  0  0  0
    0.6800   -4.6650  -27.4240 C   0  0  0  0  0  3  0  0  0  0  0  0
    1.6550   -4.8300  -28.4100 C   0  0  0  0  0  3  0  0  0  0  0  0
    2.0490   -6.1080  -28.8040 C   0  0  0  0  0  0  0  0  0  0  0  0
    1.4130   -7.2160  -28.2270 C   0  0  0  0  0  3  0  0  0  0  0  0
    3.0210   -6.3760  -29.7850 N   0  0  0  0  0  0  0  0  0  0  0  0
    4.0870   -7.2430  -29.8250 C   0  0  0  0  0  0  0  0  0  0  0  0
    4.9140   -7.1640  -30.7320 O   0  0  0  0  0  0  0  0  0  0  0  0
    2.9540   -5.8400  -30.6440 H   0  0  0  0  0  0  0  0  0  0  0  0
    4.2170   -8.3500  -28.8800 C   0  0  0  0  0  0  0  0  0  0  0  0
    4.0010   -9.6560  -29.3080 C   0  0  0  0  0  0  0  0  0  0  0  0
    3.7570   -9.9240  -30.5990 F   0  0  0  0  0  0  0  0  0  0  0  0
    4.0750  -10.7180  -28.4110 C   0  0  0  0  0  3  0  0  0  0  0  0
    4.3490  -10.4610  -27.0680 C   0  0  0  0  0  0  0  0  0  0  0  0
    4.4470  -11.7660  -25.9530 Cl  0  0  0  0  0  0  0  0  0  0  0  0
    4.5450   -9.1550  -26.6220 C   0  0  0  0  0  3  0  0  0  0  0  0
    4.4680   -8.1040  -27.5320 C   0  0  0  0  0  0  0  0  0  0  0  0
    4.6350   -6.8520  -27.0820 F   0  0  0  0  0  0  0  0  0  0  0  0
   -0.1710   -8.3220  -26.6190 C   0  0  0  0  0  2  0  0  0  0  0  0
   -1.7960  -10.2850  -21.0670 C   0  0  0  0  0  0  0  0  0  0  0  0
   -2.0360   -9.0530  -20.4400 C   0  0  0  0  0  3  0  0  0  0  0  0
   -1.8520   -7.8820  -21.1530 C   0  0  0  0  0  3  0  0  0  0  0  0
   -1.4130   -7.9560  -22.4720 C   0  0  0  0  0  3  0  0  0  0  0  0
   -1.1520   -9.2050  -23.1020 C   0  0  0  0  0  0  0  0  0  0  0  0
   -0.6920   -9.3420  -24.4280 C   0  0  0  0  0  0  0  0  0  0  0  0
   -0.4360   -8.2090  -25.1960 N   0  0  0  0  0  0  0  0  0  0  0  0
   -0.5240  -10.5440  -25.0000 N   0  0  0  0  0  0  0  0  0  0  0  0
   -0.7720  -11.6140  -24.2420 C   0  0  0  0  0  3  0  0  0  0  0  0
   -1.1820  -11.6000  -22.9720 N   0  0  0  0  0  0  0  0  0  0  0  0
   -1.3660  -10.4000  -22.3940 C   0  0  0  0  0  0  0  0  0  0  0  0
    0.0540   -7.4640  -24.7200 H   0  0  0  0  0  0  0  0  0  0  0  0
   -0.8580  -12.0350  -19.7180 N   0  0  0  0  0  0  0  0  0  0  0  0
   -1.9930  -11.4910  -20.2480 C   0  0  0  0  0  0  0  0  0  0  0  0
   -3.0930  -12.0090  -20.1280 O   0  0  0  0  0  0  0  0  0  0  0  0
   -0.9550  -12.8710  -19.1590 H   0  0  0  0  0  0  0  0  0  0  0  0
    0.0530  -11.6100  -19.8120 H   0  0  0  0  0  0  0  0  0  0  0  0
  1  2  1  0  0  0  0
  1 20  1  0  0  0  0
  3  2  2  0  0  0  0
  4  3  1  0  0  0  0
  5  4  2  0  0  0  0
  5  6  1  0  0  0  0
  6  1  2  0  0  0  0
  7  5  1  0  0  0  0
  8  7  1  0  0  0  0
  8 11  1  0  0  0  0
  9  8  2  0  0  0  0
 10  7  1  0  0  0  0
 11 18  1  0  0  0  0
 12 11  2  0  0  0  0
 12 14  1  0  0  0  0
 13 12  1  0  0  0  0
 14 15  2  0  0  0  0
 15 17  1  0  0  0  0
 15 16  1  0  0  0  0
 18 19  1  0  0  0  0
 18 17  2  0  0  0  0
 20 27  1  0  0  0  0
 21 22  1  0  0  0  0
 21 34  1  0  0  0  0
 23 22  2  0  0  0  0
 24 23  1  0  0  0  0
 25 24  2  0  0  0  0
 25 31  1  0  0  0  0
 26 25  1  0  0  0  0
 27 32  1  0  0  0  0
 27 26  1  0  0  0  0
 28 26  2  0  0  0  0
 28 29  1  0  0  0  0
 29 30  2  0  0  0  0
 30 31  1  0  0  0  0
 31 21  2  0  0  0  0
 33 36  1  0  0  0  0
 34 35  2  0  0  0  0
 34 33  1  0  0  0  0
 37 33  1  0  0  0  0
M  END
>  <minimizedAffinity>
-10.3176975

$$$$

 OpenBabel10152418183D

 37 40  0  0  0  0  0  0  0  0999 V2000
    2.1460  -11.2980  -26.5670 C   0  0  0  0  0  0  0  0  0  0  0  0
    2.8970  -12.0380  -25.6470 C   0  0  0  0  0  3  0  0  0  0  0  0
    4.2840  -11.8990  -25.5880 C   0  0  0  0  0  3  0  0  0  0  0  0
    4.9460  -11.0380  -26.4660 C   0  0  0  0  0  3  0  0  0  0  0  0
    4.2290  -10.3160  -27.4180 C   0  0  0  0  0  0  0  0  0  0  0  0
    2.8320  -10.4350  -27.4420 C   0  0  0  0  0  3  0  0  0  0  0  0
    4.8040   -9.4260  -28.3430 N   0  0  0  0  0  0  0  0  0  0  0  0
    4.3630   -8.2470  -28.8970 C   0  0  0  0  0  0  0  0  0  0  0  0
    4.9740   -7.7390  -29.8360 O   0  0  0  0  0  0  0  0  0  0  0  0
    5.7240   -9.6720  -28.6950 H   0  0  0  0  0  0  0  0  0  0  0  0
    3.2430   -7.5000  -28.3300 C   0  0  0  0  0  0  0  0  0  0  0  0
    2.2970   -6.9240  -29.1710 C   0  0  0  0  0  0  0  0  0  0  0  0
    2.3500   -7.1140  -30.4970 F   0  0  0  0  0  0  0  0  0  0  0  0
    1.2500   -6.1690  -28.6500 C   0  0  0  0  0  3  0  0  0  0  0  0
    1.1660   -5.9780  -27.2710 C   0  0  0  0  0  0  0  0  0  0  0  0
   -0.1260   -5.0510  -26.6170 Cl  0  0  0  0  0  0  0  0  0  0  0  0
    2.1200   -6.5310  -26.4190 C   0  0  0  0  0  3  0  0  0  0  0  0
    3.1600   -7.2830  -26.9560 C   0  0  0  0  0  0  0  0  0  0  0  0
    4.0830   -7.7880  -26.1250 F   0  0  0  0  0  0  0  0  0  0  0  0
    0.6390  -11.4100  -26.6960 C   0  0  0  0  0  2  0  0  0  0  0  0
   -1.6740   -9.3490  -21.4310 C   0  0  0  0  0  0  0  0  0  0  0  0
   -1.8450  -10.5650  -20.7540 C   0  0  0  0  0  3  0  0  0  0  0  0
   -1.5000  -11.7470  -21.3850 C   0  0  0  0  0  3  0  0  0  0  0  0
   -1.0080  -11.7000  -22.6870 C   0  0  0  0  0  3  0  0  0  0  0  0
   -0.8520  -10.4670  -23.3790 C   0  0  0  0  0  0  0  0  0  0  0  0
   -0.3750  -10.3570  -24.7020 C   0  0  0  0  0  0  0  0  0  0  0  0
   -0.0520  -11.5040  -25.4230 N   0  0  0  0  0  0  0  0  0  0  0  0
   -0.1810   -9.1660  -25.2910 N   0  0  0  0  0  0  0  0  0  0  0  0
   -0.5030   -8.0830  -24.5820 C   0  0  0  0  0  3  0  0  0  0  0  0
   -0.9880   -8.0720  -23.3380 N   0  0  0  0  0  0  0  0  0  0  0  0
   -1.1720   -9.2600  -22.7350 C   0  0  0  0  0  0  0  0  0  0  0  0
   -0.7080  -12.2690  -25.3390 H   0  0  0  0  0  0  0  0  0  0  0  0
   -2.4570   -7.0810  -21.4980 N   0  0  0  0  0  0  0  0  0  0  0  0
   -2.0770   -8.1310  -20.7110 C   0  0  0  0  0  0  0  0  0  0  0  0
   -1.9920   -8.0500  -19.4960 O   0  0  0  0  0  0  0  0  0  0  0  0
   -2.7300   -6.2240  -21.0370 H   0  0  0  0  0  0  0  0  0  0  0  0
   -2.5320   -7.1430  -22.5030 H   0  0  0  0  0  0  0  0  0  0  0  0
  1  2  1  0  0  0  0
  2  3  2  0  0  0  0
  4  3  1  0  0  0  0
  5  4  2  0  0  0  0
  6  5  1  0  0  0  0
  6  1  2  0  0  0  0
  7  5  1  0  0  0  0
  8  7  1  0  0  0  0
  8 11  1  0  0  0  0
  9  8  2  0  0  0  0
 10  7  1  0  0  0  0
 11 18  1  0  0  0  0
 12 14  1  0  0  0  0
 12 11  2  0  0  0  0
 13 12  1  0  0  0  0
 14 15  2  0  0  0  0
 15 16  1  0  0  0  0
 15 17  1  0  0  0  0
 18 17  2  0  0  0  0
 18 19  1  0  0  0  0
 20  1  1  0  0  0  0
 20 27  1  0  0  0  0
 21 22  1  0  0  0  0
 21 34  1  0  0  0  0
 23 22  2  0  0  0  0
 24 23  1  0  0  0  0
 25 31  1  0  0  0  0
 25 24  2  0  0  0  0
 26 25  1  0  0  0  0
 27 32  1  0  0  0  0
 27 26  1  0  0  0  0
 28 26  2  0  0  0  0
 28 29  1  0  0  0  0
 29 30  2  0  0  0  0
 30 31  1  0  0  0  0
 31 21  2  0  0  0  0
 33 36  1  0  0  0  0
 33 34  1  0  0  0  0
 34 35  2  0  0  0  0
 37 33  1  0  0  0  0
M  END
>  <minimizedAffinity>
-7.47050428

$$$$
