
 OpenBabel11232418583D

 36 40  0  0  1  0  0  0  0  0999 V2000
   32.4080   43.6000   17.5110 C   0  0  0  0  0  0  0  0  0  0  0  0
   33.0500   42.5510   18.1280 C   0  0  0  0  0  3  0  0  0  0  0  0
   34.3000   43.0220   18.4470 N   0  0  0  0  0  0  0  0  0  0  0  0
   34.3480   44.3560   18.1000 C   0  0  0  0  0  0  0  0  0  0  0  0
   33.2480   44.6830   17.4550 N   0  0  0  0  0  0  0  0  0  0  0  0
   27.8150   41.5910   17.1070 C   0  0  0  0  0  1  0  0  0  0  0  0
   28.8230   42.6420   16.7500 C   0  0  0  0  0  0  0  0  0  0  0  0
   30.1260   42.6010   17.2730 C   0  0  0  0  0  3  0  0  0  0  0  0
   31.0550   43.6140   16.9770 C   0  0  0  0  0  0  0  0  0  0  0  0
   30.6530   44.6820   16.1600 C   0  0  0  0  0  3  0  0  0  0  0  0
   29.3560   44.7350   15.6440 C   0  0  0  0  0  3  0  0  0  0  0  0
   28.4550   43.7210   15.9450 C   0  0  0  0  0  0  0  0  0  0  0  0
   27.2110   43.7950   15.4530 F   0  0  0  0  0  0  0  0  0  0  0  0
   35.4870   45.2980   18.3980 C   0  0  2  0  0  3  0  0  0  0  0  0
   35.4280   46.5390   17.4950 C   0  0  0  0  0  2  0  0  0  0  0  0
   35.9730   46.2720   16.0910 C   0  0  0  0  0  2  0  0  0  0  0  0
   37.2880   45.6440   16.1520 N   0  0  0  0  0  0  0  0  0  0  0  0
   37.3540   44.3850   16.8890 C   0  0  0  0  0  2  0  0  0  0  0  0
   36.8560   44.5980   18.3220 C   0  0  0  0  0  2  0  0  0  0  0  0
   38.4130   46.4650   16.1730 C   0  0  0  0  0  0  0  0  0  0  0  0
   39.1700   46.4350   17.2910 N   0  0  0  0  0  0  0  0  0  0  0  0
   40.2710   47.1990   17.3030 C   0  0  0  0  0  3  0  0  0  0  0  0
   40.6980   47.9890   16.3140 N   0  0  0  0  0  0  0  0  0  0  0  0
   39.9190   48.0430   15.2240 C   0  0  0  0  0  0  0  0  0  0  0  0
   40.3980   48.8570   14.2100 N   0  0  0  0  0  0  0  0  0  0  0  0
   38.7570   47.2880   15.0970 C   0  0  0  0  0  0  0  0  0  0  0  0
   37.6520   47.4890   13.5590 Br  0  0  0  0  0  0  0  0  0  0  0  0
   41.2450   49.3530   14.4540 H   0  0  0  0  0  0  0  0  0  0  0  0
   39.7180   49.3420   13.6400 H   0  0  0  0  0  0  0  0  0  0  0  0
   35.3340   42.2210   19.0650 C   0  0  0  0  0  2  0  0  0  0  0  0
   35.4680   42.3950   20.5910 C   0  0  0  0  0  2  0  0  0  0  0  0
   36.8070   42.4280   21.2470 N   0  0  0  0  0  4  0  0  0  0  0  0
   37.2070   43.7150   21.8440 C   0  0  0  0  0  2  0  0  0  0  0  0
   37.8300   42.9140   22.9980 C   0  0  0  0  0  2  0  0  0  0  0  0
   36.9110   41.7650   22.5540 C   0  0  0  0  0  2  0  0  0  0  0  0
   37.5310   42.0910   20.5940 H   0  0  0  0  0  0  0  0  0  0  0  0
  1  2  2  0  0  0  0
  2  3  1  0  0  0  0
  3 30  1  0  0  0  0
  4  3  1  0  0  0  0
  5  1  1  0  0  0  0
  5  4  2  0  0  0  0
  7  6  1  0  0  0  0
  7  8  1  0  0  0  0
  9  8  2  0  0  0  0
  9  1  1  0  0  0  0
 10  9  1  0  0  0  0
 11 12  1  0  0  0  0
 11 10  2  0  0  0  0
 12  7  2  0  0  0  0
 13 12  1  0  0  0  0
 14  4  1  6  0  0  0
 15 14  1  0  0  0  0
 16 17  1  0  0  0  0
 16 15  1  0  0  0  0
 17 20  1  0  0  0  0
 17 18  1  0  0  0  0
 18 19  1  0  0  0  0
 19 14  1  0  0  0  0
 20 21  1  0  0  0  0
 21 22  2  0  0  0  0
 23 22  1  0  0  0  0
 24 23  2  0  0  0  0
 25 28  1  0  0  0  0
 25 24  1  0  0  0  0
 26 24  1  0  0  0  0
 26 20  2  0  0  0  0
 27 26  1  0  0  0  0
 29 25  1  0  0  0  0
 30 31  1  0  0  0  0
 31 32  1  0  0  0  0
 32 33  1  0  0  0  0
 32 35  1  0  0  0  0
 33 34  1  0  0  0  0
 35 34  1  0  0  0  0
 36 32  1  0  0  0  0
M  END
>  <minimizedAffinity>
-9.14095688

$$$$
