
 OpenBabel11232418583D

 36 40  0  0  1  0  0  0  0  0999 V2000
   37.7430   45.1630   18.1160 C   0  0  0  0  0  0  0  0  0  0  0  0
   38.0750   44.7200   19.3760 C   0  0  0  0  0  3  0  0  0  0  0  0
   37.0520   43.8840   19.7530 N   0  0  0  0  0  0  0  0  0  0  0  0
   36.1850   43.7750   18.6860 C   0  0  0  0  0  0  0  0  0  0  0  0
   36.5460   44.6120   17.7370 N   0  0  0  0  0  0  0  0  0  0  0  0
   38.2430   47.8910   13.9210 C   0  0  0  0  0  1  0  0  0  0  0  0
   38.7710   47.3950   15.2340 C   0  0  0  0  0  0  0  0  0  0  0  0
   38.0250   46.5050   16.0230 C   0  0  0  0  0  3  0  0  0  0  0  0
   38.5000   46.0780   17.2750 C   0  0  0  0  0  0  0  0  0  0  0  0
   39.7300   46.5720   17.7350 C   0  0  0  0  0  3  0  0  0  0  0  0
   40.4740   47.4650   16.9610 C   0  0  0  0  0  3  0  0  0  0  0  0
   39.9890   47.8700   15.7240 C   0  0  0  0  0  0  0  0  0  0  0  0
   40.7080   48.7380   14.9990 F   0  0  0  0  0  0  0  0  0  0  0  0
   34.9950   42.8510   18.6170 C   0  0  2  0  0  3  0  0  0  0  0  0
   34.6490   42.5040   17.1610 C   0  0  0  0  0  2  0  0  0  0  0  0
   33.8680   43.6170   16.4600 C   0  0  0  0  0  2  0  0  0  0  0  0
   32.7210   44.0340   17.2600 N   0  0  0  0  0  0  0  0  0  0  0  0
   33.0270   44.5020   18.6090 C   0  0  0  0  0  2  0  0  0  0  0  0
   33.7780   43.4110   19.3780 C   0  0  0  0  0  2  0  0  0  0  0  0
   31.5050   43.3840   17.0630 C   0  0  0  0  0  0  0  0  0  0  0  0
   31.3780   42.1500   17.5960 N   0  0  0  0  0  0  0  0  0  0  0  0
   30.2000   41.5330   17.4360 C   0  0  0  0  0  3  0  0  0  0  0  0
   29.1310   42.0210   16.8010 N   0  0  0  0  0  0  0  0  0  0  0  0
   29.2780   43.2300   16.2410 C   0  0  0  0  0  0  0  0  0  0  0  0
   28.1470   43.7150   15.6050 N   0  0  0  0  0  0  0  0  0  0  0  0
   30.4540   43.9650   16.3480 C   0  0  0  0  0  0  0  0  0  0  0  0
   30.6220   45.6340   15.4440 Br  0  0  0  0  0  0  0  0  0  0  0  0
   27.3750   43.0610   15.5950 H   0  0  0  0  0  0  0  0  0  0  0  0
   28.2820   44.2920   14.7860 H   0  0  0  0  0  0  0  0  0  0  0  0
   36.9690   43.2370   21.0440 C   0  0  0  0  0  2  0  0  0  0  0  0
   37.6420   44.0030   22.2000 C   0  0  0  0  0  2  0  0  0  0  0  0
   37.8440   43.3640   23.5320 N   0  0  0  0  0  4  0  0  0  0  0  0
   37.3540   44.1200   24.6980 C   0  0  0  0  0  2  0  0  0  0  0  0
   36.9020   42.7790   25.2980 C   0  0  0  0  0  2  0  0  0  0  0  0
   36.9550   42.2400   23.8600 C   0  0  0  0  0  2  0  0  0  0  0  0
   38.8370   43.1090   23.6570 H   0  0  0  0  0  0  0  0  0  0  0  0
  1  2  2  0  0  0  0
  2  3  1  0  0  0  0
  3 30  1  0  0  0  0
  4  3  1  0  0  0  0
  5  1  1  0  0  0  0
  5  4  2  0  0  0  0
  6  7  1  0  0  0  0
  7 12  2  0  0  0  0
  7  8  1  0  0  0  0
  8  9  2  0  0  0  0
  9 10  1  0  0  0  0
  9  1  1  0  0  0  0
 11 10  2  0  0  0  0
 12 11  1  0  0  0  0
 13 12  1  0  0  0  0
 14  4  1  6  0  0  0
 14 19  1  0  0  0  0
 15 14  1  0  0  0  0
 16 15  1  0  0  0  0
 16 17  1  0  0  0  0
 17 18  1  0  0  0  0
 18 19  1  0  0  0  0
 20 17  1  0  0  0  0
 20 21  1  0  0  0  0
 22 21  2  0  0  0  0
 23 22  1  0  0  0  0
 24 26  1  0  0  0  0
 24 23  2  0  0  0  0
 25 24  1  0  0  0  0
 26 20  2  0  0  0  0
 27 26  1  0  0  0  0
 28 25  1  0  0  0  0
 29 25  1  0  0  0  0
 30 31  1  0  0  0  0
 31 32  1  0  0  0  0
 32 36  1  0  0  0  0
 32 35  1  0  0  0  0
 32 33  1  0  0  0  0
 33 34  1  0  0  0  0
 35 34  1  0  0  0  0
M  END
>  <minimizedAffinity>
-11.3054962

$$$$
