
 OpenBabel11232418583D

 36 40  0  0  1  0  0  0  0  0999 V2000
   37.7430   45.1630   18.1160 C   0  0  0  0  0  0  0  0  0  0  0  0
   38.0750   44.7200   19.3760 C   0  0  0  0  0  3  0  0  0  0  0  0
   37.0520   43.8840   19.7530 N   0  0  0  0  0  0  0  0  0  0  0  0
   36.1850   43.7750   18.6860 C   0  0  0  0  0  0  0  0  0  0  0  0
   36.5460   44.6120   17.7370 N   0  0  0  0  0  0  0  0  0  0  0  0
   38.2430   47.8910   13.9210 C   0  0  0  0  0  1  0  0  0  0  0  0
   38.7710   47.3950   15.2340 C   0  0  0  0  0  0  0  0  0  0  0  0
   38.0250   46.5050   16.0230 C   0  0  0  0  0  3  0  0  0  0  0  0
   38.5000   46.0780   17.2750 C   0  0  0  0  0  0  0  0  0  0  0  0
   39.7300   46.5720   17.7350 C   0  0  0  0  0  3  0  0  0  0  0  0
   40.4740   47.4650   16.9610 C   0  0  0  0  0  3  0  0  0  0  0  0
   39.9890   47.8700   15.7240 C   0  0  0  0  0  0  0  0  0  0  0  0
   40.7080   48.7380   14.9990 F   0  0  0  0  0  0  0  0  0  0  0  0
   34.9950   42.8510   18.6170 C   0  0  2  0  0  3  0  0  0  0  0  0
   34.6490   42.5040   17.1610 C   0  0  0  0  0  2  0  0  0  0  0  0
   33.8680   43.6170   16.4600 C   0  0  0  0  0  2  0  0  0  0  0  0
   32.7210   44.0340   17.2600 N   0  0  0  0  0  0  0  0  0  0  0  0
   33.0270   44.5020   18.6090 C   0  0  0  0  0  2  0  0  0  0  0  0
   33.7780   43.4110   19.3780 C   0  0  0  0  0  2  0  0  0  0  0  0
   31.5050   43.3840   17.0630 C   0  0  0  0  0  0  0  0  0  0  0  0
   31.3780   42.1500   17.5960 N   0  0  0  0  0  0  0  0  0  0  0  0
   30.2000   41.5330   17.4360 C   0  0  0  0  0  3  0  0  0  0  0  0
   29.1310   42.0210   16.8010 N   0  0  0  0  0  0  0  0  0  0  0  0
   29.2780   43.2300   16.2410 C   0  0  0  0  0  0  0  0  0  0  0  0
   28.1470   43.7150   15.6050 N   0  0  0  0  0  0  0  0  0  0  0  0
   30.4540   43.9650   16.3480 C   0  0  0  0  0  0  0  0  0  0  0  0
   30.6220   45.6340   15.4440 Br  0  0  0  0  0  0  0  0  0  0  0  0
   27.3750   43.0610   15.5950 H   0  0  0  0  0  0  0  0  0  0  0  0
   28.2820   44.2920   14.7860 H   0  0  0  0  0  0  0  0  0  0  0  0
   36.9690   43.2370   21.0440 C   0  0  0  0  0  2  0  0  0  0  0  0
   37.6420   44.0030   22.2000 C   0  0  0  0  0  2  0  0  0  0  0  0
   37.8440   43.3640   23.5320 N   0  0  0  0  0  4  0  0  0  0  0  0
   37.3540   44.1200   24.6980 C   0  0  0  0  0  2  0  0  0  0  0  0
   36.9020   42.7790   25.2980 C   0  0  0  0  0  2  0  0  0  0  0  0
   36.9550   42.2400   23.8600 C   0  0  0  0  0  2  0  0  0  0  0  0
   38.8370   43.1090   23.6570 H   0  0  0  0  0  0  0  0  0  0  0  0
  1  2  2  0  0  0  0
  2  3  1  0  0  0  0
  3 30  1  0  0  0  0
  4  3  1  0  0  0  0
  5  1  1  0  0  0  0
  5  4  2  0  0  0  0
  6  7  1  0  0  0  0
  7 12  2  0  0  0  0
  7  8  1  0  0  0  0
  8  9  2  0  0  0  0
  9 10  1  0  0  0  0
  9  1  1  0  0  0  0
 11 10  2  0  0  0  0
 12 11  1  0  0  0  0
 13 12  1  0  0  0  0
 14  4  1  6  0  0  0
 14 19  1  0  0  0  0
 15 14  1  0  0  0  0
 16 15  1  0  0  0  0
 16 17  1  0  0  0  0
 17 18  1  0  0  0  0
 18 19  1  0  0  0  0
 20 17  1  0  0  0  0
 20 21  1  0  0  0  0
 22 21  2  0  0  0  0
 23 22  1  0  0  0  0
 24 26  1  0  0  0  0
 24 23  2  0  0  0  0
 25 24  1  0  0  0  0
 26 20  2  0  0  0  0
 27 26  1  0  0  0  0
 28 25  1  0  0  0  0
 29 25  1  0  0  0  0
 30 31  1  0  0  0  0
 31 32  1  0  0  0  0
 32 36  1  0  0  0  0
 32 35  1  0  0  0  0
 32 33  1  0  0  0  0
 33 34  1  0  0  0  0
 35 34  1  0  0  0  0
M  END
>  <minimizedAffinity>
-11.3054962

$$$$

 OpenBabel11232418583D

 36 40  0  0  1  0  0  0  0  0999 V2000
   37.6800   44.5220   19.5080 C   0  0  0  0  0  0  0  0  0  0  0  0
   38.4300   45.0060   18.4610 C   0  0  0  0  0  3  0  0  0  0  0  0
   37.5510   45.1530   17.4160 N   0  0  0  0  0  0  0  0  0  0  0  0
   36.2900   44.8450   17.8810 C   0  0  0  0  0  0  0  0  0  0  0  0
   36.3750   44.3770   19.1090 N   0  0  0  0  0  0  0  0  0  0  0  0
   36.9990   42.3420   23.9880 C   0  0  0  0  0  1  0  0  0  0  0  0
   37.8240   43.1570   23.0380 C   0  0  0  0  0  0  0  0  0  0  0  0
   37.3500   43.4690   21.7530 C   0  0  0  0  0  3  0  0  0  0  0  0
   38.1440   44.1920   20.8470 C   0  0  0  0  0  0  0  0  0  0  0  0
   39.4330   44.5830   21.2400 C   0  0  0  0  0  3  0  0  0  0  0  0
   39.9160   44.2690   22.5120 C   0  0  0  0  0  3  0  0  0  0  0  0
   39.1120   43.5570   23.3950 C   0  0  0  0  0  0  0  0  0  0  0  0
   39.5960   43.2510   24.6070 F   0  0  0  0  0  0  0  0  0  0  0  0
   35.0070   45.0020   17.1040 C   0  0  2  0  0  3  0  0  0  0  0  0
   33.8600   45.4560   18.0190 C   0  0  0  0  0  2  0  0  0  0  0  0
   33.2650   44.3050   18.8320 C   0  0  0  0  0  2  0  0  0  0  0  0
   32.9270   43.1770   17.9720 N   0  0  0  0  0  0  0  0  0  0  0  0
   34.0290   42.6280   17.1870 C   0  0  0  0  0  2  0  0  0  0  0  0
   34.6440   43.7300   16.3170 C   0  0  0  0  0  2  0  0  0  0  0  0
   31.6510   43.1270   17.4160 C   0  0  0  0  0  0  0  0  0  0  0  0
   31.1730   44.2710   16.8790 N   0  0  0  0  0  0  0  0  0  0  0  0
   29.9590   44.2200   16.3150 C   0  0  0  0  0  3  0  0  0  0  0  0
   29.1710   43.1450   16.2270 N   0  0  0  0  0  0  0  0  0  0  0  0
   29.6360   42.0240   16.7970 C   0  0  0  0  0  0  0  0  0  0  0  0
   28.8030   40.9240   16.6740 N   0  0  0  0  0  0  0  0  0  0  0  0
   30.8860   41.9580   17.4050 C   0  0  0  0  0  0  0  0  0  0  0  0
   31.4380   40.3580   18.2780 Br  0  0  0  0  0  0  0  0  0  0  0  0
   27.9220   41.1300   16.2210 H   0  0  0  0  0  0  0  0  0  0  0  0
   28.7950   40.2570   17.4340 H   0  0  0  0  0  0  0  0  0  0  0  0
   37.9340   45.5880   16.0900 C   0  0  0  0  0  2  0  0  0  0  0  0
   37.6980   47.0840   15.8030 C   0  0  0  0  0  2  0  0  0  0  0  0
   36.8990   47.5240   14.6240 N   0  0  0  0  0  4  0  0  0  0  0  0
   37.6320   47.6460   13.3500 C   0  0  0  0  0  2  0  0  0  0  0  0
   36.3880   47.0730   12.6530 C   0  0  0  0  0  2  0  0  0  0  0  0
   35.9980   46.5230   14.0340 C   0  0  0  0  0  2  0  0  0  0  0  0
   36.4000   48.4010   14.8390 H   0  0  0  0  0  0  0  0  0  0  0  0
  1  9  1  0  0  0  0
  2  1  2  0  0  0  0
  3  4  1  0  0  0  0
  3  2  1  0  0  0  0
  4  5  2  0  0  0  0
  5  1  1  0  0  0  0
  7 12  1  0  0  0  0
  7  6  1  0  0  0  0
  8  7  2  0  0  0  0
  9 10  2  0  0  0  0
  9  8  1  0  0  0  0
 10 11  1  0  0  0  0
 11 12  2  0  0  0  0
 12 13  1  0  0  0  0
 14  4  1  1  0  0  0
 14 15  1  0  0  0  0
 15 16  1  0  0  0  0
 17 16  1  0  0  0  0
 18 17  1  0  0  0  0
 19 14  1  0  0  0  0
 19 18  1  0  0  0  0
 20 17  1  0  0  0  0
 21 20  2  0  0  0  0
 22 21  1  0  0  0  0
 23 22  2  0  0  0  0
 23 24  1  0  0  0  0
 24 26  2  0  0  0  0
 25 24  1  0  0  0  0
 25 29  1  0  0  0  0
 26 20  1  0  0  0  0
 26 27  1  0  0  0  0
 28 25  1  0  0  0  0
 30  3  1  0  0  0  0
 31 30  1  0  0  0  0
 32 36  1  0  0  0  0
 32 31  1  0  0  0  0
 33 32  1  0  0  0  0
 34 33  1  0  0  0  0
 34 35  1  0  0  0  0
 35 32  1  0  0  0  0
M  END
>  <minimizedAffinity>
-10.7953777

$$$$

 OpenBabel11232418583D

 36 40  0  0  1  0  0  0  0  0999 V2000
   38.4830   45.1290   18.7260 C   0  0  0  0  0  0  0  0  0  0  0  0
   37.2780   44.4670   18.7780 C   0  0  0  0  0  3  0  0  0  0  0  0
   37.2710   43.8120   19.9860 N   0  0  0  0  0  0  0  0  0  0  0  0
   38.4190   44.1660   20.6620 C   0  0  0  0  0  0  0  0  0  0  0  0
   39.1930   44.8810   19.8730 N   0  0  0  0  0  0  0  0  0  0  0  0
   38.0780   47.0440   14.0930 C   0  0  0  0  0  1  0  0  0  0  0  0
   38.8150   46.8930   15.3900 C   0  0  0  0  0  0  0  0  0  0  0  0
   38.3160   46.0700   16.4140 C   0  0  0  0  0  3  0  0  0  0  0  0
   38.9830   45.9670   17.6470 C   0  0  0  0  0  0  0  0  0  0  0  0
   40.1520   46.7160   17.8470 C   0  0  0  0  0  3  0  0  0  0  0  0
   40.6500   47.5440   16.8380 C   0  0  0  0  0  3  0  0  0  0  0  0
   39.9780   47.6280   15.6250 C   0  0  0  0  0  0  0  0  0  0  0  0
   40.4610   48.4370   14.6730 F   0  0  0  0  0  0  0  0  0  0  0  0
   38.7520   43.7830   22.0820 C   0  0  2  0  0  3  0  0  0  0  0  0
   38.0900   44.7430   23.0830 C   0  0  0  0  0  2  0  0  0  0  0  0
   38.8520   46.0620   23.2250 C   0  0  0  0  0  2  0  0  0  0  0  0
   40.2690   45.8230   23.4790 N   0  0  0  0  0  0  0  0  0  0  0  0
   40.9660   45.0250   22.4740 C   0  0  0  0  0  2  0  0  0  0  0  0
   40.2710   43.6700   22.3140 C   0  0  0  0  0  2  0  0  0  0  0  0
   40.6940   45.7110   24.8010 C   0  0  0  0  0  0  0  0  0  0  0  0
   40.5830   44.4950   25.3780 N   0  0  0  0  0  0  0  0  0  0  0  0
   41.0200   44.3760   26.6380 C   0  0  0  0  0  3  0  0  0  0  0  0
   41.5600   45.3430   27.3850 N   0  0  0  0  0  0  0  0  0  0  0  0
   41.6310   46.5560   26.8180 C   0  0  0  0  0  0  0  0  0  0  0  0
   42.2110   47.5320   27.6100 N   0  0  0  0  0  0  0  0  0  0  0  0
   41.2140   46.7960   25.5120 C   0  0  0  0  0  0  0  0  0  0  0  0
   41.2550   48.5650   24.8080 Br  0  0  0  0  0  0  0  0  0  0  0  0
   42.4500   47.2120   28.5400 H   0  0  0  0  0  0  0  0  0  0  0  0
   41.8660   48.4780   27.5150 H   0  0  0  0  0  0  0  0  0  0  0  0
   36.2040   42.9410   20.4280 C   0  0  0  0  0  2  0  0  0  0  0  0
   35.1630   42.5860   19.3480 C   0  0  0  0  0  2  0  0  0  0  0  0
   33.8120   43.2150   19.3460 N   0  0  0  0  0  4  0  0  0  0  0  0
   33.5870   44.2690   18.3400 C   0  0  0  0  0  2  0  0  0  0  0  0
   32.1680   43.7060   18.1600 C   0  0  0  0  0  2  0  0  0  0  0  0
   32.7180   42.4120   18.7800 C   0  0  0  0  0  2  0  0  0  0  0  0
   33.5780   43.5600   20.2900 H   0  0  0  0  0  0  0  0  0  0  0  0
  1  2  2  0  0  0  0
  1  5  1  0  0  0  0
  2  3  1  0  0  0  0
  3 30  1  0  0  0  0
  3  4  1  0  0  0  0
  5  4  2  0  0  0  0
  6  7  1  0  0  0  0
  7 12  2  0  0  0  0
  7  8  1  0  0  0  0
  8  9  2  0  0  0  0
  9 10  1  0  0  0  0
  9  1  1  0  0  0  0
 11 10  2  0  0  0  0
 12 11  1  0  0  0  0
 13 12  1  0  0  0  0
 14  4  1  6  0  0  0
 14 19  1  0  0  0  0
 14 15  1  0  0  0  0
 15 16  1  0  0  0  0
 16 17  1  0  0  0  0
 17 20  1  0  0  0  0
 18 17  1  0  0  0  0
 19 18  1  0  0  0  0
 20 21  2  0  0  0  0
 20 26  1  0  0  0  0
 21 22  1  0  0  0  0
 22 23  2  0  0  0  0
 24 23  1  0  0  0  0
 24 25  1  0  0  0  0
 25 28  1  0  0  0  0
 26 24  2  0  0  0  0
 27 26  1  0  0  0  0
 29 25  1  0  0  0  0
 31 30  1  0  0  0  0
 32 31  1  0  0  0  0
 32 36  1  0  0  0  0
 33 32  1  0  0  0  0
 34 33  1  0  0  0  0
 34 35  1  0  0  0  0
 35 32  1  0  0  0  0
M  END
>  <minimizedAffinity>
-9.65886211

$$$$

 OpenBabel11232418583D

 36 40  0  0  1  0  0  0  0  0999 V2000
   37.4610   44.4770   18.8590 C   0  0  0  0  0  0  0  0  0  0  0  0
   38.5210   44.8920   18.0860 C   0  0  0  0  0  3  0  0  0  0  0  0
   39.5150   45.2260   18.9720 N   0  0  0  0  0  0  0  0  0  0  0  0
   39.0670   44.9210   20.2400 C   0  0  0  0  0  0  0  0  0  0  0  0
   37.8030   44.5590   20.1860 N   0  0  0  0  0  0  0  0  0  0  0  0
   32.5720   43.6070   19.6530 C   0  0  0  0  0  1  0  0  0  0  0  0
   33.7850   43.5710   18.7720 C   0  0  0  0  0  0  0  0  0  0  0  0
   35.0330   44.0100   19.2420 C   0  0  0  0  0  3  0  0  0  0  0  0
   36.1590   44.0200   18.4000 C   0  0  0  0  0  0  0  0  0  0  0  0
   36.0110   43.6010   17.0690 C   0  0  0  0  0  3  0  0  0  0  0  0
   34.7710   43.1720   16.5910 C   0  0  0  0  0  3  0  0  0  0  0  0
   33.6720   43.1640   17.4410 C   0  0  0  0  0  0  0  0  0  0  0  0
   32.4860   42.7640   16.9630 F   0  0  0  0  0  0  0  0  0  0  0  0
   39.8890   45.0020   21.5020 C   0  0  2  0  0  3  0  0  0  0  0  0
   40.2600   43.6000   22.0100 C   0  0  0  0  0  2  0  0  0  0  0  0
   39.1120   42.9240   22.7620 C   0  0  0  0  0  2  0  0  0  0  0  0
   38.5700   43.8050   23.7910 N   0  0  0  0  0  0  0  0  0  0  0  0
   38.0790   45.0980   23.3220 C   0  0  0  0  0  2  0  0  0  0  0  0
   39.2000   45.8440   22.5920 C   0  0  0  0  0  2  0  0  0  0  0  0
   39.1220   43.7490   25.0680 C   0  0  0  0  0  0  0  0  0  0  0  0
   40.3830   44.2100   25.2100 N   0  0  0  0  0  0  0  0  0  0  0  0
   40.9070   44.1870   26.4430 C   0  0  0  0  0  3  0  0  0  0  0  0
   40.3030   43.7540   27.5520 N   0  0  0  0  0  0  0  0  0  0  0  0
   39.0660   43.2610   27.3960 C   0  0  0  0  0  0  0  0  0  0  0  0
   38.4590   42.8370   28.5670 N   0  0  0  0  0  0  0  0  0  0  0  0
   38.4190   43.2410   26.1640 C   0  0  0  0  0  0  0  0  0  0  0  0
   36.6990   42.4380   26.0020 Br  0  0  0  0  0  0  0  0  0  0  0  0
   39.0590   42.8990   29.3800 H   0  0  0  0  0  0  0  0  0  0  0  0
   37.8300   42.0480   28.5080 H   0  0  0  0  0  0  0  0  0  0  0  0
   40.7980   45.7690   18.5830 C   0  0  0  0  0  2  0  0  0  0  0  0
   40.7440   47.1710   17.9440 C   0  0  0  0  0  2  0  0  0  0  0  0
   40.8270   47.3470   16.4660 N   0  0  0  0  0  4  0  0  0  0  0  0
   39.6040   47.0330   15.7040 C   0  0  0  0  0  2  0  0  0  0  0  0
   39.9300   48.2380   14.8070 C   0  0  0  0  0  2  0  0  0  0  0  0
   40.8060   48.7310   15.9690 C   0  0  0  0  0  2  0  0  0  0  0  0
   41.6320   46.8230   16.0900 H   0  0  0  0  0  0  0  0  0  0  0  0
  1  5  1  0  0  0  0
  2  1  2  0  0  0  0
  2  3  1  0  0  0  0
  3  4  1  0  0  0  0
  5  4  2  0  0  0  0
  7  8  1  0  0  0  0
  7  6  1  0  0  0  0
  9  1  1  0  0  0  0
  9  8  2  0  0  0  0
 10  9  1  0  0  0  0
 11 10  2  0  0  0  0
 11 12  1  0  0  0  0
 12  7  2  0  0  0  0
 13 12  1  0  0  0  0
 14  4  1  6  0  0  0
 14 15  1  0  0  0  0
 14 19  1  0  0  0  0
 15 16  1  0  0  0  0
 16 17  1  0  0  0  0
 17 20  1  0  0  0  0
 18 17  1  0  0  0  0
 19 18  1  0  0  0  0
 20 21  2  0  0  0  0
 20 26  1  0  0  0  0
 21 22  1  0  0  0  0
 22 23  2  0  0  0  0
 24 23  1  0  0  0  0
 24 25  1  0  0  0  0
 25 28  1  0  0  0  0
 26 24  2  0  0  0  0
 27 26  1  0  0  0  0
 29 25  1  0  0  0  0
 30  3  1  0  0  0  0
 31 30  1  0  0  0  0
 32 31  1  0  0  0  0
 33 32  1  0  0  0  0
 34 33  1  0  0  0  0
 34 35  1  0  0  0  0
 35 32  1  0  0  0  0
 36 32  1  0  0  0  0
M  END
>  <minimizedAffinity>
-9.31837654

$$$$

 OpenBabel11232418583D

 36 40  0  0  1  0  0  0  0  0999 V2000
   32.4080   43.6000   17.5110 C   0  0  0  0  0  0  0  0  0  0  0  0
   33.0500   42.5510   18.1280 C   0  0  0  0  0  3  0  0  0  0  0  0
   34.3000   43.0220   18.4470 N   0  0  0  0  0  0  0  0  0  0  0  0
   34.3480   44.3560   18.1000 C   0  0  0  0  0  0  0  0  0  0  0  0
   33.2480   44.6830   17.4550 N   0  0  0  0  0  0  0  0  0  0  0  0
   27.8150   41.5910   17.1070 C   0  0  0  0  0  1  0  0  0  0  0  0
   28.8230   42.6420   16.7500 C   0  0  0  0  0  0  0  0  0  0  0  0
   30.1260   42.6010   17.2730 C   0  0  0  0  0  3  0  0  0  0  0  0
   31.0550   43.6140   16.9770 C   0  0  0  0  0  0  0  0  0  0  0  0
   30.6530   44.6820   16.1600 C   0  0  0  0  0  3  0  0  0  0  0  0
   29.3560   44.7350   15.6440 C   0  0  0  0  0  3  0  0  0  0  0  0
   28.4550   43.7210   15.9450 C   0  0  0  0  0  0  0  0  0  0  0  0
   27.2110   43.7950   15.4530 F   0  0  0  0  0  0  0  0  0  0  0  0
   35.4870   45.2980   18.3980 C   0  0  2  0  0  3  0  0  0  0  0  0
   35.4280   46.5390   17.4950 C   0  0  0  0  0  2  0  0  0  0  0  0
   35.9730   46.2720   16.0910 C   0  0  0  0  0  2  0  0  0  0  0  0
   37.2880   45.6440   16.1520 N   0  0  0  0  0  0  0  0  0  0  0  0
   37.3540   44.3850   16.8890 C   0  0  0  0  0  2  0  0  0  0  0  0
   36.8560   44.5980   18.3220 C   0  0  0  0  0  2  0  0  0  0  0  0
   38.4130   46.4650   16.1730 C   0  0  0  0  0  0  0  0  0  0  0  0
   39.1700   46.4350   17.2910 N   0  0  0  0  0  0  0  0  0  0  0  0
   40.2710   47.1990   17.3030 C   0  0  0  0  0  3  0  0  0  0  0  0
   40.6980   47.9890   16.3140 N   0  0  0  0  0  0  0  0  0  0  0  0
   39.9190   48.0430   15.2240 C   0  0  0  0  0  0  0  0  0  0  0  0
   40.3980   48.8570   14.2100 N   0  0  0  0  0  0  0  0  0  0  0  0
   38.7570   47.2880   15.0970 C   0  0  0  0  0  0  0  0  0  0  0  0
   37.6520   47.4890   13.5590 Br  0  0  0  0  0  0  0  0  0  0  0  0
   41.2450   49.3530   14.4540 H   0  0  0  0  0  0  0  0  0  0  0  0
   39.7180   49.3420   13.6400 H   0  0  0  0  0  0  0  0  0  0  0  0
   35.3340   42.2210   19.0650 C   0  0  0  0  0  2  0  0  0  0  0  0
   35.4680   42.3950   20.5910 C   0  0  0  0  0  2  0  0  0  0  0  0
   36.8070   42.4280   21.2470 N   0  0  0  0  0  4  0  0  0  0  0  0
   37.2070   43.7150   21.8440 C   0  0  0  0  0  2  0  0  0  0  0  0
   37.8300   42.9140   22.9980 C   0  0  0  0  0  2  0  0  0  0  0  0
   36.9110   41.7650   22.5540 C   0  0  0  0  0  2  0  0  0  0  0  0
   37.5310   42.0910   20.5940 H   0  0  0  0  0  0  0  0  0  0  0  0
  1  2  2  0  0  0  0
  2  3  1  0  0  0  0
  3 30  1  0  0  0  0
  4  3  1  0  0  0  0
  5  1  1  0  0  0  0
  5  4  2  0  0  0  0
  7  6  1  0  0  0  0
  7  8  1  0  0  0  0
  9  8  2  0  0  0  0
  9  1  1  0  0  0  0
 10  9  1  0  0  0  0
 11 12  1  0  0  0  0
 11 10  2  0  0  0  0
 12  7  2  0  0  0  0
 13 12  1  0  0  0  0
 14  4  1  6  0  0  0
 15 14  1  0  0  0  0
 16 17  1  0  0  0  0
 16 15  1  0  0  0  0
 17 20  1  0  0  0  0
 17 18  1  0  0  0  0
 18 19  1  0  0  0  0
 19 14  1  0  0  0  0
 20 21  1  0  0  0  0
 21 22  2  0  0  0  0
 23 22  1  0  0  0  0
 24 23  2  0  0  0  0
 25 28  1  0  0  0  0
 25 24  1  0  0  0  0
 26 24  1  0  0  0  0
 26 20  2  0  0  0  0
 27 26  1  0  0  0  0
 29 25  1  0  0  0  0
 30 31  1  0  0  0  0
 31 32  1  0  0  0  0
 32 33  1  0  0  0  0
 32 35  1  0  0  0  0
 33 34  1  0  0  0  0
 35 34  1  0  0  0  0
 36 32  1  0  0  0  0
M  END
>  <minimizedAffinity>
-9.14095688

$$$$

 OpenBabel11232418583D

 36 40  0  0  1  0  0  0  0  0999 V2000
   32.5800   43.3040   16.8790 C   0  0  0  0  0  0  0  0  0  0  0  0
   33.1310   42.6650   17.9660 C   0  0  0  0  0  3  0  0  0  0  0  0
   34.4870   42.6700   17.7470 N   0  0  0  0  0  0  0  0  0  0  0  0
   34.7230   43.3850   16.5920 C   0  0  0  0  0  0  0  0  0  0  0  0
   33.5770   43.6880   16.0190 N   0  0  0  0  0  0  0  0  0  0  0  0
   27.7390   41.9970   17.2580 C   0  0  0  0  0  1  0  0  0  0  0  0
   28.8130   42.9290   16.7810 C   0  0  0  0  0  0  0  0  0  0  0  0
   30.1680   42.6580   17.0320 C   0  0  0  0  0  3  0  0  0  0  0  0
   31.1700   43.5570   16.6260 C   0  0  0  0  0  0  0  0  0  0  0  0
   30.7920   44.7430   15.9790 C   0  0  0  0  0  3  0  0  0  0  0  0
   29.4460   45.0240   15.7340 C   0  0  0  0  0  3  0  0  0  0  0  0
   28.4710   44.1210   16.1390 C   0  0  0  0  0  0  0  0  0  0  0  0
   27.1840   44.4120   15.9100 F   0  0  0  0  0  0  0  0  0  0  0  0
   36.0820   43.7540   16.0530 C   0  0  2  0  0  3  0  0  0  0  0  0
   37.1460   43.7120   17.1610 C   0  0  0  0  0  2  0  0  0  0  0  0
   37.1220   44.9580   18.0470 C   0  0  0  0  0  2  0  0  0  0  0  0
   37.1530   46.1740   17.2400 N   0  0  0  0  0  0  0  0  0  0  0  0
   36.0730   46.3130   16.2670 C   0  0  0  0  0  2  0  0  0  0  0  0
   36.0690   45.1090   15.3210 C   0  0  0  0  0  2  0  0  0  0  0  0
   38.3910   46.7210   16.9140 C   0  0  0  0  0  0  0  0  0  0  0  0
   38.4770   47.3810   15.7390 N   0  0  0  0  0  0  0  0  0  0  0  0
   39.6590   47.9360   15.4370 C   0  0  0  0  0  3  0  0  0  0  0  0
   40.7640   47.9050   16.1850 N   0  0  0  0  0  0  0  0  0  0  0  0
   40.6810   47.2150   17.3320 C   0  0  0  0  0  0  0  0  0  0  0  0
   41.8370   47.2160   18.0940 N   0  0  0  0  0  0  0  0  0  0  0  0
   39.5040   46.6020   17.7520 C   0  0  0  0  0  0  0  0  0  0  0  0
   39.4870   45.5580   19.3450 Br  0  0  0  0  0  0  0  0  0  0  0  0
   42.6150   47.6890   17.6510 H   0  0  0  0  0  0  0  0  0  0  0  0
   42.0410   46.3870   18.6360 H   0  0  0  0  0  0  0  0  0  0  0  0
   35.4510   42.0450   18.6250 C   0  0  0  0  0  2  0  0  0  0  0  0
   35.4780   42.6000   20.0630 C   0  0  0  0  0  2  0  0  0  0  0  0
   36.6990   42.4820   20.9100 N   0  0  0  0  0  4  0  0  0  0  0  0
   37.0520   43.6680   21.7110 C   0  0  0  0  0  2  0  0  0  0  0  0
   37.4570   42.7070   22.8400 C   0  0  0  0  0  2  0  0  0  0  0  0
   36.5740   41.6700   22.1290 C   0  0  0  0  0  2  0  0  0  0  0  0
   37.5030   42.1810   20.3370 H   0  0  0  0  0  0  0  0  0  0  0  0
  1  2  2  0  0  0  0
  3  2  1  0  0  0  0
  3 30  1  0  0  0  0
  4  3  1  0  0  0  0
  5  4  2  0  0  0  0
  5  1  1  0  0  0  0
  7  8  1  0  0  0  0
  7  6  1  0  0  0  0
  9  1  1  0  0  0  0
  9  8  2  0  0  0  0
 10  9  1  0  0  0  0
 11 10  2  0  0  0  0
 11 12  1  0  0  0  0
 12  7  2  0  0  0  0
 13 12  1  0  0  0  0
 14  4  1  1  0  0  0
 14 15  1  0  0  0  0
 15 16  1  0  0  0  0
 17 16  1  0  0  0  0
 18 17  1  0  0  0  0
 19 14  1  0  0  0  0
 19 18  1  0  0  0  0
 20 17  1  0  0  0  0
 20 26  1  0  0  0  0
 21 20  2  0  0  0  0
 22 21  1  0  0  0  0
 22 23  2  0  0  0  0
 23 24  1  0  0  0  0
 24 26  2  0  0  0  0
 24 25  1  0  0  0  0
 25 29  1  0  0  0  0
 26 27  1  0  0  0  0
 28 25  1  0  0  0  0
 30 31  1  0  0  0  0
 31 32  1  0  0  0  0
 32 33  1  0  0  0  0
 32 35  1  0  0  0  0
 33 34  1  0  0  0  0
 35 34  1  0  0  0  0
 36 32  1  0  0  0  0
M  END
>  <minimizedAffinity>
-9.12322044

$$$$

 OpenBabel11232418583D

 36 40  0  0  1  0  0  0  0  0999 V2000
   36.2740   44.2250   19.0070 C   0  0  0  0  0  0  0  0  0  0  0  0
   37.2970   44.6250   18.1780 C   0  0  0  0  0  3  0  0  0  0  0  0
   38.4280   44.6140   18.9580 N   0  0  0  0  0  0  0  0  0  0  0  0
   38.0770   44.1260   20.1980 C   0  0  0  0  0  0  0  0  0  0  0  0
   36.7710   43.9790   20.2620 N   0  0  0  0  0  0  0  0  0  0  0  0
   32.4340   44.8350   15.8180 C   0  0  0  0  0  1  0  0  0  0  0  0
   32.9840   44.3820   17.1370 C   0  0  0  0  0  0  0  0  0  0  0  0
   34.3440   44.5450   17.4470 C   0  0  0  0  0  3  0  0  0  0  0  0
   34.8680   44.0760   18.6640 C   0  0  0  0  0  0  0  0  0  0  0  0
   34.0100   43.4240   19.5630 C   0  0  0  0  0  3  0  0  0  0  0  0
   32.6590   43.2500   19.2580 C   0  0  0  0  0  3  0  0  0  0  0  0
   32.1600   43.7240   18.0520 C   0  0  0  0  0  0  0  0  0  0  0  0
   30.8640   43.5360   17.7680 F   0  0  0  0  0  0  0  0  0  0  0  0
   39.0360   43.8190   21.3210 C   0  0  2  0  0  3  0  0  0  0  0  0
   38.2900   43.2980   22.5590 C   0  0  0  0  0  2  0  0  0  0  0  0
   37.6450   44.4210   23.3730 C   0  0  0  0  0  2  0  0  0  0  0  0
   38.6090   45.4780   23.6620 N   0  0  0  0  0  0  0  0  0  0  0  0
   39.2400   46.0930   22.4970 C   0  0  0  0  0  2  0  0  0  0  0  0
   39.9400   45.0190   21.6590 C   0  0  0  0  0  2  0  0  0  0  0  0
   39.3600   45.3860   24.8310 C   0  0  0  0  0  0  0  0  0  0  0  0
   39.7080   44.1470   25.2380 N   0  0  0  0  0  0  0  0  0  0  0  0
   40.4580   44.0560   26.3450 C   0  0  0  0  0  3  0  0  0  0  0  0
   40.9000   45.0740   27.0880 N   0  0  0  0  0  0  0  0  0  0  0  0
   40.5170   46.2980   26.6990 C   0  0  0  0  0  0  0  0  0  0  0  0
   41.0070   47.3330   27.4790 N   0  0  0  0  0  0  0  0  0  0  0  0
   39.7450   46.5140   25.5610 C   0  0  0  0  0  0  0  0  0  0  0  0
   39.1590   48.2730   25.1250 Br  0  0  0  0  0  0  0  0  0  0  0  0
   41.5400   47.0210   28.2790 H   0  0  0  0  0  0  0  0  0  0  0  0
   40.4190   48.1480   27.5960 H   0  0  0  0  0  0  0  0  0  0  0  0
   39.7350   45.0260   18.4940 C   0  0  0  0  0  2  0  0  0  0  0  0
   39.8190   46.4810   17.9920 C   0  0  0  0  0  2  0  0  0  0  0  0
   40.4740   46.8100   16.6940 N   0  0  0  0  0  4  0  0  0  0  0  0
   39.6490   46.6290   15.4850 C   0  0  0  0  0  2  0  0  0  0  0  0
   40.2950   47.9090   14.9300 C   0  0  0  0  0  2  0  0  0  0  0  0
   40.6440   48.2380   16.3900 C   0  0  0  0  0  2  0  0  0  0  0  0
   41.3640   46.2960   16.6040 H   0  0  0  0  0  0  0  0  0  0  0  0
  1  5  1  0  0  0  0
  2  3  1  0  0  0  0
  2  1  2  0  0  0  0
  3  4  1  0  0  0  0
  4  5  2  0  0  0  0
  6  7  1  0  0  0  0
  7  8  2  0  0  0  0
  7 12  1  0  0  0  0
  8  9  1  0  0  0  0
  9  1  1  0  0  0  0
  9 10  2  0  0  0  0
 11 10  1  0  0  0  0
 12 11  2  0  0  0  0
 13 12  1  0  0  0  0
 14  4  1  6  0  0  0
 14 19  1  0  0  0  0
 14 15  1  0  0  0  0
 15 16  1  0  0  0  0
 16 17  1  0  0  0  0
 17 20  1  0  0  0  0
 18 17  1  0  0  0  0
 19 18  1  0  0  0  0
 20 21  2  0  0  0  0
 20 26  1  0  0  0  0
 21 22  1  0  0  0  0
 22 23  2  0  0  0  0
 24 23  1  0  0  0  0
 24 25  1  0  0  0  0
 25 29  1  0  0  0  0
 25 28  1  0  0  0  0
 26 24  2  0  0  0  0
 27 26  1  0  0  0  0
 30  3  1  0  0  0  0
 31 30  1  0  0  0  0
 32 31  1  0  0  0  0
 33 32  1  0  0  0  0
 34 33  1  0  0  0  0
 34 35  1  0  0  0  0
 35 32  1  0  0  0  0
 36 32  1  0  0  0  0
M  END
>  <minimizedAffinity>
-8.94018173

$$$$

 OpenBabel11232418583D

 36 40  0  0  1  0  0  0  0  0999 V2000
   31.9700   42.6170   17.3560 C   0  0  0  0  0  0  0  0  0  0  0  0
   33.0090   42.2000   18.1550 C   0  0  0  0  0  3  0  0  0  0  0  0
   34.0190   43.1080   17.9490 N   0  0  0  0  0  0  0  0  0  0  0  0
   33.5350   44.0900   17.1100 C   0  0  0  0  0  0  0  0  0  0  0  0
   32.3390   43.7510   16.6780 N   0  0  0  0  0  0  0  0  0  0  0  0
   27.1950   42.7140   15.7810 C   0  0  0  0  0  1  0  0  0  0  0  0
   28.3360   42.0250   16.4670 C   0  0  0  0  0  0  0  0  0  0  0  0
   29.5830   42.6550   16.6060 C   0  0  0  0  0  3  0  0  0  0  0  0
   30.6660   41.9890   17.2060 C   0  0  0  0  0  0  0  0  0  0  0  0
   30.4850   40.6710   17.6510 C   0  0  0  0  0  3  0  0  0  0  0  0
   29.2510   40.0330   17.5090 C   0  0  0  0  0  3  0  0  0  0  0  0
   28.1920   40.7110   16.9170 C   0  0  0  0  0  0  0  0  0  0  0  0
   27.0190   40.0800   16.7740 F   0  0  0  0  0  0  0  0  0  0  0  0
   34.2650   45.3540   16.7290 C   0  0  2  0  0  3  0  0  0  0  0  0
   35.1140   45.1420   15.4660 C   0  0  0  0  0  2  0  0  0  0  0  0
   36.4350   44.4290   15.7580 C   0  0  0  0  0  2  0  0  0  0  0  0
   37.1490   45.0770   16.8520 N   0  0  0  0  0  0  0  0  0  0  0  0
   36.4200   45.1730   18.1140 C   0  0  0  0  0  2  0  0  0  0  0  0
   35.1000   45.9170   17.8940 C   0  0  0  0  0  2  0  0  0  0  0  0
   38.0450   46.0990   16.5440 C   0  0  0  0  0  0  0  0  0  0  0  0
   37.7190   46.9070   15.5130 N   0  0  0  0  0  0  0  0  0  0  0  0
   38.5620   47.9100   15.2330 C   0  0  0  0  0  3  0  0  0  0  0  0
   39.6970   48.1940   15.8770 N   0  0  0  0  0  0  0  0  0  0  0  0
   40.0330   47.3630   16.8750 C   0  0  0  0  0  0  0  0  0  0  0  0
   41.2050   47.6940   17.5340 N   0  0  0  0  0  0  0  0  0  0  0  0
   39.2310   46.2920   17.2580 C   0  0  0  0  0  0  0  0  0  0  0  0
   39.8200   45.0980   18.6200 Br  0  0  0  0  0  0  0  0  0  0  0  0
   41.6860   48.4880   17.1320 H   0  0  0  0  0  0  0  0  0  0  0  0
   41.7700   46.9360   17.8920 H   0  0  0  0  0  0  0  0  0  0  0  0
   35.3280   43.0160   18.5570 C   0  0  0  0  0  2  0  0  0  0  0  0
   35.3330   42.5320   20.0210 C   0  0  0  0  0  2  0  0  0  0  0  0
   36.6080   42.4000   20.7830 N   0  0  0  0  0  4  0  0  0  0  0  0
   37.0770   43.6100   21.4800 C   0  0  0  0  0  2  0  0  0  0  0  0
   37.5200   42.6970   22.6340 C   0  0  0  0  0  2  0  0  0  0  0  0
   36.5360   41.6680   22.0560 C   0  0  0  0  0  2  0  0  0  0  0  0
   37.3500   42.0230   20.1720 H   0  0  0  0  0  0  0  0  0  0  0  0
  1  2  2  0  0  0  0
  3  2  1  0  0  0  0
  3 30  1  0  0  0  0
  4  3  1  0  0  0  0
  5  4  2  0  0  0  0
  5  1  1  0  0  0  0
  6  7  1  0  0  0  0
  7  8  2  0  0  0  0
  7 12  1  0  0  0  0
  8  9  1  0  0  0  0
  9  1  1  0  0  0  0
  9 10  2  0  0  0  0
 11 10  1  0  0  0  0
 12 11  2  0  0  0  0
 13 12  1  0  0  0  0
 14  4  1  1  0  0  0
 14 19  1  0  0  0  0
 15 16  1  0  0  0  0
 15 14  1  0  0  0  0
 16 17  1  0  0  0  0
 17 18  1  0  0  0  0
 19 18  1  0  0  0  0
 20 17  1  0  0  0  0
 20 26  1  0  0  0  0
 21 20  2  0  0  0  0
 22 21  1  0  0  0  0
 22 23  2  0  0  0  0
 23 24  1  0  0  0  0
 24 26  2  0  0  0  0
 24 25  1  0  0  0  0
 25 29  1  0  0  0  0
 26 27  1  0  0  0  0
 28 25  1  0  0  0  0
 30 31  1  0  0  0  0
 31 32  1  0  0  0  0
 32 33  1  0  0  0  0
 32 35  1  0  0  0  0
 33 34  1  0  0  0  0
 35 34  1  0  0  0  0
 36 32  1  0  0  0  0
M  END
>  <minimizedAffinity>
-8.89740086

$$$$

 OpenBabel11232418583D

 36 40  0  0  1  0  0  0  0  0999 V2000
   37.7990   44.8750   18.7360 C   0  0  0  0  0  0  0  0  0  0  0  0
   36.6610   44.2430   18.2910 C   0  0  0  0  0  3  0  0  0  0  0  0
   36.2260   43.4810   19.3480 N   0  0  0  0  0  0  0  0  0  0  0  0
   37.0530   43.7410   20.4210 C   0  0  0  0  0  0  0  0  0  0  0  0
   38.0520   44.5050   20.0330 N   0  0  0  0  0  0  0  0  0  0  0  0
   38.5610   48.0160   14.8830 C   0  0  0  0  0  1  0  0  0  0  0  0
   39.0430   47.3090   16.1150 C   0  0  0  0  0  0  0  0  0  0  0  0
   38.2090   46.4190   16.8110 C   0  0  0  0  0  3  0  0  0  0  0  0
   38.6460   45.7940   17.9920 C   0  0  0  0  0  0  0  0  0  0  0  0
   39.9290   46.0890   18.4770 C   0  0  0  0  0  3  0  0  0  0  0  0
   40.7610   46.9800   17.7960 C   0  0  0  0  0  3  0  0  0  0  0  0
   40.3120   47.5830   16.6280 C   0  0  0  0  0  0  0  0  0  0  0  0
   41.1170   48.4460   15.9940 F   0  0  0  0  0  0  0  0  0  0  0  0
   36.8570   43.2220   21.8240 C   0  0  2  0  0  3  0  0  0  0  0  0
   37.0260   44.3460   22.8570 C   0  0  0  0  0  2  0  0  0  0  0  0
   38.4940   44.6640   23.1450 C   0  0  0  0  0  2  0  0  0  0  0  0
   39.2410   43.4510   23.4590 N   0  0  0  0  0  0  0  0  0  0  0  0
   39.2150   42.4100   22.4350 C   0  0  0  0  0  2  0  0  0  0  0  0
   37.7660   42.0180   22.1310 C   0  0  0  0  0  2  0  0  0  0  0  0
   39.3160   43.0460   24.7900 C   0  0  0  0  0  0  0  0  0  0  0  0
   38.1490   42.7730   25.4120 N   0  0  0  0  0  0  0  0  0  0  0  0
   38.2190   42.3530   26.6830 C   0  0  0  0  0  3  0  0  0  0  0  0
   39.3320   42.1730   27.3980 N   0  0  0  0  0  0  0  0  0  0  0  0
   40.4830   42.4830   26.7850 C   0  0  0  0  0  0  0  0  0  0  0  0
   41.6210   42.2680   27.5460 N   0  0  0  0  0  0  0  0  0  0  0  0
   40.5330   42.9220   25.4650 C   0  0  0  0  0  0  0  0  0  0  0  0
   42.1970   43.4350   24.6920 Br  0  0  0  0  0  0  0  0  0  0  0  0
   41.4260   41.9630   28.4900 H   0  0  0  0  0  0  0  0  0  0  0  0
   42.4000   42.8980   27.4090 H   0  0  0  0  0  0  0  0  0  0  0  0
   35.0780   42.6030   19.2950 C   0  0  0  0  0  2  0  0  0  0  0  0
   34.6570   42.1670   17.8780 C   0  0  0  0  0  2  0  0  0  0  0  0
   33.3470   42.5860   17.3020 N   0  0  0  0  0  4  0  0  0  0  0  0
   32.1580   42.3290   18.1340 C   0  0  0  0  0  2  0  0  0  0  0  0
   31.6080   43.6810   17.6540 C   0  0  0  0  0  2  0  0  0  0  0  0
   33.0630   44.0280   17.3040 C   0  0  0  0  0  2  0  0  0  0  0  0
   33.2260   42.1790   16.3610 H   0  0  0  0  0  0  0  0  0  0  0  0
  1  5  1  0  0  0  0
  2  1  2  0  0  0  0
  2  3  1  0  0  0  0
  3  4  1  0  0  0  0
  5  4  2  0  0  0  0
  6  7  1  0  0  0  0
  7 12  2  0  0  0  0
  7  8  1  0  0  0  0
  8  9  2  0  0  0  0
  9 10  1  0  0  0  0
  9  1  1  0  0  0  0
 11 10  2  0  0  0  0
 12 11  1  0  0  0  0
 13 12  1  0  0  0  0
 14  4  1  6  0  0  0
 14 19  1  0  0  0  0
 14 15  1  0  0  0  0
 15 16  1  0  0  0  0
 16 17  1  0  0  0  0
 17 20  1  0  0  0  0
 18 17  1  0  0  0  0
 19 18  1  0  0  0  0
 20 21  2  0  0  0  0
 20 26  1  0  0  0  0
 21 22  1  0  0  0  0
 22 23  2  0  0  0  0
 24 23  1  0  0  0  0
 24 25  1  0  0  0  0
 25 28  1  0  0  0  0
 26 24  2  0  0  0  0
 27 26  1  0  0  0  0
 29 25  1  0  0  0  0
 30  3  1  0  0  0  0
 31 30  1  0  0  0  0
 32 35  1  0  0  0  0
 32 31  1  0  0  0  0
 32 33  1  0  0  0  0
 34 33  1  0  0  0  0
 35 34  1  0  0  0  0
 36 32  1  0  0  0  0
M  END
>  <minimizedAffinity>
-8.52190495

$$$$
