
 OpenBabel11232418583D

 36 40  0  0  1  0  0  0  0  0999 V2000
   37.7990   44.8750   18.7360 C   0  0  0  0  0  0  0  0  0  0  0  0
   36.6610   44.2430   18.2910 C   0  0  0  0  0  3  0  0  0  0  0  0
   36.2260   43.4810   19.3480 N   0  0  0  0  0  0  0  0  0  0  0  0
   37.0530   43.7410   20.4210 C   0  0  0  0  0  0  0  0  0  0  0  0
   38.0520   44.5050   20.0330 N   0  0  0  0  0  0  0  0  0  0  0  0
   38.5610   48.0160   14.8830 C   0  0  0  0  0  1  0  0  0  0  0  0
   39.0430   47.3090   16.1150 C   0  0  0  0  0  0  0  0  0  0  0  0
   38.2090   46.4190   16.8110 C   0  0  0  0  0  3  0  0  0  0  0  0
   38.6460   45.7940   17.9920 C   0  0  0  0  0  0  0  0  0  0  0  0
   39.9290   46.0890   18.4770 C   0  0  0  0  0  3  0  0  0  0  0  0
   40.7610   46.9800   17.7960 C   0  0  0  0  0  3  0  0  0  0  0  0
   40.3120   47.5830   16.6280 C   0  0  0  0  0  0  0  0  0  0  0  0
   41.1170   48.4460   15.9940 F   0  0  0  0  0  0  0  0  0  0  0  0
   36.8570   43.2220   21.8240 C   0  0  2  0  0  3  0  0  0  0  0  0
   37.0260   44.3460   22.8570 C   0  0  0  0  0  2  0  0  0  0  0  0
   38.4940   44.6640   23.1450 C   0  0  0  0  0  2  0  0  0  0  0  0
   39.2410   43.4510   23.4590 N   0  0  0  0  0  0  0  0  0  0  0  0
   39.2150   42.4100   22.4350 C   0  0  0  0  0  2  0  0  0  0  0  0
   37.7660   42.0180   22.1310 C   0  0  0  0  0  2  0  0  0  0  0  0
   39.3160   43.0460   24.7900 C   0  0  0  0  0  0  0  0  0  0  0  0
   38.1490   42.7730   25.4120 N   0  0  0  0  0  0  0  0  0  0  0  0
   38.2190   42.3530   26.6830 C   0  0  0  0  0  3  0  0  0  0  0  0
   39.3320   42.1730   27.3980 N   0  0  0  0  0  0  0  0  0  0  0  0
   40.4830   42.4830   26.7850 C   0  0  0  0  0  0  0  0  0  0  0  0
   41.6210   42.2680   27.5460 N   0  0  0  0  0  0  0  0  0  0  0  0
   40.5330   42.9220   25.4650 C   0  0  0  0  0  0  0  0  0  0  0  0
   42.1970   43.4350   24.6920 Br  0  0  0  0  0  0  0  0  0  0  0  0
   41.4260   41.9630   28.4900 H   0  0  0  0  0  0  0  0  0  0  0  0
   42.4000   42.8980   27.4090 H   0  0  0  0  0  0  0  0  0  0  0  0
   35.0780   42.6030   19.2950 C   0  0  0  0  0  2  0  0  0  0  0  0
   34.6570   42.1670   17.8780 C   0  0  0  0  0  2  0  0  0  0  0  0
   33.3470   42.5860   17.3020 N   0  0  0  0  0  4  0  0  0  0  0  0
   32.1580   42.3290   18.1340 C   0  0  0  0  0  2  0  0  0  0  0  0
   31.6080   43.6810   17.6540 C   0  0  0  0  0  2  0  0  0  0  0  0
   33.0630   44.0280   17.3040 C   0  0  0  0  0  2  0  0  0  0  0  0
   33.2260   42.1790   16.3610 H   0  0  0  0  0  0  0  0  0  0  0  0
  1  5  1  0  0  0  0
  2  1  2  0  0  0  0
  2  3  1  0  0  0  0
  3  4  1  0  0  0  0
  5  4  2  0  0  0  0
  6  7  1  0  0  0  0
  7 12  2  0  0  0  0
  7  8  1  0  0  0  0
  8  9  2  0  0  0  0
  9 10  1  0  0  0  0
  9  1  1  0  0  0  0
 11 10  2  0  0  0  0
 12 11  1  0  0  0  0
 13 12  1  0  0  0  0
 14  4  1  6  0  0  0
 14 19  1  0  0  0  0
 14 15  1  0  0  0  0
 15 16  1  0  0  0  0
 16 17  1  0  0  0  0
 17 20  1  0  0  0  0
 18 17  1  0  0  0  0
 19 18  1  0  0  0  0
 20 21  2  0  0  0  0
 20 26  1  0  0  0  0
 21 22  1  0  0  0  0
 22 23  2  0  0  0  0
 24 23  1  0  0  0  0
 24 25  1  0  0  0  0
 25 28  1  0  0  0  0
 26 24  2  0  0  0  0
 27 26  1  0  0  0  0
 29 25  1  0  0  0  0
 30  3  1  0  0  0  0
 31 30  1  0  0  0  0
 32 35  1  0  0  0  0
 32 31  1  0  0  0  0
 32 33  1  0  0  0  0
 34 33  1  0  0  0  0
 35 34  1  0  0  0  0
 36 32  1  0  0  0  0
M  END
>  <minimizedAffinity>
-8.52190495

$$$$
