
 OpenBabel11232418583D

 36 40  0  0  1  0  0  0  0  0999 V2000
   36.2740   44.2250   19.0070 C   0  0  0  0  0  0  0  0  0  0  0  0
   37.2970   44.6250   18.1780 C   0  0  0  0  0  3  0  0  0  0  0  0
   38.4280   44.6140   18.9580 N   0  0  0  0  0  0  0  0  0  0  0  0
   38.0770   44.1260   20.1980 C   0  0  0  0  0  0  0  0  0  0  0  0
   36.7710   43.9790   20.2620 N   0  0  0  0  0  0  0  0  0  0  0  0
   32.4340   44.8350   15.8180 C   0  0  0  0  0  1  0  0  0  0  0  0
   32.9840   44.3820   17.1370 C   0  0  0  0  0  0  0  0  0  0  0  0
   34.3440   44.5450   17.4470 C   0  0  0  0  0  3  0  0  0  0  0  0
   34.8680   44.0760   18.6640 C   0  0  0  0  0  0  0  0  0  0  0  0
   34.0100   43.4240   19.5630 C   0  0  0  0  0  3  0  0  0  0  0  0
   32.6590   43.2500   19.2580 C   0  0  0  0  0  3  0  0  0  0  0  0
   32.1600   43.7240   18.0520 C   0  0  0  0  0  0  0  0  0  0  0  0
   30.8640   43.5360   17.7680 F   0  0  0  0  0  0  0  0  0  0  0  0
   39.0360   43.8190   21.3210 C   0  0  2  0  0  3  0  0  0  0  0  0
   38.2900   43.2980   22.5590 C   0  0  0  0  0  2  0  0  0  0  0  0
   37.6450   44.4210   23.3730 C   0  0  0  0  0  2  0  0  0  0  0  0
   38.6090   45.4780   23.6620 N   0  0  0  0  0  0  0  0  0  0  0  0
   39.2400   46.0930   22.4970 C   0  0  0  0  0  2  0  0  0  0  0  0
   39.9400   45.0190   21.6590 C   0  0  0  0  0  2  0  0  0  0  0  0
   39.3600   45.3860   24.8310 C   0  0  0  0  0  0  0  0  0  0  0  0
   39.7080   44.1470   25.2380 N   0  0  0  0  0  0  0  0  0  0  0  0
   40.4580   44.0560   26.3450 C   0  0  0  0  0  3  0  0  0  0  0  0
   40.9000   45.0740   27.0880 N   0  0  0  0  0  0  0  0  0  0  0  0
   40.5170   46.2980   26.6990 C   0  0  0  0  0  0  0  0  0  0  0  0
   41.0070   47.3330   27.4790 N   0  0  0  0  0  0  0  0  0  0  0  0
   39.7450   46.5140   25.5610 C   0  0  0  0  0  0  0  0  0  0  0  0
   39.1590   48.2730   25.1250 Br  0  0  0  0  0  0  0  0  0  0  0  0
   41.5400   47.0210   28.2790 H   0  0  0  0  0  0  0  0  0  0  0  0
   40.4190   48.1480   27.5960 H   0  0  0  0  0  0  0  0  0  0  0  0
   39.7350   45.0260   18.4940 C   0  0  0  0  0  2  0  0  0  0  0  0
   39.8190   46.4810   17.9920 C   0  0  0  0  0  2  0  0  0  0  0  0
   40.4740   46.8100   16.6940 N   0  0  0  0  0  4  0  0  0  0  0  0
   39.6490   46.6290   15.4850 C   0  0  0  0  0  2  0  0  0  0  0  0
   40.2950   47.9090   14.9300 C   0  0  0  0  0  2  0  0  0  0  0  0
   40.6440   48.2380   16.3900 C   0  0  0  0  0  2  0  0  0  0  0  0
   41.3640   46.2960   16.6040 H   0  0  0  0  0  0  0  0  0  0  0  0
  1  5  1  0  0  0  0
  2  3  1  0  0  0  0
  2  1  2  0  0  0  0
  3  4  1  0  0  0  0
  4  5  2  0  0  0  0
  6  7  1  0  0  0  0
  7  8  2  0  0  0  0
  7 12  1  0  0  0  0
  8  9  1  0  0  0  0
  9  1  1  0  0  0  0
  9 10  2  0  0  0  0
 11 10  1  0  0  0  0
 12 11  2  0  0  0  0
 13 12  1  0  0  0  0
 14  4  1  6  0  0  0
 14 19  1  0  0  0  0
 14 15  1  0  0  0  0
 15 16  1  0  0  0  0
 16 17  1  0  0  0  0
 17 20  1  0  0  0  0
 18 17  1  0  0  0  0
 19 18  1  0  0  0  0
 20 21  2  0  0  0  0
 20 26  1  0  0  0  0
 21 22  1  0  0  0  0
 22 23  2  0  0  0  0
 24 23  1  0  0  0  0
 24 25  1  0  0  0  0
 25 29  1  0  0  0  0
 25 28  1  0  0  0  0
 26 24  2  0  0  0  0
 27 26  1  0  0  0  0
 30  3  1  0  0  0  0
 31 30  1  0  0  0  0
 32 31  1  0  0  0  0
 33 32  1  0  0  0  0
 34 33  1  0  0  0  0
 34 35  1  0  0  0  0
 35 32  1  0  0  0  0
 36 32  1  0  0  0  0
M  END
>  <minimizedAffinity>
-8.94018173

$$$$
