
 OpenBabel10152420003D

 36 39  0  0  0  0  0  0  0  0999 V2000
    0.4510  -12.4460  -25.8130 C   0  0  0  0  0  2  0  0  0  0  0  0
   -2.2920   -8.5550  -21.9670 C   0  0  0  0  0  0  0  0  0  0  0  0
   -2.9010   -7.6880  -22.8880 C   0  0  0  0  0  3  0  0  0  0  0  0
   -2.7210   -7.8990  -24.2440 C   0  0  0  0  0  3  0  0  0  0  0  0
   -1.9430   -8.9760  -24.6640 C   0  0  0  0  0  3  0  0  0  0  0  0
   -1.3390   -9.8670  -23.7330 C   0  0  0  0  0  0  0  0  0  0  0  0
   -0.5700  -10.9940  -24.0940 C   0  0  0  0  0  0  0  0  0  0  0  0
   -0.3780  -11.3160  -25.4330 N   0  0  0  0  0  0  0  0  0  0  0  0
    0.0180  -11.7740  -23.1740 N   0  0  0  0  0  0  0  0  0  0  0  0
   -0.2000  -11.4710  -21.8930 C   0  0  0  0  0  3  0  0  0  0  0  0
   -0.9530  -10.4660  -21.4430 N   0  0  0  0  0  0  0  0  0  0  0  0
   -1.5050   -9.6470  -22.3550 C   0  0  0  0  0  0  0  0  0  0  0  0
   -1.1350  -11.1010  -26.0650 H   0  0  0  0  0  0  0  0  0  0  0  0
   -3.6980   -7.6980  -20.2170 N   0  0  0  0  0  0  0  0  0  0  0  0
   -2.4940   -8.2640  -20.5360 C   0  0  0  0  0  0  0  0  0  0  0  0
   -1.6220   -8.4550  -19.7020 O   0  0  0  0  0  0  0  0  0  0  0  0
   -3.8690   -7.4840  -19.2430 H   0  0  0  0  0  0  0  0  0  0  0  0
   -4.4380   -7.5510  -20.8870 H   0  0  0  0  0  0  0  0  0  0  0  0
    1.8690  -11.9640  -26.0280 C   0  0  0  0  0  0  0  0  0  0  0  0
    2.9680  -12.7130  -25.6020 C   0  0  0  0  0  3  0  0  0  0  0  0
    4.2600  -12.2330  -25.8100 C   0  0  0  0  0  3  0  0  0  0  0  0
    4.4640  -11.0000  -26.4390 C   0  0  0  0  0  3  0  0  0  0  0  0
    3.3860  -10.2220  -26.8650 C   0  0  0  0  0  0  0  0  0  0  0  0
    2.0940  -10.7290  -26.6670 C   0  0  0  0  0  3  0  0  0  0  0  0
    3.5200   -8.9820  -27.5020 N   0  0  0  0  0  0  0  0  0  0  0  0
    2.7370   -7.8380  -27.5870 C   0  0  0  0  0  0  0  0  0  0  0  0
    1.7910   -7.4840  -26.6350 C   0  0  0  0  0  3  0  0  0  0  0  0
    1.0560   -6.2990  -26.7890 C   0  0  0  0  0  0  0  0  0  0  0  0
    1.2900   -5.5130  -27.9170 C   0  0  0  0  0  3  0  0  0  0  0  0
    2.2600   -5.9230  -28.8080 C   0  0  0  0  0  3  0  0  0  0  0  0
    2.9860   -7.0510  -28.6560 N   0  0  0  0  0  0  0  0  0  0  0  0
    4.2420   -8.9450  -28.2140 H   0  0  0  0  0  0  0  0  0  0  0  0
    0.0200   -5.9020  -25.7750 C   0  0  0  0  0  0  0  0  0  0  0  0
    0.2130   -6.4890  -24.5610 F   0  0  0  0  0  0  0  0  0  0  0  0
    0.0130   -4.5610  -25.5460 F   0  0  0  0  0  0  0  0  0  0  0  0
   -1.2490   -6.2260  -26.1470 F   0  0  0  0  0  0  0  0  0  0  0  0
  1  8  1  0  0  0  0
  2 15  1  0  0  0  0
  3  2  2  0  0  0  0
  4  3  1  0  0  0  0
  5  4  2  0  0  0  0
  5  6  1  0  0  0  0
  6 12  1  0  0  0  0
  7  6  2  0  0  0  0
  7  9  1  0  0  0  0
  8  7  1  0  0  0  0
  9 10  2  0  0  0  0
 10 11  1  0  0  0  0
 12  2  1  0  0  0  0
 12 11  2  0  0  0  0
 13  8  1  0  0  0  0
 14 17  1  0  0  0  0
 15 14  1  0  0  0  0
 15 16  2  0  0  0  0
 18 14  1  0  0  0  0
 19  1  1  0  0  0  0
 19 20  1  0  0  0  0
 21 20  2  0  0  0  0
 22 21  1  0  0  0  0
 23 24  1  0  0  0  0
 23 22  2  0  0  0  0
 24 19  2  0  0  0  0
 25 23  1  0  0  0  0
 26 25  1  0  0  0  0
 26 27  1  0  0  0  0
 28 27  2  0  0  0  0
 28 33  1  0  0  0  0
 29 28  1  0  0  0  0
 30 31  1  0  0  0  0
 30 29  2  0  0  0  0
 31 26  2  0  0  0  0
 32 25  1  0  0  0  0
 33 35  1  0  0  0  0
 33 34  1  0  0  0  0
 36 33  1  0  0  0  0
M  END
>  <minimizedAffinity>
-9.01571465

$$$$
