
 OpenBabel10152420003D

 36 39  0  0  0  0  0  0  0  0999 V2000
    2.5570   -9.3470  -26.9070 C   0  0  0  0  0  2  0  0  0  0  0  0
   -0.4820   -4.1590  -25.7640 C   0  0  0  0  0  0  0  0  0  0  0  0
   -0.7900   -4.3480  -24.4070 C   0  0  0  0  0  3  0  0  0  0  0  0
   -0.4000   -5.5180  -23.7770 C   0  0  0  0  0  3  0  0  0  0  0  0
    0.3000   -6.4780  -24.5050 C   0  0  0  0  0  3  0  0  0  0  0  0
    0.6280   -6.2810  -25.8750 C   0  0  0  0  0  0  0  0  0  0  0  0
    1.3630   -7.1980  -26.6580 C   0  0  0  0  0  0  0  0  0  0  0  0
    1.8420   -8.3770  -26.0970 N   0  0  0  0  0  0  0  0  0  0  0  0
    1.6030   -6.9840  -27.9610 N   0  0  0  0  0  0  0  0  0  0  0  0
    1.1640   -5.8350  -28.4770 C   0  0  0  0  0  3  0  0  0  0  0  0
    0.5120   -4.8780  -27.8170 N   0  0  0  0  0  0  0  0  0  0  0  0
    0.2200   -5.1030  -26.5250 C   0  0  0  0  0  0  0  0  0  0  0  0
    2.1100   -8.3410  -25.1240 H   0  0  0  0  0  0  0  0  0  0  0  0
    0.0210   -2.1570  -26.9930 N   0  0  0  0  0  0  0  0  0  0  0  0
   -0.9490   -2.9080  -26.3890 C   0  0  0  0  0  0  0  0  0  0  0  0
   -2.1110   -2.5370  -26.3160 O   0  0  0  0  0  0  0  0  0  0  0  0
   -0.2670   -1.2910  -27.4310 H   0  0  0  0  0  0  0  0  0  0  0  0
    0.9810   -2.4540  -27.0810 H   0  0  0  0  0  0  0  0  0  0  0  0
    2.8420  -10.5720  -26.0660 C   0  0  0  0  0  0  0  0  0  0  0  0
    4.0920  -11.1960  -26.0850 C   0  0  0  0  0  3  0  0  0  0  0  0
    4.3160  -12.3290  -25.3030 C   0  0  0  0  0  3  0  0  0  0  0  0
    3.2930  -12.8490  -24.5020 C   0  0  0  0  0  3  0  0  0  0  0  0
    2.0300  -12.2560  -24.4720 C   0  0  0  0  0  0  0  0  0  0  0  0
    1.8280  -11.1050  -25.2480 C   0  0  0  0  0  3  0  0  0  0  0  0
    0.9660  -12.7230  -23.6910 N   0  0  0  0  0  0  0  0  0  0  0  0
   -0.0020  -12.1190  -22.8980 C   0  0  0  0  0  0  0  0  0  0  0  0
   -0.4260  -10.8090  -23.0690 C   0  0  0  0  0  3  0  0  0  0  0  0
   -1.4220  -10.2840  -22.2330 C   0  0  0  0  0  0  0  0  0  0  0  0
   -1.9520  -11.1000  -21.2340 C   0  0  0  0  0  3  0  0  0  0  0  0
   -1.4920  -12.3980  -21.1410 C   0  0  0  0  0  3  0  0  0  0  0  0
   -0.5470  -12.9170  -21.9530 N   0  0  0  0  0  0  0  0  0  0  0  0
    0.9900  -13.7170  -23.4880 H   0  0  0  0  0  0  0  0  0  0  0  0
   -1.8890   -8.8640  -22.3940 C   0  0  0  0  0  0  0  0  0  0  0  0
   -2.0160   -8.4930  -23.6990 F   0  0  0  0  0  0  0  0  0  0  0  0
   -3.1060   -8.6550  -21.8250 F   0  0  0  0  0  0  0  0  0  0  0  0
   -1.0480   -7.9540  -21.8290 F   0  0  0  0  0  0  0  0  0  0  0  0
  1  8  1  0  0  0  0
  1 19  1  0  0  0  0
  2  3  1  0  0  0  0
  3  4  2  0  0  0  0
  5  4  1  0  0  0  0
  6  5  2  0  0  0  0
  7  8  1  0  0  0  0
  7  6  1  0  0  0  0
  8 13  1  0  0  0  0
  9  7  2  0  0  0  0
 10  9  1  0  0  0  0
 10 11  2  0  0  0  0
 11 12  1  0  0  0  0
 12  6  1  0  0  0  0
 12  2  2  0  0  0  0
 14 15  1  0  0  0  0
 15 16  2  0  0  0  0
 15  2  1  0  0  0  0
 17 14  1  0  0  0  0
 18 14  1  0  0  0  0
 19 24  1  0  0  0  0
 20 19  2  0  0  0  0
 20 21  1  0  0  0  0
 21 22  2  0  0  0  0
 22 23  1  0  0  0  0
 23 25  1  0  0  0  0
 24 23  2  0  0  0  0
 25 32  1  0  0  0  0
 25 26  1  0  0  0  0
 26 31  1  0  0  0  0
 27 26  2  0  0  0  0
 27 28  1  0  0  0  0
 28 29  2  0  0  0  0
 29 30  1  0  0  0  0
 31 30  2  0  0  0  0
 33 28  1  0  0  0  0
 33 36  1  0  0  0  0
 33 35  1  0  0  0  0
 34 33  1  0  0  0  0
M  END
>  <minimizedAffinity>
-8.84293175

$$$$
