
 OpenBabel10152420003D

 36 39  0  0  0  0  0  0  0  0999 V2000
   -0.9260   -5.6780  -25.0080 C   0  0  0  0  0  2  0  0  0  0  0  0
   -0.8990  -11.5080  -23.1450 C   0  0  0  0  0  0  0  0  0  0  0  0
   -0.5960  -12.1510  -24.3560 C   0  0  0  0  0  3  0  0  0  0  0  0
   -0.4320  -11.3970  -25.5050 C   0  0  0  0  0  3  0  0  0  0  0  0
   -0.5640  -10.0120  -25.4300 C   0  0  0  0  0  3  0  0  0  0  0  0
   -0.8540   -9.3560  -24.2020 C   0  0  0  0  0  0  0  0  0  0  0  0
   -0.9650   -7.9570  -24.0530 C   0  0  0  0  0  0  0  0  0  0  0  0
   -0.7660   -7.1160  -25.1420 N   0  0  0  0  0  0  0  0  0  0  0  0
   -1.2890   -7.3930  -22.8790 N   0  0  0  0  0  0  0  0  0  0  0  0
   -1.4480   -8.2110  -21.8370 C   0  0  0  0  0  3  0  0  0  0  0  0
   -1.3100   -9.5370  -21.8540 N   0  0  0  0  0  0  0  0  0  0  0  0
   -1.0380  -10.1180  -23.0350 C   0  0  0  0  0  0  0  0  0  0  0  0
   -0.0900   -7.4150  -25.8290 H   0  0  0  0  0  0  0  0  0  0  0  0
   -2.3620  -12.3910  -21.4560 N   0  0  0  0  0  0  0  0  0  0  0  0
   -1.0910  -12.3650  -21.9610 C   0  0  0  0  0  0  0  0  0  0  0  0
   -0.1660  -12.9590  -21.4290 O   0  0  0  0  0  0  0  0  0  0  0  0
   -2.5280  -12.9690  -20.6420 H   0  0  0  0  0  0  0  0  0  0  0  0
   -3.1430  -11.9230  -21.8910 H   0  0  0  0  0  0  0  0  0  0  0  0
   -0.2430   -4.9980  -26.1740 C   0  0  0  0  0  0  0  0  0  0  0  0
   -0.4660   -3.6500  -26.4660 C   0  0  0  0  0  3  0  0  0  0  0  0
    0.1750   -3.0590  -27.5540 C   0  0  0  0  0  3  0  0  0  0  0  0
    1.0370   -3.8100  -28.3610 C   0  0  0  0  0  3  0  0  0  0  0  0
    1.2700   -5.1620  -28.1030 C   0  0  0  0  0  0  0  0  0  0  0  0
    0.6340   -5.7350  -26.9920 C   0  0  0  0  0  3  0  0  0  0  0  0
    2.1220   -5.9680  -28.8670 N   0  0  0  0  0  0  0  0  0  0  0  0
    2.8980   -7.0910  -28.6070 C   0  0  0  0  0  0  0  0  0  0  0  0
    2.6380   -7.9800  -27.5740 C   0  0  0  0  0  3  0  0  0  0  0  0
    3.4620   -9.1000  -27.3940 C   0  0  0  0  0  0  0  0  0  0  0  0
    4.5420   -9.2790  -28.2590 C   0  0  0  0  0  3  0  0  0  0  0  0
    4.7220   -8.3610  -29.2740 C   0  0  0  0  0  3  0  0  0  0  0  0
    3.9210   -7.2920  -29.4660 N   0  0  0  0  0  0  0  0  0  0  0  0
    2.4030   -5.5680  -29.7570 H   0  0  0  0  0  0  0  0  0  0  0  0
    3.2050  -10.0700  -26.2740 C   0  0  0  0  0  0  0  0  0  0  0  0
    2.3340  -11.0590  -26.6200 F   0  0  0  0  0  0  0  0  0  0  0  0
    4.3410  -10.6970  -25.8660 F   0  0  0  0  0  0  0  0  0  0  0  0
    2.6800   -9.4840  -25.1640 F   0  0  0  0  0  0  0  0  0  0  0  0
  2 12  1  0  0  0  0
  2 15  1  0  0  0  0
  3  2  2  0  0  0  0
  4  5  2  0  0  0  0
  4  3  1  0  0  0  0
  5  6  1  0  0  0  0
  6  7  2  0  0  0  0
  6 12  1  0  0  0  0
  7  9  1  0  0  0  0
  8  1  1  0  0  0  0
  8  7  1  0  0  0  0
  9 10  2  0  0  0  0
 11 10  1  0  0  0  0
 12 11  2  0  0  0  0
 13  8  1  0  0  0  0
 14 17  1  0  0  0  0
 15 14  1  0  0  0  0
 15 16  2  0  0  0  0
 18 14  1  0  0  0  0
 19  1  1  0  0  0  0
 20 19  1  0  0  0  0
 21 20  2  0  0  0  0
 22 23  2  0  0  0  0
 22 21  1  0  0  0  0
 23 24  1  0  0  0  0
 24 19  2  0  0  0  0
 25 26  1  0  0  0  0
 25 23  1  0  0  0  0
 26 27  1  0  0  0  0
 27 28  2  0  0  0  0
 28 33  1  0  0  0  0
 29 28  1  0  0  0  0
 30 29  2  0  0  0  0
 31 30  1  0  0  0  0
 31 26  2  0  0  0  0
 32 25  1  0  0  0  0
 33 35  1  0  0  0  0
 33 36  1  0  0  0  0
 34 33  1  0  0  0  0
M  END
>  <minimizedAffinity>
-9.86876392

$$$$
