
 OpenBabel10152420003D

 36 39  0  0  0  0  0  0  0  0999 V2000
   -1.0610   -6.5600  -24.0680 C   0  0  0  0  0  2  0  0  0  0  0  0
   -1.3820  -11.8530  -21.0140 C   0  0  0  0  0  0  0  0  0  0  0  0
   -0.5400  -12.6470  -21.8080 C   0  0  0  0  0  3  0  0  0  0  0  0
    0.0430  -12.1010  -22.9390 C   0  0  0  0  0  3  0  0  0  0  0  0
   -0.2160  -10.7700  -23.2580 C   0  0  0  0  0  3  0  0  0  0  0  0
   -1.0560   -9.9580  -22.4450 C   0  0  0  0  0  0  0  0  0  0  0  0
   -1.3290   -8.5960  -22.6930 C   0  0  0  0  0  0  0  0  0  0  0  0
   -0.7470   -7.9480  -23.7770 N   0  0  0  0  0  0  0  0  0  0  0  0
   -2.1690   -7.8900  -21.9210 N   0  0  0  0  0  0  0  0  0  0  0  0
   -2.6950   -8.5160  -20.8680 C   0  0  0  0  0  3  0  0  0  0  0  0
   -2.4610   -9.7790  -20.5100 N   0  0  0  0  0  0  0  0  0  0  0  0
   -1.6630  -10.5120  -21.3050 C   0  0  0  0  0  0  0  0  0  0  0  0
    0.1790   -8.2480  -24.0420 H   0  0  0  0  0  0  0  0  0  0  0  0
   -3.3560  -12.6470  -19.8960 N   0  0  0  0  0  0  0  0  0  0  0  0
   -1.9980  -12.4970  -19.8390 C   0  0  0  0  0  0  0  0  0  0  0  0
   -1.3470  -12.8170  -18.8550 O   0  0  0  0  0  0  0  0  0  0  0  0
   -3.8100  -13.0840  -19.1040 H   0  0  0  0  0  0  0  0  0  0  0  0
   -3.9080  -12.4070  -20.7060 H   0  0  0  0  0  0  0  0  0  0  0  0
   -0.2900   -6.1300  -25.2970 C   0  0  0  0  0  0  0  0  0  0  0  0
   -0.6700   -5.0110  -26.0430 C   0  0  0  0  0  3  0  0  0  0  0  0
    0.0590   -4.6500  -27.1740 C   0  0  0  0  0  3  0  0  0  0  0  0
    1.1680   -5.4050  -27.5730 C   0  0  0  0  0  3  0  0  0  0  0  0
    1.5640   -6.5350  -26.8560 C   0  0  0  0  0  0  0  0  0  0  0  0
    0.8330   -6.8720  -25.7080 C   0  0  0  0  0  3  0  0  0  0  0  0
    2.6640   -7.3310  -27.1980 N   0  0  0  0  0  0  0  0  0  0  0  0
    2.9980   -8.6670  -27.0110 C   0  0  0  0  0  0  0  0  0  0  0  0
    2.0610   -9.6730  -26.8210 C   0  0  0  0  0  3  0  0  0  0  0  0
    2.4860  -10.9990  -26.6580 C   0  0  0  0  0  0  0  0  0  0  0  0
    3.8550  -11.2680  -26.6770 C   0  0  0  0  0  3  0  0  0  0  0  0
    4.7220  -10.2160  -26.8900 C   0  0  0  0  0  3  0  0  0  0  0  0
    4.3200   -8.9390  -27.0680 N   0  0  0  0  0  0  0  0  0  0  0  0
    3.4930   -6.8160  -27.4770 H   0  0  0  0  0  0  0  0  0  0  0  0
    1.4880  -12.1030  -26.4400 C   0  0  0  0  0  0  0  0  0  0  0  0
    1.4050  -12.9580  -27.4970 F   0  0  0  0  0  0  0  0  0  0  0  0
    1.7990  -12.8700  -25.3600 F   0  0  0  0  0  0  0  0  0  0  0  0
    0.2220  -11.6500  -26.2270 F   0  0  0  0  0  0  0  0  0  0  0  0
  1  8  1  0  0  0  0
  2 15  1  0  0  0  0
  3  2  2  0  0  0  0
  4  3  1  0  0  0  0
  5  4  2  0  0  0  0
  5  6  1  0  0  0  0
  6 12  1  0  0  0  0
  7  6  2  0  0  0  0
  7  9  1  0  0  0  0
  8  7  1  0  0  0  0
  9 10  2  0  0  0  0
 10 11  1  0  0  0  0
 12  2  1  0  0  0  0
 12 11  2  0  0  0  0
 13  8  1  0  0  0  0
 14 15  1  0  0  0  0
 14 17  1  0  0  0  0
 15 16  2  0  0  0  0
 18 14  1  0  0  0  0
 19  1  1  0  0  0  0
 20 19  2  0  0  0  0
 21 20  1  0  0  0  0
 22 21  2  0  0  0  0
 22 23  1  0  0  0  0
 23 24  2  0  0  0  0
 24 19  1  0  0  0  0
 25 26  1  0  0  0  0
 25 23  1  0  0  0  0
 26 27  1  0  0  0  0
 27 28  2  0  0  0  0
 28 33  1  0  0  0  0
 29 28  1  0  0  0  0
 30 29  2  0  0  0  0
 31 26  2  0  0  0  0
 31 30  1  0  0  0  0
 32 25  1  0  0  0  0
 33 36  1  0  0  0  0
 33 35  1  0  0  0  0
 34 33  1  0  0  0  0
M  END
>  <minimizedAffinity>
-10.2396517

$$$$
