
 OpenBabel10152420003D

 36 39  0  0  0  0  0  0  0  0999 V2000
    0.8800  -12.4130  -26.2270 C   0  0  0  0  0  2  0  0  0  0  0  0
   -1.8820   -9.8270  -21.4180 C   0  0  0  0  0  0  0  0  0  0  0  0
   -1.6730  -10.8210  -20.4500 C   0  0  0  0  0  3  0  0  0  0  0  0
   -1.0080  -11.9840  -20.8010 C   0  0  0  0  0  3  0  0  0  0  0  0
   -0.5540  -12.1350  -22.1100 C   0  0  0  0  0  3  0  0  0  0  0  0
   -0.7490  -11.1210  -23.0880 C   0  0  0  0  0  0  0  0  0  0  0  0
   -0.2840  -11.1970  -24.4180 C   0  0  0  0  0  0  0  0  0  0  0  0
    0.4390  -12.3050  -24.8480 N   0  0  0  0  0  0  0  0  0  0  0  0
   -0.5390  -10.2320  -25.3150 N   0  0  0  0  0  0  0  0  0  0  0  0
   -1.2070   -9.1630  -24.8800 C   0  0  0  0  0  3  0  0  0  0  0  0
   -1.6420   -8.9630  -23.6350 N   0  0  0  0  0  0  0  0  0  0  0  0
   -1.4390   -9.9460  -22.7420 C   0  0  0  0  0  0  0  0  0  0  0  0
    1.0340  -12.7520  -24.1660 H   0  0  0  0  0  0  0  0  0  0  0  0
   -3.4940   -8.1160  -21.9160 N   0  0  0  0  0  0  0  0  0  0  0  0
   -2.6220   -8.6240  -20.9940 C   0  0  0  0  0  0  0  0  0  0  0  0
   -2.4220   -8.0810  -19.9170 O   0  0  0  0  0  0  0  0  0  0  0  0
   -4.0180   -7.2890  -21.6570 H   0  0  0  0  0  0  0  0  0  0  0  0
   -3.6880   -8.5600  -22.8020 H   0  0  0  0  0  0  0  0  0  0  0  0
    2.1970  -11.6840  -26.3800 C   0  0  0  0  0  0  0  0  0  0  0  0
    3.4020  -12.2570  -25.9640 C   0  0  0  0  0  3  0  0  0  0  0  0
    4.5950  -11.5510  -26.1140 C   0  0  0  0  0  3  0  0  0  0  0  0
    4.5940  -10.2680  -26.6730 C   0  0  0  0  0  3  0  0  0  0  0  0
    3.4050   -9.6640  -27.0860 C   0  0  0  0  0  0  0  0  0  0  0  0
    2.2170  -10.3960  -26.9480 C   0  0  0  0  0  3  0  0  0  0  0  0
    3.3340   -8.3870  -27.6550 N   0  0  0  0  0  0  0  0  0  0  0  0
    2.4420   -7.3250  -27.5640 C   0  0  0  0  0  0  0  0  0  0  0  0
    1.6040   -7.1190  -26.4780 C   0  0  0  0  0  3  0  0  0  0  0  0
    0.7460   -6.0100  -26.4600 C   0  0  0  0  0  0  0  0  0  0  0  0
    0.7490   -5.1470  -27.5560 C   0  0  0  0  0  3  0  0  0  0  0  0
    1.6250   -5.4110  -28.5900 C   0  0  0  0  0  3  0  0  0  0  0  0
    2.4690   -6.4640  -28.6050 N   0  0  0  0  0  0  0  0  0  0  0  0
    3.9460   -8.2400  -28.4500 H   0  0  0  0  0  0  0  0  0  0  0  0
   -0.1780   -5.7720  -25.2980 C   0  0  0  0  0  0  0  0  0  0  0  0
   -0.3910   -4.4500  -25.0520 F   0  0  0  0  0  0  0  0  0  0  0  0
   -1.4080   -6.3190  -25.4980 F   0  0  0  0  0  0  0  0  0  0  0  0
    0.2810   -6.2990  -24.1290 F   0  0  0  0  0  0  0  0  0  0  0  0
  1  8  1  0  0  0  0
  2 15  1  0  0  0  0
  2  3  1  0  0  0  0
  4  3  2  0  0  0  0
  5  4  1  0  0  0  0
  6 12  1  0  0  0  0
  6  5  2  0  0  0  0
  7  6  1  0  0  0  0
  8  7  1  0  0  0  0
  8 13  1  0  0  0  0
  9 10  1  0  0  0  0
  9  7  2  0  0  0  0
 10 11  2  0  0  0  0
 11 12  1  0  0  0  0
 12  2  2  0  0  0  0
 14 17  1  0  0  0  0
 14 15  1  0  0  0  0
 15 16  2  0  0  0  0
 18 14  1  0  0  0  0
 19  1  1  0  0  0  0
 19 20  1  0  0  0  0
 21 20  2  0  0  0  0
 22 21  1  0  0  0  0
 23 24  1  0  0  0  0
 23 22  2  0  0  0  0
 24 19  2  0  0  0  0
 25 26  1  0  0  0  0
 25 23  1  0  0  0  0
 26 27  1  0  0  0  0
 27 28  2  0  0  0  0
 28 33  1  0  0  0  0
 29 28  1  0  0  0  0
 30 29  2  0  0  0  0
 31 30  1  0  0  0  0
 31 26  2  0  0  0  0
 32 25  1  0  0  0  0
 33 34  1  0  0  0  0
 33 36  1  0  0  0  0
 35 33  1  0  0  0  0
M  END
>  <minimizedAffinity>
-9.75544357

$$$$
