
 OpenBabel10152420003D

 36 39  0  0  0  0  0  0  0  0999 V2000
   -1.0610   -6.5600  -24.0680 C   0  0  0  0  0  2  0  0  0  0  0  0
   -1.3820  -11.8530  -21.0140 C   0  0  0  0  0  0  0  0  0  0  0  0
   -0.5400  -12.6470  -21.8080 C   0  0  0  0  0  3  0  0  0  0  0  0
    0.0430  -12.1010  -22.9390 C   0  0  0  0  0  3  0  0  0  0  0  0
   -0.2160  -10.7700  -23.2580 C   0  0  0  0  0  3  0  0  0  0  0  0
   -1.0560   -9.9580  -22.4450 C   0  0  0  0  0  0  0  0  0  0  0  0
   -1.3290   -8.5960  -22.6930 C   0  0  0  0  0  0  0  0  0  0  0  0
   -0.7470   -7.9480  -23.7770 N   0  0  0  0  0  0  0  0  0  0  0  0
   -2.1690   -7.8900  -21.9210 N   0  0  0  0  0  0  0  0  0  0  0  0
   -2.6950   -8.5160  -20.8680 C   0  0  0  0  0  3  0  0  0  0  0  0
   -2.4610   -9.7790  -20.5100 N   0  0  0  0  0  0  0  0  0  0  0  0
   -1.6630  -10.5120  -21.3050 C   0  0  0  0  0  0  0  0  0  0  0  0
    0.1790   -8.2480  -24.0420 H   0  0  0  0  0  0  0  0  0  0  0  0
   -3.3560  -12.6470  -19.8960 N   0  0  0  0  0  0  0  0  0  0  0  0
   -1.9980  -12.4970  -19.8390 C   0  0  0  0  0  0  0  0  0  0  0  0
   -1.3470  -12.8170  -18.8550 O   0  0  0  0  0  0  0  0  0  0  0  0
   -3.8100  -13.0840  -19.1040 H   0  0  0  0  0  0  0  0  0  0  0  0
   -3.9080  -12.4070  -20.7060 H   0  0  0  0  0  0  0  0  0  0  0  0
   -0.2900   -6.1300  -25.2970 C   0  0  0  0  0  0  0  0  0  0  0  0
   -0.6700   -5.0110  -26.0430 C   0  0  0  0  0  3  0  0  0  0  0  0
    0.0590   -4.6500  -27.1740 C   0  0  0  0  0  3  0  0  0  0  0  0
    1.1680   -5.4050  -27.5730 C   0  0  0  0  0  3  0  0  0  0  0  0
    1.5640   -6.5350  -26.8560 C   0  0  0  0  0  0  0  0  0  0  0  0
    0.8330   -6.8720  -25.7080 C   0  0  0  0  0  3  0  0  0  0  0  0
    2.6640   -7.3310  -27.1980 N   0  0  0  0  0  0  0  0  0  0  0  0
    2.9980   -8.6670  -27.0110 C   0  0  0  0  0  0  0  0  0  0  0  0
    2.0610   -9.6730  -26.8210 C   0  0  0  0  0  3  0  0  0  0  0  0
    2.4860  -10.9990  -26.6580 C   0  0  0  0  0  0  0  0  0  0  0  0
    3.8550  -11.2680  -26.6770 C   0  0  0  0  0  3  0  0  0  0  0  0
    4.7220  -10.2160  -26.8900 C   0  0  0  0  0  3  0  0  0  0  0  0
    4.3200   -8.9390  -27.0680 N   0  0  0  0  0  0  0  0  0  0  0  0
    3.4930   -6.8160  -27.4770 H   0  0  0  0  0  0  0  0  0  0  0  0
    1.4880  -12.1030  -26.4400 C   0  0  0  0  0  0  0  0  0  0  0  0
    1.4050  -12.9580  -27.4970 F   0  0  0  0  0  0  0  0  0  0  0  0
    1.7990  -12.8700  -25.3600 F   0  0  0  0  0  0  0  0  0  0  0  0
    0.2220  -11.6500  -26.2270 F   0  0  0  0  0  0  0  0  0  0  0  0
  1  8  1  0  0  0  0
  2 15  1  0  0  0  0
  3  2  2  0  0  0  0
  4  3  1  0  0  0  0
  5  4  2  0  0  0  0
  5  6  1  0  0  0  0
  6 12  1  0  0  0  0
  7  6  2  0  0  0  0
  7  9  1  0  0  0  0
  8  7  1  0  0  0  0
  9 10  2  0  0  0  0
 10 11  1  0  0  0  0
 12  2  1  0  0  0  0
 12 11  2  0  0  0  0
 13  8  1  0  0  0  0
 14 15  1  0  0  0  0
 14 17  1  0  0  0  0
 15 16  2  0  0  0  0
 18 14  1  0  0  0  0
 19  1  1  0  0  0  0
 20 19  2  0  0  0  0
 21 20  1  0  0  0  0
 22 21  2  0  0  0  0
 22 23  1  0  0  0  0
 23 24  2  0  0  0  0
 24 19  1  0  0  0  0
 25 26  1  0  0  0  0
 25 23  1  0  0  0  0
 26 27  1  0  0  0  0
 27 28  2  0  0  0  0
 28 33  1  0  0  0  0
 29 28  1  0  0  0  0
 30 29  2  0  0  0  0
 31 26  2  0  0  0  0
 31 30  1  0  0  0  0
 32 25  1  0  0  0  0
 33 36  1  0  0  0  0
 33 35  1  0  0  0  0
 34 33  1  0  0  0  0
M  END
>  <minimizedAffinity>
-10.2396517

$$$$

 OpenBabel10152420003D

 36 39  0  0  0  0  0  0  0  0999 V2000
   -0.9260   -5.6780  -25.0080 C   0  0  0  0  0  2  0  0  0  0  0  0
   -0.8990  -11.5080  -23.1450 C   0  0  0  0  0  0  0  0  0  0  0  0
   -0.5960  -12.1510  -24.3560 C   0  0  0  0  0  3  0  0  0  0  0  0
   -0.4320  -11.3970  -25.5050 C   0  0  0  0  0  3  0  0  0  0  0  0
   -0.5640  -10.0120  -25.4300 C   0  0  0  0  0  3  0  0  0  0  0  0
   -0.8540   -9.3560  -24.2020 C   0  0  0  0  0  0  0  0  0  0  0  0
   -0.9650   -7.9570  -24.0530 C   0  0  0  0  0  0  0  0  0  0  0  0
   -0.7660   -7.1160  -25.1420 N   0  0  0  0  0  0  0  0  0  0  0  0
   -1.2890   -7.3930  -22.8790 N   0  0  0  0  0  0  0  0  0  0  0  0
   -1.4480   -8.2110  -21.8370 C   0  0  0  0  0  3  0  0  0  0  0  0
   -1.3100   -9.5370  -21.8540 N   0  0  0  0  0  0  0  0  0  0  0  0
   -1.0380  -10.1180  -23.0350 C   0  0  0  0  0  0  0  0  0  0  0  0
   -0.0900   -7.4150  -25.8290 H   0  0  0  0  0  0  0  0  0  0  0  0
   -2.3620  -12.3910  -21.4560 N   0  0  0  0  0  0  0  0  0  0  0  0
   -1.0910  -12.3650  -21.9610 C   0  0  0  0  0  0  0  0  0  0  0  0
   -0.1660  -12.9590  -21.4290 O   0  0  0  0  0  0  0  0  0  0  0  0
   -2.5280  -12.9690  -20.6420 H   0  0  0  0  0  0  0  0  0  0  0  0
   -3.1430  -11.9230  -21.8910 H   0  0  0  0  0  0  0  0  0  0  0  0
   -0.2430   -4.9980  -26.1740 C   0  0  0  0  0  0  0  0  0  0  0  0
   -0.4660   -3.6500  -26.4660 C   0  0  0  0  0  3  0  0  0  0  0  0
    0.1750   -3.0590  -27.5540 C   0  0  0  0  0  3  0  0  0  0  0  0
    1.0370   -3.8100  -28.3610 C   0  0  0  0  0  3  0  0  0  0  0  0
    1.2700   -5.1620  -28.1030 C   0  0  0  0  0  0  0  0  0  0  0  0
    0.6340   -5.7350  -26.9920 C   0  0  0  0  0  3  0  0  0  0  0  0
    2.1220   -5.9680  -28.8670 N   0  0  0  0  0  0  0  0  0  0  0  0
    2.8980   -7.0910  -28.6070 C   0  0  0  0  0  0  0  0  0  0  0  0
    2.6380   -7.9800  -27.5740 C   0  0  0  0  0  3  0  0  0  0  0  0
    3.4620   -9.1000  -27.3940 C   0  0  0  0  0  0  0  0  0  0  0  0
    4.5420   -9.2790  -28.2590 C   0  0  0  0  0  3  0  0  0  0  0  0
    4.7220   -8.3610  -29.2740 C   0  0  0  0  0  3  0  0  0  0  0  0
    3.9210   -7.2920  -29.4660 N   0  0  0  0  0  0  0  0  0  0  0  0
    2.4030   -5.5680  -29.7570 H   0  0  0  0  0  0  0  0  0  0  0  0
    3.2050  -10.0700  -26.2740 C   0  0  0  0  0  0  0  0  0  0  0  0
    2.3340  -11.0590  -26.6200 F   0  0  0  0  0  0  0  0  0  0  0  0
    4.3410  -10.6970  -25.8660 F   0  0  0  0  0  0  0  0  0  0  0  0
    2.6800   -9.4840  -25.1640 F   0  0  0  0  0  0  0  0  0  0  0  0
  2 12  1  0  0  0  0
  2 15  1  0  0  0  0
  3  2  2  0  0  0  0
  4  5  2  0  0  0  0
  4  3  1  0  0  0  0
  5  6  1  0  0  0  0
  6  7  2  0  0  0  0
  6 12  1  0  0  0  0
  7  9  1  0  0  0  0
  8  1  1  0  0  0  0
  8  7  1  0  0  0  0
  9 10  2  0  0  0  0
 11 10  1  0  0  0  0
 12 11  2  0  0  0  0
 13  8  1  0  0  0  0
 14 17  1  0  0  0  0
 15 14  1  0  0  0  0
 15 16  2  0  0  0  0
 18 14  1  0  0  0  0
 19  1  1  0  0  0  0
 20 19  1  0  0  0  0
 21 20  2  0  0  0  0
 22 23  2  0  0  0  0
 22 21  1  0  0  0  0
 23 24  1  0  0  0  0
 24 19  2  0  0  0  0
 25 26  1  0  0  0  0
 25 23  1  0  0  0  0
 26 27  1  0  0  0  0
 27 28  2  0  0  0  0
 28 33  1  0  0  0  0
 29 28  1  0  0  0  0
 30 29  2  0  0  0  0
 31 30  1  0  0  0  0
 31 26  2  0  0  0  0
 32 25  1  0  0  0  0
 33 35  1  0  0  0  0
 33 36  1  0  0  0  0
 34 33  1  0  0  0  0
M  END
>  <minimizedAffinity>
-9.86876392

$$$$

 OpenBabel10152420003D

 36 39  0  0  0  0  0  0  0  0999 V2000
    0.8800  -12.4130  -26.2270 C   0  0  0  0  0  2  0  0  0  0  0  0
   -1.8820   -9.8270  -21.4180 C   0  0  0  0  0  0  0  0  0  0  0  0
   -1.6730  -10.8210  -20.4500 C   0  0  0  0  0  3  0  0  0  0  0  0
   -1.0080  -11.9840  -20.8010 C   0  0  0  0  0  3  0  0  0  0  0  0
   -0.5540  -12.1350  -22.1100 C   0  0  0  0  0  3  0  0  0  0  0  0
   -0.7490  -11.1210  -23.0880 C   0  0  0  0  0  0  0  0  0  0  0  0
   -0.2840  -11.1970  -24.4180 C   0  0  0  0  0  0  0  0  0  0  0  0
    0.4390  -12.3050  -24.8480 N   0  0  0  0  0  0  0  0  0  0  0  0
   -0.5390  -10.2320  -25.3150 N   0  0  0  0  0  0  0  0  0  0  0  0
   -1.2070   -9.1630  -24.8800 C   0  0  0  0  0  3  0  0  0  0  0  0
   -1.6420   -8.9630  -23.6350 N   0  0  0  0  0  0  0  0  0  0  0  0
   -1.4390   -9.9460  -22.7420 C   0  0  0  0  0  0  0  0  0  0  0  0
    1.0340  -12.7520  -24.1660 H   0  0  0  0  0  0  0  0  0  0  0  0
   -3.4940   -8.1160  -21.9160 N   0  0  0  0  0  0  0  0  0  0  0  0
   -2.6220   -8.6240  -20.9940 C   0  0  0  0  0  0  0  0  0  0  0  0
   -2.4220   -8.0810  -19.9170 O   0  0  0  0  0  0  0  0  0  0  0  0
   -4.0180   -7.2890  -21.6570 H   0  0  0  0  0  0  0  0  0  0  0  0
   -3.6880   -8.5600  -22.8020 H   0  0  0  0  0  0  0  0  0  0  0  0
    2.1970  -11.6840  -26.3800 C   0  0  0  0  0  0  0  0  0  0  0  0
    3.4020  -12.2570  -25.9640 C   0  0  0  0  0  3  0  0  0  0  0  0
    4.5950  -11.5510  -26.1140 C   0  0  0  0  0  3  0  0  0  0  0  0
    4.5940  -10.2680  -26.6730 C   0  0  0  0  0  3  0  0  0  0  0  0
    3.4050   -9.6640  -27.0860 C   0  0  0  0  0  0  0  0  0  0  0  0
    2.2170  -10.3960  -26.9480 C   0  0  0  0  0  3  0  0  0  0  0  0
    3.3340   -8.3870  -27.6550 N   0  0  0  0  0  0  0  0  0  0  0  0
    2.4420   -7.3250  -27.5640 C   0  0  0  0  0  0  0  0  0  0  0  0
    1.6040   -7.1190  -26.4780 C   0  0  0  0  0  3  0  0  0  0  0  0
    0.7460   -6.0100  -26.4600 C   0  0  0  0  0  0  0  0  0  0  0  0
    0.7490   -5.1470  -27.5560 C   0  0  0  0  0  3  0  0  0  0  0  0
    1.6250   -5.4110  -28.5900 C   0  0  0  0  0  3  0  0  0  0  0  0
    2.4690   -6.4640  -28.6050 N   0  0  0  0  0  0  0  0  0  0  0  0
    3.9460   -8.2400  -28.4500 H   0  0  0  0  0  0  0  0  0  0  0  0
   -0.1780   -5.7720  -25.2980 C   0  0  0  0  0  0  0  0  0  0  0  0
   -0.3910   -4.4500  -25.0520 F   0  0  0  0  0  0  0  0  0  0  0  0
   -1.4080   -6.3190  -25.4980 F   0  0  0  0  0  0  0  0  0  0  0  0
    0.2810   -6.2990  -24.1290 F   0  0  0  0  0  0  0  0  0  0  0  0
  1  8  1  0  0  0  0
  2 15  1  0  0  0  0
  2  3  1  0  0  0  0
  4  3  2  0  0  0  0
  5  4  1  0  0  0  0
  6 12  1  0  0  0  0
  6  5  2  0  0  0  0
  7  6  1  0  0  0  0
  8  7  1  0  0  0  0
  8 13  1  0  0  0  0
  9 10  1  0  0  0  0
  9  7  2  0  0  0  0
 10 11  2  0  0  0  0
 11 12  1  0  0  0  0
 12  2  2  0  0  0  0
 14 17  1  0  0  0  0
 14 15  1  0  0  0  0
 15 16  2  0  0  0  0
 18 14  1  0  0  0  0
 19  1  1  0  0  0  0
 19 20  1  0  0  0  0
 21 20  2  0  0  0  0
 22 21  1  0  0  0  0
 23 24  1  0  0  0  0
 23 22  2  0  0  0  0
 24 19  2  0  0  0  0
 25 26  1  0  0  0  0
 25 23  1  0  0  0  0
 26 27  1  0  0  0  0
 27 28  2  0  0  0  0
 28 33  1  0  0  0  0
 29 28  1  0  0  0  0
 30 29  2  0  0  0  0
 31 30  1  0  0  0  0
 31 26  2  0  0  0  0
 32 25  1  0  0  0  0
 33 34  1  0  0  0  0
 33 36  1  0  0  0  0
 35 33  1  0  0  0  0
M  END
>  <minimizedAffinity>
-9.75544357

$$$$

 OpenBabel10152420003D

 36 39  0  0  0  0  0  0  0  0999 V2000
    0.4510  -12.4460  -25.8130 C   0  0  0  0  0  2  0  0  0  0  0  0
   -2.2920   -8.5550  -21.9670 C   0  0  0  0  0  0  0  0  0  0  0  0
   -2.9010   -7.6880  -22.8880 C   0  0  0  0  0  3  0  0  0  0  0  0
   -2.7210   -7.8990  -24.2440 C   0  0  0  0  0  3  0  0  0  0  0  0
   -1.9430   -8.9760  -24.6640 C   0  0  0  0  0  3  0  0  0  0  0  0
   -1.3390   -9.8670  -23.7330 C   0  0  0  0  0  0  0  0  0  0  0  0
   -0.5700  -10.9940  -24.0940 C   0  0  0  0  0  0  0  0  0  0  0  0
   -0.3780  -11.3160  -25.4330 N   0  0  0  0  0  0  0  0  0  0  0  0
    0.0180  -11.7740  -23.1740 N   0  0  0  0  0  0  0  0  0  0  0  0
   -0.2000  -11.4710  -21.8930 C   0  0  0  0  0  3  0  0  0  0  0  0
   -0.9530  -10.4660  -21.4430 N   0  0  0  0  0  0  0  0  0  0  0  0
   -1.5050   -9.6470  -22.3550 C   0  0  0  0  0  0  0  0  0  0  0  0
   -1.1350  -11.1010  -26.0650 H   0  0  0  0  0  0  0  0  0  0  0  0
   -3.6980   -7.6980  -20.2170 N   0  0  0  0  0  0  0  0  0  0  0  0
   -2.4940   -8.2640  -20.5360 C   0  0  0  0  0  0  0  0  0  0  0  0
   -1.6220   -8.4550  -19.7020 O   0  0  0  0  0  0  0  0  0  0  0  0
   -3.8690   -7.4840  -19.2430 H   0  0  0  0  0  0  0  0  0  0  0  0
   -4.4380   -7.5510  -20.8870 H   0  0  0  0  0  0  0  0  0  0  0  0
    1.8690  -11.9640  -26.0280 C   0  0  0  0  0  0  0  0  0  0  0  0
    2.9680  -12.7130  -25.6020 C   0  0  0  0  0  3  0  0  0  0  0  0
    4.2600  -12.2330  -25.8100 C   0  0  0  0  0  3  0  0  0  0  0  0
    4.4640  -11.0000  -26.4390 C   0  0  0  0  0  3  0  0  0  0  0  0
    3.3860  -10.2220  -26.8650 C   0  0  0  0  0  0  0  0  0  0  0  0
    2.0940  -10.7290  -26.6670 C   0  0  0  0  0  3  0  0  0  0  0  0
    3.5200   -8.9820  -27.5020 N   0  0  0  0  0  0  0  0  0  0  0  0
    2.7370   -7.8380  -27.5870 C   0  0  0  0  0  0  0  0  0  0  0  0
    1.7910   -7.4840  -26.6350 C   0  0  0  0  0  3  0  0  0  0  0  0
    1.0560   -6.2990  -26.7890 C   0  0  0  0  0  0  0  0  0  0  0  0
    1.2900   -5.5130  -27.9170 C   0  0  0  0  0  3  0  0  0  0  0  0
    2.2600   -5.9230  -28.8080 C   0  0  0  0  0  3  0  0  0  0  0  0
    2.9860   -7.0510  -28.6560 N   0  0  0  0  0  0  0  0  0  0  0  0
    4.2420   -8.9450  -28.2140 H   0  0  0  0  0  0  0  0  0  0  0  0
    0.0200   -5.9020  -25.7750 C   0  0  0  0  0  0  0  0  0  0  0  0
    0.2130   -6.4890  -24.5610 F   0  0  0  0  0  0  0  0  0  0  0  0
    0.0130   -4.5610  -25.5460 F   0  0  0  0  0  0  0  0  0  0  0  0
   -1.2490   -6.2260  -26.1470 F   0  0  0  0  0  0  0  0  0  0  0  0
  1  8  1  0  0  0  0
  2 15  1  0  0  0  0
  3  2  2  0  0  0  0
  4  3  1  0  0  0  0
  5  4  2  0  0  0  0
  5  6  1  0  0  0  0
  6 12  1  0  0  0  0
  7  6  2  0  0  0  0
  7  9  1  0  0  0  0
  8  7  1  0  0  0  0
  9 10  2  0  0  0  0
 10 11  1  0  0  0  0
 12  2  1  0  0  0  0
 12 11  2  0  0  0  0
 13  8  1  0  0  0  0
 14 17  1  0  0  0  0
 15 14  1  0  0  0  0
 15 16  2  0  0  0  0
 18 14  1  0  0  0  0
 19  1  1  0  0  0  0
 19 20  1  0  0  0  0
 21 20  2  0  0  0  0
 22 21  1  0  0  0  0
 23 24  1  0  0  0  0
 23 22  2  0  0  0  0
 24 19  2  0  0  0  0
 25 23  1  0  0  0  0
 26 25  1  0  0  0  0
 26 27  1  0  0  0  0
 28 27  2  0  0  0  0
 28 33  1  0  0  0  0
 29 28  1  0  0  0  0
 30 31  1  0  0  0  0
 30 29  2  0  0  0  0
 31 26  2  0  0  0  0
 32 25  1  0  0  0  0
 33 35  1  0  0  0  0
 33 34  1  0  0  0  0
 36 33  1  0  0  0  0
M  END
>  <minimizedAffinity>
-9.01571465

$$$$

 OpenBabel10152420003D

 36 39  0  0  0  0  0  0  0  0999 V2000
    2.5570   -9.3470  -26.9070 C   0  0  0  0  0  2  0  0  0  0  0  0
   -0.4820   -4.1590  -25.7640 C   0  0  0  0  0  0  0  0  0  0  0  0
   -0.7900   -4.3480  -24.4070 C   0  0  0  0  0  3  0  0  0  0  0  0
   -0.4000   -5.5180  -23.7770 C   0  0  0  0  0  3  0  0  0  0  0  0
    0.3000   -6.4780  -24.5050 C   0  0  0  0  0  3  0  0  0  0  0  0
    0.6280   -6.2810  -25.8750 C   0  0  0  0  0  0  0  0  0  0  0  0
    1.3630   -7.1980  -26.6580 C   0  0  0  0  0  0  0  0  0  0  0  0
    1.8420   -8.3770  -26.0970 N   0  0  0  0  0  0  0  0  0  0  0  0
    1.6030   -6.9840  -27.9610 N   0  0  0  0  0  0  0  0  0  0  0  0
    1.1640   -5.8350  -28.4770 C   0  0  0  0  0  3  0  0  0  0  0  0
    0.5120   -4.8780  -27.8170 N   0  0  0  0  0  0  0  0  0  0  0  0
    0.2200   -5.1030  -26.5250 C   0  0  0  0  0  0  0  0  0  0  0  0
    2.1100   -8.3410  -25.1240 H   0  0  0  0  0  0  0  0  0  0  0  0
    0.0210   -2.1570  -26.9930 N   0  0  0  0  0  0  0  0  0  0  0  0
   -0.9490   -2.9080  -26.3890 C   0  0  0  0  0  0  0  0  0  0  0  0
   -2.1110   -2.5370  -26.3160 O   0  0  0  0  0  0  0  0  0  0  0  0
   -0.2670   -1.2910  -27.4310 H   0  0  0  0  0  0  0  0  0  0  0  0
    0.9810   -2.4540  -27.0810 H   0  0  0  0  0  0  0  0  0  0  0  0
    2.8420  -10.5720  -26.0660 C   0  0  0  0  0  0  0  0  0  0  0  0
    4.0920  -11.1960  -26.0850 C   0  0  0  0  0  3  0  0  0  0  0  0
    4.3160  -12.3290  -25.3030 C   0  0  0  0  0  3  0  0  0  0  0  0
    3.2930  -12.8490  -24.5020 C   0  0  0  0  0  3  0  0  0  0  0  0
    2.0300  -12.2560  -24.4720 C   0  0  0  0  0  0  0  0  0  0  0  0
    1.8280  -11.1050  -25.2480 C   0  0  0  0  0  3  0  0  0  0  0  0
    0.9660  -12.7230  -23.6910 N   0  0  0  0  0  0  0  0  0  0  0  0
   -0.0020  -12.1190  -22.8980 C   0  0  0  0  0  0  0  0  0  0  0  0
   -0.4260  -10.8090  -23.0690 C   0  0  0  0  0  3  0  0  0  0  0  0
   -1.4220  -10.2840  -22.2330 C   0  0  0  0  0  0  0  0  0  0  0  0
   -1.9520  -11.1000  -21.2340 C   0  0  0  0  0  3  0  0  0  0  0  0
   -1.4920  -12.3980  -21.1410 C   0  0  0  0  0  3  0  0  0  0  0  0
   -0.5470  -12.9170  -21.9530 N   0  0  0  0  0  0  0  0  0  0  0  0
    0.9900  -13.7170  -23.4880 H   0  0  0  0  0  0  0  0  0  0  0  0
   -1.8890   -8.8640  -22.3940 C   0  0  0  0  0  0  0  0  0  0  0  0
   -2.0160   -8.4930  -23.6990 F   0  0  0  0  0  0  0  0  0  0  0  0
   -3.1060   -8.6550  -21.8250 F   0  0  0  0  0  0  0  0  0  0  0  0
   -1.0480   -7.9540  -21.8290 F   0  0  0  0  0  0  0  0  0  0  0  0
  1  8  1  0  0  0  0
  1 19  1  0  0  0  0
  2  3  1  0  0  0  0
  3  4  2  0  0  0  0
  5  4  1  0  0  0  0
  6  5  2  0  0  0  0
  7  8  1  0  0  0  0
  7  6  1  0  0  0  0
  8 13  1  0  0  0  0
  9  7  2  0  0  0  0
 10  9  1  0  0  0  0
 10 11  2  0  0  0  0
 11 12  1  0  0  0  0
 12  6  1  0  0  0  0
 12  2  2  0  0  0  0
 14 15  1  0  0  0  0
 15 16  2  0  0  0  0
 15  2  1  0  0  0  0
 17 14  1  0  0  0  0
 18 14  1  0  0  0  0
 19 24  1  0  0  0  0
 20 19  2  0  0  0  0
 20 21  1  0  0  0  0
 21 22  2  0  0  0  0
 22 23  1  0  0  0  0
 23 25  1  0  0  0  0
 24 23  2  0  0  0  0
 25 32  1  0  0  0  0
 25 26  1  0  0  0  0
 26 31  1  0  0  0  0
 27 26  2  0  0  0  0
 27 28  1  0  0  0  0
 28 29  2  0  0  0  0
 29 30  1  0  0  0  0
 31 30  2  0  0  0  0
 33 28  1  0  0  0  0
 33 36  1  0  0  0  0
 33 35  1  0  0  0  0
 34 33  1  0  0  0  0
M  END
>  <minimizedAffinity>
-8.84293175

$$$$
