
 OpenBabel11232419363D

 41 46  0  0  1  0  0  0  0  0999 V2000
   60.4140  -42.2970   16.8540 C   0  0  0  0  0  0  0  0  0  0  0  0
   61.2830  -42.8840   15.9560 N   0  0  0  0  0  0  0  0  0  0  0  0
   62.4320  -42.2710   16.1210 C   0  0  0  0  0  0  0  0  0  0  0  0
   62.3340  -41.3040   17.0790 N   0  0  0  0  0  0  0  0  0  0  0  0
   61.0580  -41.3100   17.5940 C   0  0  0  0  0  0  0  0  0  0  0  0
   63.4820  -40.5180   17.4930 C   0  0  0  0  0  2  0  0  0  0  0  0
   64.5200  -40.4370   16.4930 O   0  0  0  0  0  0  0  0  0  0  0  0
   64.7070  -41.5380   15.6950 C   0  0  0  0  0  0  0  0  0  0  0  0
   65.9350  -41.6570   15.0500 C   0  0  0  0  0  3  0  0  0  0  0  0
   66.1740  -42.7410   14.1990 C   0  0  0  0  0  3  0  0  0  0  0  0
   65.1770  -43.7040   13.9850 C   0  0  0  0  0  0  0  0  0  0  0  0
   63.9300  -43.5580   14.6080 C   0  0  0  0  0  3  0  0  0  0  0  0
   63.6980  -42.4780   15.4620 C   0  0  0  0  0  0  0  0  0  0  0  0
   56.3450  -43.6940   17.3040 C   0  0  0  0  0  0  0  0  0  0  0  0
   57.4660  -44.5470   17.4090 C   0  0  0  0  0  3  0  0  0  0  0  0
   58.7760  -44.0820   17.2420 C   0  0  0  0  0  3  0  0  0  0  0  0
   59.0310  -42.7430   16.9400 C   0  0  0  0  0  0  0  0  0  0  0  0
   57.9420  -41.8840   16.7960 C   0  0  0  0  0  3  0  0  0  0  0  0
   56.6320  -42.3530   16.9760 C   0  0  0  0  0  3  0  0  0  0  0  0
   52.8940  -44.1090   20.4810 C   0  0  0  0  0  1  0  0  0  0  0  0
   54.1150  -43.8890   19.6030 C   0  0  1  0  0  0  0  0  0  0  0  0
   54.5800  -45.1510   18.8290 C   0  0  0  0  0  2  0  0  0  0  0  0
   54.8750  -44.2250   17.6100 C   0  0  1  0  0  0  0  0  0  0  0  0
   53.8410  -43.2320   18.2230 C   0  0  0  0  0  2  0  0  0  0  0  0
   54.3820  -44.8410   16.3520 N   0  0  0  0  0  4  0  0  0  0  0  0
   54.3640  -44.1570   15.5850 H   0  0  0  0  0  0  0  0  0  0  0  0
   55.0190  -45.5910   16.0470 H   0  0  0  0  0  0  0  0  0  0  0  0
   53.4420  -45.2440   16.4330 H   0  0  0  0  0  0  0  0  0  0  0  0
   55.1630  -43.2690   20.3710 O   0  0  0  0  0  0  0  0  0  0  0  0
   54.7700  -42.4920   20.8130 H   0  0  0  0  0  0  0  0  0  0  0  0
   60.6190  -40.4080   18.6470 C   0  0  0  0  0  0  0  0  0  0  0  0
   60.1640  -40.9160   19.8680 C   0  0  0  0  0  3  0  0  0  0  0  0
   59.7190  -40.0470   20.8660 C   0  0  0  0  0  3  0  0  0  0  0  0
   59.7310  -38.6690   20.6510 C   0  0  0  0  0  3  0  0  0  0  0  0
   60.1890  -38.1560   19.4370 C   0  0  0  0  0  3  0  0  0  0  0  0
   60.6290  -39.0230   18.4350 C   0  0  0  0  0  3  0  0  0  0  0  0
   65.3750  -44.8780   13.0920 C   0  0  0  0  0  0  0  0  0  0  0  0
   64.2800  -45.3900   12.4560 N   0  0  0  0  0  0  0  0  0  0  0  0
   66.4860  -45.3580   12.9040 O   0  0  0  0  0  0  0  0  0  0  0  0
   64.4320  -46.1830   11.8460 H   0  0  0  0  0  0  0  0  0  0  0  0
   63.3520  -44.9940   12.4950 H   0  0  0  0  0  0  0  0  0  0  0  0
  1 17  1  0  0  0  0
  1  5  2  0  0  0  0
  2  3  2  0  0  0  0
  2  1  1  0  0  0  0
  3  4  1  0  0  0  0
  4  6  1  0  0  0  0
  4  5  1  0  0  0  0
  5 31  1  0  0  0  0
  7  6  1  0  0  0  0
  8  7  1  0  0  0  0
  9  8  2  0  0  0  0
 10  9  1  0  0  0  0
 11 10  2  0  0  0  0
 11 12  1  0  0  0  0
 12 13  2  0  0  0  0
 13  8  1  0  0  0  0
 13  3  1  0  0  0  0
 14 15  1  0  0  0  0
 14 23  1  0  0  0  0
 16 15  2  0  0  0  0
 17 16  1  0  0  0  0
 18 17  2  0  0  0  0
 18 19  1  0  0  0  0
 19 14  2  0  0  0  0
 21 29  1  0  0  0  0
 21 20  1  1  0  0  0
 22 21  1  0  0  0  0
 23 25  1  6  0  0  0
 23 24  1  0  0  0  0
 23 22  1  0  0  0  0
 24 21  1  0  0  0  0
 25 28  1  0  0  0  0
 26 25  1  0  0  0  0
 27 25  1  0  0  0  0
 29 30  1  0  0  0  0
 31 32  1  0  0  0  0
 32 33  2  0  0  0  0
 34 33  1  0  0  0  0
 35 34  2  0  0  0  0
 36 31  2  0  0  0  0
 36 35  1  0  0  0  0
 37 11  1  0  0  0  0
 38 41  1  0  0  0  0
 38 37  1  0  0  0  0
 39 37  2  0  0  0  0
 40 38  1  0  0  0  0
M  END
>  <minimizedAffinity>
-5.21734095

$$$$

 OpenBabel11232419363D

 41 46  0  0  1  0  0  0  0  0999 V2000
   58.5360  -42.2800   17.4410 C   0  0  0  0  0  0  0  0  0  0  0  0
   57.8080  -41.9840   18.5770 N   0  0  0  0  0  0  0  0  0  0  0  0
   56.5490  -42.1550   18.2470 C   0  0  0  0  0  0  0  0  0  0  0  0
   56.4350  -42.5350   16.9420 N   0  0  0  0  0  0  0  0  0  0  0  0
   57.6940  -42.6540   16.3970 C   0  0  0  0  0  0  0  0  0  0  0  0
   55.1500  -42.8450   16.3440 C   0  0  0  0  0  2  0  0  0  0  0  0
   54.0340  -42.2140   17.0080 O   0  0  0  0  0  0  0  0  0  0  0  0
   54.1260  -42.0530   18.3680 C   0  0  0  0  0  0  0  0  0  0  0  0
   52.9390  -41.8650   19.0700 C   0  0  0  0  0  3  0  0  0  0  0  0
   52.9700  -41.6640   20.4540 C   0  0  0  0  0  3  0  0  0  0  0  0
   54.1950  -41.6420   21.1360 C   0  0  0  0  0  0  0  0  0  0  0  0
   55.3890  -41.7950   20.4190 C   0  0  0  0  0  3  0  0  0  0  0  0
   55.3530  -42.0020   19.0380 C   0  0  0  0  0  0  0  0  0  0  0  0
   62.8540  -42.1160   17.2860 C   0  0  0  0  0  0  0  0  0  0  0  0
   62.1300  -43.3260   17.2230 C   0  0  0  0  0  3  0  0  0  0  0  0
   60.7320  -43.3630   17.2930 C   0  0  0  0  0  3  0  0  0  0  0  0
   59.9880  -42.1920   17.4530 C   0  0  0  0  0  0  0  0  0  0  0  0
   60.6790  -40.9860   17.5540 C   0  0  0  0  0  3  0  0  0  0  0  0
   62.0790  -40.9520   17.4720 C   0  0  0  0  0  3  0  0  0  0  0  0
   66.4450  -42.2950   14.2450 C   0  0  0  0  0  1  0  0  0  0  0  0
   65.1670  -42.2630   15.0660 C   0  0  1  0  0  0  0  0  0  0  0  0
   65.1750  -43.2100   16.2960 C   0  0  0  0  0  2  0  0  0  0  0  0
   64.4350  -42.0920   17.0910 C   0  0  1  0  0  0  0  0  0  0  0  0
   65.0410  -41.0830   16.0680 C   0  0  0  0  0  2  0  0  0  0  0  0
   65.0230  -41.9360   18.4450 N   0  0  0  0  0  4  0  0  0  0  0  0
   64.7040  -41.0670   18.8920 H   0  0  0  0  0  0  0  0  0  0  0  0
   64.7110  -42.7000   19.0620 H   0  0  0  0  0  0  0  0  0  0  0  0
   66.0490  -41.9310   18.4500 H   0  0  0  0  0  0  0  0  0  0  0  0
   64.0280  -42.4510   14.2050 O   0  0  0  0  0  0  0  0  0  0  0  0
   64.1170  -41.8120   13.4720 H   0  0  0  0  0  0  0  0  0  0  0  0
   57.9320  -43.0560   15.0210 C   0  0  0  0  0  0  0  0  0  0  0  0
   58.1500  -44.4010   14.7050 C   0  0  0  0  0  3  0  0  0  0  0  0
   58.4050  -44.7790   13.3860 C   0  0  0  0  0  3  0  0  0  0  0  0
   58.4390  -43.8180   12.3770 C   0  0  0  0  0  3  0  0  0  0  0  0
   58.2180  -42.4750   12.6840 C   0  0  0  0  0  3  0  0  0  0  0  0
   57.9690  -42.0940   14.0030 C   0  0  0  0  0  3  0  0  0  0  0  0
   54.2900  -41.4350   22.6070 C   0  0  0  0  0  0  0  0  0  0  0  0
   55.4370  -41.8280   23.2360 N   0  0  0  0  0  0  0  0  0  0  0  0
   53.3860  -40.9000   23.2370 O   0  0  0  0  0  0  0  0  0  0  0  0
   55.4900  -41.6730   24.2340 H   0  0  0  0  0  0  0  0  0  0  0  0
   56.2540  -42.1930   22.7710 H   0  0  0  0  0  0  0  0  0  0  0  0
  1 17  1  0  0  0  0
  1  2  1  0  0  0  0
  3  2  2  0  0  0  0
  3 13  1  0  0  0  0
  4  3  1  0  0  0  0
  5  4  1  0  0  0  0
  5  1  2  0  0  0  0
  6  4  1  0  0  0  0
  6  7  1  0  0  0  0
  7  8  1  0  0  0  0
  8 13  2  0  0  0  0
  8  9  1  0  0  0  0
  9 10  2  0  0  0  0
 10 11  1  0  0  0  0
 11 37  1  0  0  0  0
 12 11  2  0  0  0  0
 13 12  1  0  0  0  0
 14 19  1  0  0  0  0
 15 14  2  0  0  0  0
 15 16  1  0  0  0  0
 16 17  2  0  0  0  0
 17 18  1  0  0  0  0
 19 18  2  0  0  0  0
 21 20  1  6  0  0  0
 21 24  1  0  0  0  0
 21 22  1  0  0  0  0
 22 23  1  0  0  0  0
 23 14  1  0  0  0  0
 23 25  1  1  0  0  0
 24 23  1  0  0  0  0
 25 28  1  0  0  0  0
 25 26  1  0  0  0  0
 25 27  1  0  0  0  0
 29 21  1  0  0  0  0
 30 29  1  0  0  0  0
 31  5  1  0  0  0  0
 32 31  1  0  0  0  0
 33 32  2  0  0  0  0
 34 35  2  0  0  0  0
 34 33  1  0  0  0  0
 35 36  1  0  0  0  0
 36 31  2  0  0  0  0
 37 38  1  0  0  0  0
 37 39  2  0  0  0  0
 38 40  1  0  0  0  0
 41 38  1  0  0  0  0
M  END
>  <minimizedAffinity>
-5.05998278

$$$$

 OpenBabel11232419363D

 41 46  0  0  1  0  0  0  0  0999 V2000
   60.4160  -42.2520   16.7770 C   0  0  0  0  0  0  0  0  0  0  0  0
   61.2900  -42.8450   15.8870 N   0  0  0  0  0  0  0  0  0  0  0  0
   62.4520  -42.2690   16.0940 C   0  0  0  0  0  0  0  0  0  0  0  0
   62.3590  -41.3220   17.0710 N   0  0  0  0  0  0  0  0  0  0  0  0
   61.0700  -41.3010   17.5550 C   0  0  0  0  0  0  0  0  0  0  0  0
   63.5180  -40.5790   17.5310 C   0  0  0  0  0  2  0  0  0  0  0  0
   64.5830  -40.5060   16.5580 O   0  0  0  0  0  0  0  0  0  0  0  0
   64.7570  -41.5940   15.7400 C   0  0  0  0  0  0  0  0  0  0  0  0
   65.9970  -41.7350   15.1220 C   0  0  0  0  0  3  0  0  0  0  0  0
   66.2260  -42.8060   14.2520 C   0  0  0  0  0  3  0  0  0  0  0  0
   65.2070  -43.7340   13.9920 C   0  0  0  0  0  0  0  0  0  0  0  0
   63.9500  -43.5660   14.5880 C   0  0  0  0  0  3  0  0  0  0  0  0
   63.7280  -42.4990   15.4610 C   0  0  0  0  0  0  0  0  0  0  0  0
   56.2210  -43.3000   16.7670 C   0  0  0  0  0  0  0  0  0  0  0  0
   56.6930  -42.0290   17.1600 C   0  0  0  0  0  3  0  0  0  0  0  0
   58.0560  -41.7110   17.1760 C   0  0  0  0  0  3  0  0  0  0  0  0
   59.0200  -42.6580   16.8190 C   0  0  0  0  0  0  0  0  0  0  0  0
   58.5840  -43.9330   16.4600 C   0  0  0  0  0  3  0  0  0  0  0  0
   57.2160  -44.2420   16.4350 C   0  0  0  0  0  3  0  0  0  0  0  0
   52.6320  -44.4330   13.9350 C   0  0  0  0  0  1  0  0  0  0  0  0
   53.9050  -44.0670   14.6820 C   0  0  1  0  0  0  0  0  0  0  0  0
   53.7600  -42.8440   15.6260 C   0  0  0  0  0  2  0  0  0  0  0  0
   54.6600  -43.5980   16.6510 C   0  0  1  0  0  0  0  0  0  0  0  0
   54.2070  -44.9150   15.9480 C   0  0  0  0  0  2  0  0  0  0  0  0
   54.1070  -43.4780   18.0230 N   0  0  0  0  0  4  0  0  0  0  0  0
   54.5530  -44.1460   18.6640 H   0  0  0  0  0  0  0  0  0  0  0  0
   54.3040  -42.5440   18.4090 H   0  0  0  0  0  0  0  0  0  0  0  0
   53.0930  -43.6280   18.0720 H   0  0  0  0  0  0  0  0  0  0  0  0
   54.9990  -43.9500   13.7550 O   0  0  0  0  0  0  0  0  0  0  0  0
   55.0030  -44.7640   13.2160 H   0  0  0  0  0  0  0  0  0  0  0  0
   60.6320  -40.4100   18.6170 C   0  0  0  0  0  0  0  0  0  0  0  0
   60.2590  -40.9260   19.8630 C   0  0  0  0  0  3  0  0  0  0  0  0
   59.8130  -40.0690   20.8710 C   0  0  0  0  0  3  0  0  0  0  0  0
   59.7430  -38.6950   20.6410 C   0  0  0  0  0  3  0  0  0  0  0  0
   60.1190  -38.1740   19.4030 C   0  0  0  0  0  3  0  0  0  0  0  0
   60.5590  -39.0290   18.3920 C   0  0  0  0  0  3  0  0  0  0  0  0
   65.3930  -44.8940   13.0780 C   0  0  0  0  0  0  0  0  0  0  0  0
   64.3000  -45.3560   12.4010 N   0  0  0  0  0  0  0  0  0  0  0  0
   66.4930  -45.4040   12.9080 O   0  0  0  0  0  0  0  0  0  0  0  0
   64.4440  -46.1400   11.7770 H   0  0  0  0  0  0  0  0  0  0  0  0
   63.3850  -44.9330   12.4240 H   0  0  0  0  0  0  0  0  0  0  0  0
  1 17  1  0  0  0  0
  1  5  2  0  0  0  0
  2  3  2  0  0  0  0
  2  1  1  0  0  0  0
  3  4  1  0  0  0  0
  4  6  1  0  0  0  0
  4  5  1  0  0  0  0
  5 31  1  0  0  0  0
  7  6  1  0  0  0  0
  8  7  1  0  0  0  0
  9  8  2  0  0  0  0
 10  9  1  0  0  0  0
 11 10  2  0  0  0  0
 11 12  1  0  0  0  0
 12 13  2  0  0  0  0
 13  8  1  0  0  0  0
 13  3  1  0  0  0  0
 14 15  1  0  0  0  0
 15 16  2  0  0  0  0
 17 16  1  0  0  0  0
 18 17  2  0  0  0  0
 19 18  1  0  0  0  0
 19 14  2  0  0  0  0
 21 20  1  6  0  0  0
 21 22  1  0  0  0  0
 21 24  1  0  0  0  0
 22 23  1  0  0  0  0
 23 14  1  0  0  0  0
 23 25  1  1  0  0  0
 24 23  1  0  0  0  0
 25 28  1  0  0  0  0
 25 27  1  0  0  0  0
 25 26  1  0  0  0  0
 29 21  1  0  0  0  0
 30 29  1  0  0  0  0
 31 32  1  0  0  0  0
 32 33  2  0  0  0  0
 34 33  1  0  0  0  0
 35 34  2  0  0  0  0
 36 31  2  0  0  0  0
 36 35  1  0  0  0  0
 37 11  1  0  0  0  0
 38 41  1  0  0  0  0
 38 37  1  0  0  0  0
 39 37  2  0  0  0  0
 40 38  1  0  0  0  0
M  END
>  <minimizedAffinity>
-4.91618538

$$$$

 OpenBabel11232419363D

 41 46  0  0  1  0  0  0  0  0999 V2000
   57.7470  -42.5030   16.4980 C   0  0  0  0  0  0  0  0  0  0  0  0
   59.0920  -42.1870   16.5360 N   0  0  0  0  0  0  0  0  0  0  0  0
   59.4970  -42.2140   15.2870 C   0  0  0  0  0  0  0  0  0  0  0  0
   58.4730  -42.5480   14.4500 N   0  0  0  0  0  0  0  0  0  0  0  0
   57.3240  -42.7130   15.1900 C   0  0  0  0  0  0  0  0  0  0  0  0
   58.6450  -42.5900   13.0090 C   0  0  0  0  0  2  0  0  0  0  0  0
   60.0110  -42.8050   12.5950 O   0  0  0  0  0  0  0  0  0  0  0  0
   60.9950  -42.2550   13.3770 C   0  0  0  0  0  0  0  0  0  0  0  0
   62.2450  -42.0700   12.7930 C   0  0  0  0  0  3  0  0  0  0  0  0
   63.2980  -41.5420   13.5480 C   0  0  0  0  0  3  0  0  0  0  0  0
   63.1010  -41.2080   14.8960 C   0  0  0  0  0  0  0  0  0  0  0  0
   61.8510  -41.4320   15.4890 C   0  0  0  0  0  3  0  0  0  0  0  0
   60.8010  -41.9530   14.7290 C   0  0  0  0  0  0  0  0  0  0  0  0
   55.6230  -42.7090   20.2600 C   0  0  0  0  0  0  0  0  0  0  0  0
   56.4670  -43.7430   19.7980 C   0  0  0  0  0  3  0  0  0  0  0  0
   57.1330  -43.6680   18.5690 C   0  0  0  0  0  3  0  0  0  0  0  0
   56.9710  -42.5650   17.7280 C   0  0  0  0  0  0  0  0  0  0  0  0
   56.1160  -41.5450   18.1420 C   0  0  0  0  0  3  0  0  0  0  0  0
   55.4600  -41.6190   19.3800 C   0  0  0  0  0  3  0  0  0  0  0  0
   52.6270  -44.9340   23.1320 C   0  0  0  0  0  1  0  0  0  0  0  0
   53.5360  -44.3480   22.0640 C   0  0  1  0  0  0  0  0  0  0  0  0
   53.4210  -42.8080   21.9050 C   0  0  0  0  0  2  0  0  0  0  0  0
   54.9670  -42.7690   21.7100 C   0  0  1  0  0  0  0  0  0  0  0  0
   55.0120  -44.1200   22.4880 C   0  0  0  0  0  2  0  0  0  0  0  0
   55.5660  -41.6560   22.4880 N   0  0  0  0  0  4  0  0  0  0  0  0
   56.5870  -41.7530   22.5520 H   0  0  0  0  0  0  0  0  0  0  0  0
   55.3980  -40.7570   22.0150 H   0  0  0  0  0  0  0  0  0  0  0  0
   55.2000  -41.5790   23.4430 H   0  0  0  0  0  0  0  0  0  0  0  0
   53.3640  -45.0660   20.8290 O   0  0  0  0  0  0  0  0  0  0  0  0
   53.4560  -46.0160   21.0370 H   0  0  0  0  0  0  0  0  0  0  0  0
   56.0410  -43.0610   14.6010 C   0  0  0  0  0  0  0  0  0  0  0  0
   55.6900  -44.4020   14.4110 C   0  0  0  0  0  3  0  0  0  0  0  0
   54.4690  -44.7300   13.8200 C   0  0  0  0  0  3  0  0  0  0  0  0
   53.5900  -43.7220   13.4230 C   0  0  0  0  0  3  0  0  0  0  0  0
   53.9310  -42.3830   13.6150 C   0  0  0  0  0  3  0  0  0  0  0  0
   55.1550  -42.0520   14.1990 C   0  0  0  0  0  3  0  0  0  0  0  0
   64.1820  -40.6420   15.7490 C   0  0  0  0  0  0  0  0  0  0  0  0
   64.2640  -39.2840   15.8590 N   0  0  0  0  0  0  0  0  0  0  0  0
   64.9590  -41.3650   16.3600 O   0  0  0  0  0  0  0  0  0  0  0  0
   64.9990  -38.9140   16.4490 H   0  0  0  0  0  0  0  0  0  0  0  0
   63.6090  -38.6310   15.4570 H   0  0  0  0  0  0  0  0  0  0  0  0
  1  2  1  0  0  0  0
  1 17  1  0  0  0  0
  3  2  2  0  0  0  0
  4  5  1  0  0  0  0
  4  3  1  0  0  0  0
  5  1  2  0  0  0  0
  6  4  1  0  0  0  0
  7  6  1  0  0  0  0
  7  8  1  0  0  0  0
  8 13  1  0  0  0  0
  9  8  2  0  0  0  0
  9 10  1  0  0  0  0
 10 11  2  0  0  0  0
 11 12  1  0  0  0  0
 11 37  1  0  0  0  0
 13  3  1  0  0  0  0
 13 12  2  0  0  0  0
 14 23  1  0  0  0  0
 15 14  1  0  0  0  0
 16 15  2  0  0  0  0
 17 18  2  0  0  0  0
 17 16  1  0  0  0  0
 18 19  1  0  0  0  0
 19 14  2  0  0  0  0
 21 24  1  0  0  0  0
 21 20  1  1  0  0  0
 22 21  1  0  0  0  0
 23 22  1  0  0  0  0
 23 24  1  0  0  0  0
 23 25  1  1  0  0  0
 25 26  1  0  0  0  0
 25 28  1  0  0  0  0
 27 25  1  0  0  0  0
 29 30  1  0  0  0  0
 29 21  1  0  0  0  0
 31  5  1  0  0  0  0
 32 31  1  0  0  0  0
 33 32  2  0  0  0  0
 34 35  2  0  0  0  0
 34 33  1  0  0  0  0
 35 36  1  0  0  0  0
 36 31  2  0  0  0  0
 37 38  1  0  0  0  0
 37 39  2  0  0  0  0
 38 40  1  0  0  0  0
 41 38  1  0  0  0  0
M  END
>  <minimizedAffinity>
-4.46992016

$$$$

 OpenBabel11232419363D

 41 46  0  0  1  0  0  0  0  0999 V2000
   58.1090  -43.2140   17.6890 C   0  0  0  0  0  0  0  0  0  0  0  0
   57.3440  -43.4660   18.8120 N   0  0  0  0  0  0  0  0  0  0  0  0
   56.1720  -43.8520   18.3630 C   0  0  0  0  0  0  0  0  0  0  0  0
   56.1470  -43.8430   16.9990 N   0  0  0  0  0  0  0  0  0  0  0  0
   57.3840  -43.4660   16.5290 C   0  0  0  0  0  0  0  0  0  0  0  0
   54.9830  -44.2830   16.2520 C   0  0  0  0  0  2  0  0  0  0  0  0
   53.7480  -44.1880   16.9950 O   0  0  0  0  0  0  0  0  0  0  0  0
   53.8120  -44.4190   18.3450 C   0  0  0  0  0  0  0  0  0  0  0  0
   52.6260  -44.7600   18.9910 C   0  0  0  0  0  3  0  0  0  0  0  0
   52.6210  -44.9780   20.3730 C   0  0  0  0  0  3  0  0  0  0  0  0
   53.8050  -44.8430   21.1130 C   0  0  0  0  0  0  0  0  0  0  0  0
   54.9870  -44.4630   20.4630 C   0  0  0  0  0  3  0  0  0  0  0  0
   54.9890  -44.2540   19.0830 C   0  0  0  0  0  0  0  0  0  0  0  0
   62.2390  -41.9450   17.8920 C   0  0  0  0  0  0  0  0  0  0  0  0
   61.8580  -43.2890   17.6810 C   0  0  0  0  0  3  0  0  0  0  0  0
   60.5170  -43.6860   17.6370 C   0  0  0  0  0  3  0  0  0  0  0  0
   59.4860  -42.7610   17.8230 C   0  0  0  0  0  0  0  0  0  0  0  0
   59.8320  -41.4340   18.0680 C   0  0  0  0  0  3  0  0  0  0  0  0
   61.1780  -41.0390   18.1000 C   0  0  0  0  0  3  0  0  0  0  0  0
   66.1390  -41.6570   15.2680 C   0  0  0  0  0  1  0  0  0  0  0  0
   64.7950  -41.8400   15.9560 C   0  0  1  0  0  0  0  0  0  0  0  0
   64.8820  -42.4900   17.3620 C   0  0  0  0  0  2  0  0  0  0  0  0
   63.7680  -41.5030   17.8250 C   0  0  1  0  0  0  0  0  0  0  0  0
   64.2210  -40.5770   16.6550 C   0  0  0  0  0  2  0  0  0  0  0  0
   64.0960  -40.9280   19.1530 N   0  0  0  0  0  4  0  0  0  0  0  0
   63.4980  -40.1190   19.3670 H   0  0  0  0  0  0  0  0  0  0  0  0
   63.9150  -41.6160   19.8980 H   0  0  0  0  0  0  0  0  0  0  0  0
   65.0730  -40.6250   19.2400 H   0  0  0  0  0  0  0  0  0  0  0  0
   63.8810  -42.5100   15.0690 O   0  0  0  0  0  0  0  0  0  0  0  0
   63.8990  -42.0250   14.2220 H   0  0  0  0  0  0  0  0  0  0  0  0
   57.7030  -43.3670   15.1140 C   0  0  0  0  0  0  0  0  0  0  0  0
   58.5840  -44.2780   14.5220 C   0  0  0  0  0  3  0  0  0  0  0  0
   58.9090  -44.1620   13.1700 C   0  0  0  0  0  3  0  0  0  0  0  0
   58.3500  -43.1410   12.4010 C   0  0  0  0  0  3  0  0  0  0  0  0
   57.4670  -42.2330   12.9830 C   0  0  0  0  0  3  0  0  0  0  0  0
   57.1460  -42.3420   14.3370 C   0  0  0  0  0  3  0  0  0  0  0  0
   53.8600  -45.0640   22.5840 C   0  0  0  0  0  0  0  0  0  0  0  0
   55.0640  -44.9070   23.2090 N   0  0  0  0  0  0  0  0  0  0  0  0
   52.8560  -45.3460   23.2270 O   0  0  0  0  0  0  0  0  0  0  0  0
   55.0840  -45.0530   24.2100 H   0  0  0  0  0  0  0  0  0  0  0  0
   55.9110  -44.5920   22.7600 H   0  0  0  0  0  0  0  0  0  0  0  0
  1 17  1  0  0  0  0
  1  2  1  0  0  0  0
  3  2  2  0  0  0  0
  3 13  1  0  0  0  0
  4  3  1  0  0  0  0
  5  4  1  0  0  0  0
  5  1  2  0  0  0  0
  6  7  1  0  0  0  0
  6  4  1  0  0  0  0
  7  8  1  0  0  0  0
  8  9  2  0  0  0  0
  8 13  1  0  0  0  0
  9 10  1  0  0  0  0
 10 11  2  0  0  0  0
 11 37  1  0  0  0  0
 12 11  1  0  0  0  0
 13 12  2  0  0  0  0
 14 19  1  0  0  0  0
 15 14  2  0  0  0  0
 16 15  1  0  0  0  0
 16 17  2  0  0  0  0
 17 18  1  0  0  0  0
 18 19  2  0  0  0  0
 21 20  1  6  0  0  0
 21 24  1  0  0  0  0
 21 22  1  0  0  0  0
 22 23  1  0  0  0  0
 23 14  1  0  0  0  0
 23 25  1  1  0  0  0
 24 23  1  0  0  0  0
 25 28  1  0  0  0  0
 25 26  1  0  0  0  0
 25 27  1  0  0  0  0
 29 21  1  0  0  0  0
 30 29  1  0  0  0  0
 31  5  1  0  0  0  0
 32 31  1  0  0  0  0
 33 32  2  0  0  0  0
 34 35  2  0  0  0  0
 34 33  1  0  0  0  0
 35 36  1  0  0  0  0
 36 31  2  0  0  0  0
 37 38  1  0  0  0  0
 37 39  2  0  0  0  0
 38 40  1  0  0  0  0
 41 38  1  0  0  0  0
M  END
>  <minimizedAffinity>
-3.91874003

$$$$

 OpenBabel11232419363D

 41 46  0  0  1  0  0  0  0  0999 V2000
   58.9480  -41.9810   17.1980 C   0  0  0  0  0  0  0  0  0  0  0  0
   57.9040  -42.5790   16.5180 N   0  0  0  0  0  0  0  0  0  0  0  0
   56.8120  -42.0060   16.9690 C   0  0  0  0  0  0  0  0  0  0  0  0
   57.1090  -41.0750   17.9210 N   0  0  0  0  0  0  0  0  0  0  0  0
   58.4760  -41.0100   18.0750 C   0  0  0  0  0  0  0  0  0  0  0  0
   56.0810  -40.2570   18.5390 C   0  0  0  0  0  2  0  0  0  0  0  0
   54.7670  -40.8530   18.5010 O   0  0  0  0  0  0  0  0  0  0  0  0
   54.4560  -41.6130   17.4020 C   0  0  0  0  0  0  0  0  0  0  0  0
   53.1070  -41.8250   17.1340 C   0  0  0  0  0  3  0  0  0  0  0  0
   52.7270  -42.6170   16.0450 C   0  0  0  0  0  3  0  0  0  0  0  0
   53.7020  -43.2080   15.2280 C   0  0  0  0  0  0  0  0  0  0  0  0
   55.0580  -43.0220   15.5260 C   0  0  0  0  0  3  0  0  0  0  0  0
   55.4330  -42.2250   16.6090 C   0  0  0  0  0  0  0  0  0  0  0  0
   62.9680  -43.2530   16.2380 C   0  0  0  0  0  0  0  0  0  0  0  0
   61.8720  -44.1410   16.2780 C   0  0  0  0  0  3  0  0  0  0  0  0
   60.5790  -43.7170   16.6090 C   0  0  0  0  0  3  0  0  0  0  0  0
   60.3220  -42.3840   16.9390 C   0  0  0  0  0  0  0  0  0  0  0  0
   61.3920  -41.4910   16.9410 C   0  0  0  0  0  3  0  0  0  0  0  0
   62.6840  -41.9190   16.5980 C   0  0  0  0  0  3  0  0  0  0  0  0
   65.7260  -44.3090   12.5700 C   0  0  0  0  0  1  0  0  0  0  0  0
   64.6900  -43.9360   13.6180 C   0  0  1  0  0  0  0  0  0  0  0  0
   64.5690  -44.9520   14.7850 C   0  0  0  0  0  2  0  0  0  0  0  0
   64.4040  -43.7400   15.7500 C   0  0  1  0  0  0  0  0  0  0  0  0
   65.1480  -42.8920   14.6730 C   0  0  0  0  0  2  0  0  0  0  0  0
   65.2210  -43.9300   16.9740 N   0  0  0  0  0  4  0  0  0  0  0  0
   65.3020  -43.0550   17.5080 H   0  0  0  0  0  0  0  0  0  0  0  0
   64.7680  -44.6050   17.6070 H   0  0  0  0  0  0  0  0  0  0  0  0
   66.1710  -44.2690   16.7860 H   0  0  0  0  0  0  0  0  0  0  0  0
   63.4340  -43.6420   12.9800 O   0  0  0  0  0  0  0  0  0  0  0  0
   63.6190  -42.9980   12.2700 H   0  0  0  0  0  0  0  0  0  0  0  0
   59.1300  -40.1050   19.0060 C   0  0  0  0  0  0  0  0  0  0  0  0
   59.0700  -40.3420   20.3830 C   0  0  0  0  0  3  0  0  0  0  0  0
   59.6770  -39.4550   21.2730 C   0  0  0  0  0  3  0  0  0  0  0  0
   60.3510  -38.3320   20.7930 C   0  0  0  0  0  3  0  0  0  0  0  0
   60.4190  -38.0930   19.4210 C   0  0  0  0  0  3  0  0  0  0  0  0
   59.8070  -38.9740   18.5280 C   0  0  0  0  0  3  0  0  0  0  0  0
   53.3580  -44.0580   14.0550 C   0  0  0  0  0  0  0  0  0  0  0  0
   53.1990  -45.3980   14.2630 N   0  0  0  0  0  0  0  0  0  0  0  0
   53.1900  -43.5750   12.9430 O   0  0  0  0  0  0  0  0  0  0  0  0
   52.9570  -45.9620   13.4570 H   0  0  0  0  0  0  0  0  0  0  0  0
   53.2350  -45.8520   15.1630 H   0  0  0  0  0  0  0  0  0  0  0  0
  1  5  2  0  0  0  0
  2  3  2  0  0  0  0
  2  1  1  0  0  0  0
  3  4  1  0  0  0  0
  4  5  1  0  0  0  0
  4  6  1  0  0  0  0
  5 31  1  0  0  0  0
  7  6  1  0  0  0  0
  8  7  1  0  0  0  0
  9  8  1  0  0  0  0
 10  9  2  0  0  0  0
 11 12  2  0  0  0  0
 11 10  1  0  0  0  0
 12 13  1  0  0  0  0
 13  3  1  0  0  0  0
 13  8  2  0  0  0  0
 14 15  2  0  0  0  0
 14 19  1  0  0  0  0
 15 16  1  0  0  0  0
 16 17  2  0  0  0  0
 17 18  1  0  0  0  0
 17  1  1  0  0  0  0
 19 18  2  0  0  0  0
 21 20  1  6  0  0  0
 21 24  1  0  0  0  0
 21 22  1  0  0  0  0
 22 23  1  0  0  0  0
 23 14  1  0  0  0  0
 23 25  1  1  0  0  0
 24 23  1  0  0  0  0
 25 26  1  0  0  0  0
 25 27  1  0  0  0  0
 28 25  1  0  0  0  0
 29 21  1  0  0  0  0
 30 29  1  0  0  0  0
 31 32  1  0  0  0  0
 32 33  2  0  0  0  0
 34 33  1  0  0  0  0
 35 34  2  0  0  0  0
 36 31  2  0  0  0  0
 36 35  1  0  0  0  0
 37 38  1  0  0  0  0
 37 11  1  0  0  0  0
 38 41  1  0  0  0  0
 39 37  2  0  0  0  0
 40 38  1  0  0  0  0
M  END
>  <minimizedAffinity>
-3.8677659

$$$$

 OpenBabel11232419363D

 41 46  0  0  1  0  0  0  0  0999 V2000
   59.0400  -43.2340   16.4190 C   0  0  0  0  0  0  0  0  0  0  0  0
   60.3520  -43.3920   16.8220 N   0  0  0  0  0  0  0  0  0  0  0  0
   61.0460  -43.5420   15.7170 C   0  0  0  0  0  0  0  0  0  0  0  0
   60.2330  -43.5010   14.6220 N   0  0  0  0  0  0  0  0  0  0  0  0
   58.9380  -43.2760   15.0320 C   0  0  0  0  0  0  0  0  0  0  0  0
   60.7600  -43.5850   13.2730 C   0  0  0  0  0  2  0  0  0  0  0  0
   62.0420  -44.2450   13.1920 O   0  0  0  0  0  0  0  0  0  0  0  0
   62.9040  -44.0680   14.2450 C   0  0  0  0  0  0  0  0  0  0  0  0
   64.2550  -44.3110   14.0120 C   0  0  0  0  0  3  0  0  0  0  0  0
   65.1780  -44.1780   15.0550 C   0  0  0  0  0  3  0  0  0  0  0  0
   64.7460  -43.8110   16.3380 C   0  0  0  0  0  0  0  0  0  0  0  0
   63.3810  -43.6050   16.5750 C   0  0  0  0  0  3  0  0  0  0  0  0
   62.4630  -43.7320   15.5290 C   0  0  0  0  0  0  0  0  0  0  0  0
   55.8470  -42.4880   19.2400 C   0  0  0  0  0  0  0  0  0  0  0  0
   56.8710  -41.5520   18.9750 C   0  0  0  0  0  3  0  0  0  0  0  0
   57.9080  -41.8170   18.0720 C   0  0  0  0  0  3  0  0  0  0  0  0
   57.9860  -43.0420   17.4050 C   0  0  0  0  0  0  0  0  0  0  0  0
   57.0080  -43.9980   17.6730 C   0  0  0  0  0  3  0  0  0  0  0  0
   55.9650  -43.7240   18.5700 C   0  0  0  0  0  3  0  0  0  0  0  0
   53.5380  -43.4240   23.2360 C   0  0  0  0  0  1  0  0  0  0  0  0
   54.4040  -43.2760   21.9950 C   0  0  1  0  0  0  0  0  0  0  0  0
   53.6060  -43.2000   20.6660 C   0  0  0  0  0  2  0  0  0  0  0  0
   54.6190  -42.1180   20.1850 C   0  0  1  0  0  0  0  0  0  0  0  0
   54.9030  -41.8370   21.6920 C   0  0  0  0  0  2  0  0  0  0  0  0
   53.9100  -40.9910   19.5290 N   0  0  0  0  0  4  0  0  0  0  0  0
   54.5300  -40.1790   19.4120 H   0  0  0  0  0  0  0  0  0  0  0  0
   53.6130  -41.2570   18.5800 H   0  0  0  0  0  0  0  0  0  0  0  0
   53.0780  -40.6770   20.0400 H   0  0  0  0  0  0  0  0  0  0  0  0
   55.4290  -44.2860   21.9920 O   0  0  0  0  0  0  0  0  0  0  0  0
   55.8680  -44.2490   22.8630 H   0  0  0  0  0  0  0  0  0  0  0  0
   57.8180  -43.1630   14.1110 C   0  0  0  0  0  0  0  0  0  0  0  0
   57.5460  -41.9480   13.4750 C   0  0  0  0  0  3  0  0  0  0  0  0
   56.4540  -41.8380   12.6130 C   0  0  0  0  0  3  0  0  0  0  0  0
   55.6330  -42.9410   12.3790 C   0  0  0  0  0  3  0  0  0  0  0  0
   55.9020  -44.1570   13.0060 C   0  0  0  0  0  3  0  0  0  0  0  0
   56.9900  -44.2680   13.8730 C   0  0  0  0  0  3  0  0  0  0  0  0
   65.6820  -43.6520   17.4840 C   0  0  0  0  0  0  0  0  0  0  0  0
   65.7220  -42.4410   18.1140 N   0  0  0  0  0  0  0  0  0  0  0  0
   66.3750  -44.5830   17.8770 O   0  0  0  0  0  0  0  0  0  0  0  0
   66.3580  -42.3520   18.8970 H   0  0  0  0  0  0  0  0  0  0  0  0
   65.1210  -41.6600   17.9020 H   0  0  0  0  0  0  0  0  0  0  0  0
  1  2  1  0  0  0  0
  1 17  1  0  0  0  0
  3  2  2  0  0  0  0
  4  5  1  0  0  0  0
  4  3  1  0  0  0  0
  5  1  2  0  0  0  0
  6  4  1  0  0  0  0
  7  6  1  0  0  0  0
  7  8  1  0  0  0  0
  8 13  1  0  0  0  0
  9  8  2  0  0  0  0
  9 10  1  0  0  0  0
 10 11  2  0  0  0  0
 11 12  1  0  0  0  0
 11 37  1  0  0  0  0
 13  3  1  0  0  0  0
 13 12  2  0  0  0  0
 14 23  1  0  0  0  0
 15 14  1  0  0  0  0
 16 15  2  0  0  0  0
 17 18  2  0  0  0  0
 17 16  1  0  0  0  0
 18 19  1  0  0  0  0
 19 14  2  0  0  0  0
 21 20  1  1  0  0  0
 22 21  1  0  0  0  0
 23 25  1  6  0  0  0
 23 22  1  0  0  0  0
 23 24  1  0  0  0  0
 24 21  1  0  0  0  0
 25 28  1  0  0  0  0
 26 25  1  0  0  0  0
 27 25  1  0  0  0  0
 29 21  1  0  0  0  0
 29 30  1  0  0  0  0
 31  5  1  0  0  0  0
 32 31  2  0  0  0  0
 33 32  1  0  0  0  0
 34 33  2  0  0  0  0
 34 35  1  0  0  0  0
 35 36  2  0  0  0  0
 36 31  1  0  0  0  0
 37 39  2  0  0  0  0
 37 38  1  0  0  0  0
 38 40  1  0  0  0  0
 41 38  1  0  0  0  0
M  END
>  <minimizedAffinity>
-3.73394775

$$$$

 OpenBabel11232419363D

 41 46  0  0  1  0  0  0  0  0999 V2000
   58.2920  -42.3450   17.1800 C   0  0  0  0  0  0  0  0  0  0  0  0
   59.4960  -42.1640   17.8330 N   0  0  0  0  0  0  0  0  0  0  0  0
   60.4090  -42.1250   16.8890 C   0  0  0  0  0  0  0  0  0  0  0  0
   59.8430  -42.2890   15.6590 N   0  0  0  0  0  0  0  0  0  0  0  0
   58.4790  -42.4050   15.8030 C   0  0  0  0  0  0  0  0  0  0  0  0
   60.6300  -42.2270   14.4410 C   0  0  0  0  0  2  0  0  0  0  0  0
   62.0270  -42.5360   14.6370 O   0  0  0  0  0  0  0  0  0  0  0  0
   62.5910  -42.1500   15.8260 C   0  0  0  0  0  0  0  0  0  0  0  0
   63.9780  -42.0370   15.8670 C   0  0  0  0  0  3  0  0  0  0  0  0
   64.6140  -41.6770   17.0600 C   0  0  0  0  0  3  0  0  0  0  0  0
   63.8600  -41.4390   18.2180 C   0  0  0  0  0  0  0  0  0  0  0  0
   62.4680  -41.5910   18.1800 C   0  0  0  0  0  3  0  0  0  0  0  0
   61.8360  -41.9440   16.9860 C   0  0  0  0  0  0  0  0  0  0  0  0
   54.7170  -42.5750   19.6030 C   0  0  0  0  0  0  0  0  0  0  0  0
   55.8280  -43.4260   19.7920 C   0  0  0  0  0  3  0  0  0  0  0  0
   56.9710  -43.3510   18.9870 C   0  0  0  0  0  3  0  0  0  0  0  0
   57.0510  -42.4340   17.9360 C   0  0  0  0  0  0  0  0  0  0  0  0
   55.9560  -41.6050   17.7040 C   0  0  0  0  0  3  0  0  0  0  0  0
   54.8170  -41.6760   18.5210 C   0  0  0  0  0  3  0  0  0  0  0  0
   52.6450  -44.7470   23.2320 C   0  0  0  0  0  1  0  0  0  0  0  0
   53.4540  -44.1910   22.0710 C   0  0  1  0  0  0  0  0  0  0  0  0
   52.6190  -43.8920   20.7970 C   0  0  0  0  0  2  0  0  0  0  0  0
   53.4780  -42.6060   20.6040 C   0  0  1  0  0  0  0  0  0  0  0  0
   53.7640  -42.6700   22.1360 C   0  0  0  0  0  2  0  0  0  0  0  0
   52.6190  -41.4510   20.2430 N   0  0  0  0  0  4  0  0  0  0  0  0
   53.1300  -40.5630   20.3340 H   0  0  0  0  0  0  0  0  0  0  0  0
   52.3320  -41.5110   19.2560 H   0  0  0  0  0  0  0  0  0  0  0  0
   51.7670  -41.3790   20.8110 H   0  0  0  0  0  0  0  0  0  0  0  0
   54.5950  -45.0320   21.8240 O   0  0  0  0  0  0  0  0  0  0  0  0
   55.0490  -45.1550   22.6800 H   0  0  0  0  0  0  0  0  0  0  0  0
   57.5710  -42.5780   14.6810 C   0  0  0  0  0  0  0  0  0  0  0  0
   57.6410  -41.7230   13.5760 C   0  0  0  0  0  3  0  0  0  0  0  0
   56.7490  -41.8770   12.5130 C   0  0  0  0  0  3  0  0  0  0  0  0
   55.7880  -42.8870   12.5460 C   0  0  0  0  0  3  0  0  0  0  0  0
   55.7160  -43.7460   13.6430 C   0  0  0  0  0  3  0  0  0  0  0  0
   56.6030  -43.5910   14.7100 C   0  0  0  0  0  3  0  0  0  0  0  0
   64.4820  -41.0520   19.5150 C   0  0  0  0  0  0  0  0  0  0  0  0
   64.0760  -39.8830   20.0940 N   0  0  0  0  0  0  0  0  0  0  0  0
   65.3080  -41.7670   20.0670 O   0  0  0  0  0  0  0  0  0  0  0  0
   64.5010  -39.6380   20.9790 H   0  0  0  0  0  0  0  0  0  0  0  0
   63.3400  -39.2890   19.7430 H   0  0  0  0  0  0  0  0  0  0  0  0
  1  2  1  0  0  0  0
  1 17  1  0  0  0  0
  3 13  1  0  0  0  0
  3  2  2  0  0  0  0
  4  5  1  0  0  0  0
  4  3  1  0  0  0  0
  5  1  2  0  0  0  0
  6  7  1  0  0  0  0
  6  4  1  0  0  0  0
  7  8  1  0  0  0  0
  8  9  2  0  0  0  0
  8 13  1  0  0  0  0
  9 10  1  0  0  0  0
 10 11  2  0  0  0  0
 11 37  1  0  0  0  0
 12 11  1  0  0  0  0
 13 12  2  0  0  0  0
 14 15  1  0  0  0  0
 14 23  1  0  0  0  0
 16 15  2  0  0  0  0
 17 16  1  0  0  0  0
 18 17  2  0  0  0  0
 18 19  1  0  0  0  0
 19 14  2  0  0  0  0
 21 24  1  0  0  0  0
 21 20  1  1  0  0  0
 22 21  1  0  0  0  0
 23 25  1  6  0  0  0
 23 22  1  0  0  0  0
 23 24  1  0  0  0  0
 25 26  1  0  0  0  0
 25 28  1  0  0  0  0
 27 25  1  0  0  0  0
 29 21  1  0  0  0  0
 29 30  1  0  0  0  0
 31 36  1  0  0  0  0
 31  5  1  0  0  0  0
 32 31  2  0  0  0  0
 33 34  2  0  0  0  0
 33 32  1  0  0  0  0
 34 35  1  0  0  0  0
 35 36  2  0  0  0  0
 37 39  2  0  0  0  0
 37 38  1  0  0  0  0
 38 40  1  0  0  0  0
 41 38  1  0  0  0  0
M  END
>  <minimizedAffinity>
-3.14132953

$$$$

 OpenBabel11232419363D

 41 46  0  0  1  0  0  0  0  0999 V2000
   58.1440  -43.1980   17.4170 C   0  0  0  0  0  0  0  0  0  0  0  0
   57.3360  -43.1530   18.5360 N   0  0  0  0  0  0  0  0  0  0  0  0
   56.2090  -43.7270   18.1830 C   0  0  0  0  0  0  0  0  0  0  0  0
   56.2540  -44.1250   16.8790 N   0  0  0  0  0  0  0  0  0  0  0  0
   57.4940  -43.8280   16.3610 C   0  0  0  0  0  0  0  0  0  0  0  0
   55.1540  -44.8400   16.2580 C   0  0  0  0  0  2  0  0  0  0  0  0
   53.8790  -44.6060   16.8950 O   0  0  0  0  0  0  0  0  0  0  0  0
   53.8840  -44.4210   18.2540 C   0  0  0  0  0  0  0  0  0  0  0  0
   52.6850  -44.6290   18.9300 C   0  0  0  0  0  3  0  0  0  0  0  0
   52.6190  -44.4260   20.3130 C   0  0  0  0  0  3  0  0  0  0  0  0
   53.7540  -44.0040   21.0190 C   0  0  0  0  0  0  0  0  0  0  0  0
   54.9480  -43.7600   20.3270 C   0  0  0  0  0  3  0  0  0  0  0  0
   55.0110  -43.9710   18.9480 C   0  0  0  0  0  0  0  0  0  0  0  0
   62.0600  -41.3620   17.4490 C   0  0  0  0  0  0  0  0  0  0  0  0
   61.3070  -41.5420   16.2680 C   0  0  0  0  0  3  0  0  0  0  0  0
   60.0480  -42.1550   16.2730 C   0  0  0  0  0  3  0  0  0  0  0  0
   59.4880  -42.6400   17.4570 C   0  0  0  0  0  0  0  0  0  0  0  0
   60.2250  -42.5080   18.6330 C   0  0  0  0  0  3  0  0  0  0  0  0
   61.4810  -41.8820   18.6250 C   0  0  0  0  0  3  0  0  0  0  0  0
   66.4930  -41.1950   15.8680 C   0  0  0  0  0  1  0  0  0  0  0  0
   65.0490  -41.4260   16.2820 C   0  0  1  0  0  0  0  0  0  0  0  0
   64.7850  -41.2510   17.8020 C   0  0  0  0  0  2  0  0  0  0  0  0
   63.4370  -40.5620   17.4320 C   0  0  1  0  0  0  0  0  0  0  0  0
   64.0850  -40.2300   16.0520 C   0  0  0  0  0  2  0  0  0  0  0  0
   63.2270  -39.3460   18.2570 N   0  0  0  0  0  4  0  0  0  0  0  0
   62.4690  -38.7640   17.8770 H   0  0  0  0  0  0  0  0  0  0  0  0
   62.9310  -39.6060   19.2090 H   0  0  0  0  0  0  0  0  0  0  0  0
   64.0620  -38.7560   18.3400 H   0  0  0  0  0  0  0  0  0  0  0  0
   64.5870  -42.6850   15.7610 O   0  0  0  0  0  0  0  0  0  0  0  0
   64.7960  -42.6930   14.8080 H   0  0  0  0  0  0  0  0  0  0  0  0
   57.8810  -44.1340   14.9930 C   0  0  0  0  0  0  0  0  0  0  0  0
   57.2050  -43.5460   13.9190 C   0  0  0  0  0  3  0  0  0  0  0  0
   57.5620  -43.8650   12.6070 C   0  0  0  0  0  3  0  0  0  0  0  0
   58.5980  -44.7650   12.3630 C   0  0  0  0  0  3  0  0  0  0  0  0
   59.2800  -45.3510   13.4300 C   0  0  0  0  0  3  0  0  0  0  0  0
   58.9210  -45.0400   14.7420 C   0  0  0  0  0  3  0  0  0  0  0  0
   53.7440  -43.7740   22.4900 C   0  0  0  0  0  0  0  0  0  0  0  0
   54.5500  -42.7910   22.9890 N   0  0  0  0  0  0  0  0  0  0  0  0
   53.0150  -44.4190   23.2330 O   0  0  0  0  0  0  0  0  0  0  0  0
   54.5260  -42.6410   23.9890 H   0  0  0  0  0  0  0  0  0  0  0  0
   55.1090  -42.1630   22.4300 H   0  0  0  0  0  0  0  0  0  0  0  0
  1 17  1  0  0  0  0
  1  2  1  0  0  0  0
  3  2  2  0  0  0  0
  3 13  1  0  0  0  0
  4  3  1  0  0  0  0
  5  4  1  0  0  0  0
  5  1  2  0  0  0  0
  6  4  1  0  0  0  0
  6  7  1  0  0  0  0
  7  8  1  0  0  0  0
  8  9  2  0  0  0  0
  8 13  1  0  0  0  0
  9 10  1  0  0  0  0
 10 11  2  0  0  0  0
 11 37  1  0  0  0  0
 12 11  1  0  0  0  0
 13 12  2  0  0  0  0
 14 19  1  0  0  0  0
 15 16  1  0  0  0  0
 15 14  2  0  0  0  0
 16 17  2  0  0  0  0
 17 18  1  0  0  0  0
 19 18  2  0  0  0  0
 21 20  1  6  0  0  0
 21 22  1  0  0  0  0
 23 14  1  0  0  0  0
 23 22  1  0  0  0  0
 23 25  1  1  0  0  0
 24 21  1  0  0  0  0
 24 23  1  0  0  0  0
 25 28  1  0  0  0  0
 25 27  1  0  0  0  0
 26 25  1  0  0  0  0
 29 21  1  0  0  0  0
 30 29  1  0  0  0  0
 31  5  1  0  0  0  0
 32 31  2  0  0  0  0
 33 32  1  0  0  0  0
 34 33  2  0  0  0  0
 34 35  1  0  0  0  0
 35 36  2  0  0  0  0
 36 31  1  0  0  0  0
 37 38  1  0  0  0  0
 37 39  2  0  0  0  0
 38 40  1  0  0  0  0
 41 38  1  0  0  0  0
M  END
>  <minimizedAffinity>
-2.33939123

$$$$
