
 OpenBabel11232419363D

 41 46  0  0  1  0  0  0  0  0999 V2000
   58.1090  -43.2140   17.6890 C   0  0  0  0  0  0  0  0  0  0  0  0
   57.3440  -43.4660   18.8120 N   0  0  0  0  0  0  0  0  0  0  0  0
   56.1720  -43.8520   18.3630 C   0  0  0  0  0  0  0  0  0  0  0  0
   56.1470  -43.8430   16.9990 N   0  0  0  0  0  0  0  0  0  0  0  0
   57.3840  -43.4660   16.5290 C   0  0  0  0  0  0  0  0  0  0  0  0
   54.9830  -44.2830   16.2520 C   0  0  0  0  0  2  0  0  0  0  0  0
   53.7480  -44.1880   16.9950 O   0  0  0  0  0  0  0  0  0  0  0  0
   53.8120  -44.4190   18.3450 C   0  0  0  0  0  0  0  0  0  0  0  0
   52.6260  -44.7600   18.9910 C   0  0  0  0  0  3  0  0  0  0  0  0
   52.6210  -44.9780   20.3730 C   0  0  0  0  0  3  0  0  0  0  0  0
   53.8050  -44.8430   21.1130 C   0  0  0  0  0  0  0  0  0  0  0  0
   54.9870  -44.4630   20.4630 C   0  0  0  0  0  3  0  0  0  0  0  0
   54.9890  -44.2540   19.0830 C   0  0  0  0  0  0  0  0  0  0  0  0
   62.2390  -41.9450   17.8920 C   0  0  0  0  0  0  0  0  0  0  0  0
   61.8580  -43.2890   17.6810 C   0  0  0  0  0  3  0  0  0  0  0  0
   60.5170  -43.6860   17.6370 C   0  0  0  0  0  3  0  0  0  0  0  0
   59.4860  -42.7610   17.8230 C   0  0  0  0  0  0  0  0  0  0  0  0
   59.8320  -41.4340   18.0680 C   0  0  0  0  0  3  0  0  0  0  0  0
   61.1780  -41.0390   18.1000 C   0  0  0  0  0  3  0  0  0  0  0  0
   66.1390  -41.6570   15.2680 C   0  0  0  0  0  1  0  0  0  0  0  0
   64.7950  -41.8400   15.9560 C   0  0  1  0  0  0  0  0  0  0  0  0
   64.8820  -42.4900   17.3620 C   0  0  0  0  0  2  0  0  0  0  0  0
   63.7680  -41.5030   17.8250 C   0  0  1  0  0  0  0  0  0  0  0  0
   64.2210  -40.5770   16.6550 C   0  0  0  0  0  2  0  0  0  0  0  0
   64.0960  -40.9280   19.1530 N   0  0  0  0  0  4  0  0  0  0  0  0
   63.4980  -40.1190   19.3670 H   0  0  0  0  0  0  0  0  0  0  0  0
   63.9150  -41.6160   19.8980 H   0  0  0  0  0  0  0  0  0  0  0  0
   65.0730  -40.6250   19.2400 H   0  0  0  0  0  0  0  0  0  0  0  0
   63.8810  -42.5100   15.0690 O   0  0  0  0  0  0  0  0  0  0  0  0
   63.8990  -42.0250   14.2220 H   0  0  0  0  0  0  0  0  0  0  0  0
   57.7030  -43.3670   15.1140 C   0  0  0  0  0  0  0  0  0  0  0  0
   58.5840  -44.2780   14.5220 C   0  0  0  0  0  3  0  0  0  0  0  0
   58.9090  -44.1620   13.1700 C   0  0  0  0  0  3  0  0  0  0  0  0
   58.3500  -43.1410   12.4010 C   0  0  0  0  0  3  0  0  0  0  0  0
   57.4670  -42.2330   12.9830 C   0  0  0  0  0  3  0  0  0  0  0  0
   57.1460  -42.3420   14.3370 C   0  0  0  0  0  3  0  0  0  0  0  0
   53.8600  -45.0640   22.5840 C   0  0  0  0  0  0  0  0  0  0  0  0
   55.0640  -44.9070   23.2090 N   0  0  0  0  0  0  0  0  0  0  0  0
   52.8560  -45.3460   23.2270 O   0  0  0  0  0  0  0  0  0  0  0  0
   55.0840  -45.0530   24.2100 H   0  0  0  0  0  0  0  0  0  0  0  0
   55.9110  -44.5920   22.7600 H   0  0  0  0  0  0  0  0  0  0  0  0
  1 17  1  0  0  0  0
  1  2  1  0  0  0  0
  3  2  2  0  0  0  0
  3 13  1  0  0  0  0
  4  3  1  0  0  0  0
  5  4  1  0  0  0  0
  5  1  2  0  0  0  0
  6  7  1  0  0  0  0
  6  4  1  0  0  0  0
  7  8  1  0  0  0  0
  8  9  2  0  0  0  0
  8 13  1  0  0  0  0
  9 10  1  0  0  0  0
 10 11  2  0  0  0  0
 11 37  1  0  0  0  0
 12 11  1  0  0  0  0
 13 12  2  0  0  0  0
 14 19  1  0  0  0  0
 15 14  2  0  0  0  0
 16 15  1  0  0  0  0
 16 17  2  0  0  0  0
 17 18  1  0  0  0  0
 18 19  2  0  0  0  0
 21 20  1  6  0  0  0
 21 24  1  0  0  0  0
 21 22  1  0  0  0  0
 22 23  1  0  0  0  0
 23 14  1  0  0  0  0
 23 25  1  1  0  0  0
 24 23  1  0  0  0  0
 25 28  1  0  0  0  0
 25 26  1  0  0  0  0
 25 27  1  0  0  0  0
 29 21  1  0  0  0  0
 30 29  1  0  0  0  0
 31  5  1  0  0  0  0
 32 31  1  0  0  0  0
 33 32  2  0  0  0  0
 34 35  2  0  0  0  0
 34 33  1  0  0  0  0
 35 36  1  0  0  0  0
 36 31  2  0  0  0  0
 37 38  1  0  0  0  0
 37 39  2  0  0  0  0
 38 40  1  0  0  0  0
 41 38  1  0  0  0  0
M  END
>  <minimizedAffinity>
-3.91874003

$$$$
