
 OpenBabel11232419363D

 41 46  0  0  1  0  0  0  0  0999 V2000
   58.9480  -41.9810   17.1980 C   0  0  0  0  0  0  0  0  0  0  0  0
   57.9040  -42.5790   16.5180 N   0  0  0  0  0  0  0  0  0  0  0  0
   56.8120  -42.0060   16.9690 C   0  0  0  0  0  0  0  0  0  0  0  0
   57.1090  -41.0750   17.9210 N   0  0  0  0  0  0  0  0  0  0  0  0
   58.4760  -41.0100   18.0750 C   0  0  0  0  0  0  0  0  0  0  0  0
   56.0810  -40.2570   18.5390 C   0  0  0  0  0  2  0  0  0  0  0  0
   54.7670  -40.8530   18.5010 O   0  0  0  0  0  0  0  0  0  0  0  0
   54.4560  -41.6130   17.4020 C   0  0  0  0  0  0  0  0  0  0  0  0
   53.1070  -41.8250   17.1340 C   0  0  0  0  0  3  0  0  0  0  0  0
   52.7270  -42.6170   16.0450 C   0  0  0  0  0  3  0  0  0  0  0  0
   53.7020  -43.2080   15.2280 C   0  0  0  0  0  0  0  0  0  0  0  0
   55.0580  -43.0220   15.5260 C   0  0  0  0  0  3  0  0  0  0  0  0
   55.4330  -42.2250   16.6090 C   0  0  0  0  0  0  0  0  0  0  0  0
   62.9680  -43.2530   16.2380 C   0  0  0  0  0  0  0  0  0  0  0  0
   61.8720  -44.1410   16.2780 C   0  0  0  0  0  3  0  0  0  0  0  0
   60.5790  -43.7170   16.6090 C   0  0  0  0  0  3  0  0  0  0  0  0
   60.3220  -42.3840   16.9390 C   0  0  0  0  0  0  0  0  0  0  0  0
   61.3920  -41.4910   16.9410 C   0  0  0  0  0  3  0  0  0  0  0  0
   62.6840  -41.9190   16.5980 C   0  0  0  0  0  3  0  0  0  0  0  0
   65.7260  -44.3090   12.5700 C   0  0  0  0  0  1  0  0  0  0  0  0
   64.6900  -43.9360   13.6180 C   0  0  1  0  0  0  0  0  0  0  0  0
   64.5690  -44.9520   14.7850 C   0  0  0  0  0  2  0  0  0  0  0  0
   64.4040  -43.7400   15.7500 C   0  0  1  0  0  0  0  0  0  0  0  0
   65.1480  -42.8920   14.6730 C   0  0  0  0  0  2  0  0  0  0  0  0
   65.2210  -43.9300   16.9740 N   0  0  0  0  0  4  0  0  0  0  0  0
   65.3020  -43.0550   17.5080 H   0  0  0  0  0  0  0  0  0  0  0  0
   64.7680  -44.6050   17.6070 H   0  0  0  0  0  0  0  0  0  0  0  0
   66.1710  -44.2690   16.7860 H   0  0  0  0  0  0  0  0  0  0  0  0
   63.4340  -43.6420   12.9800 O   0  0  0  0  0  0  0  0  0  0  0  0
   63.6190  -42.9980   12.2700 H   0  0  0  0  0  0  0  0  0  0  0  0
   59.1300  -40.1050   19.0060 C   0  0  0  0  0  0  0  0  0  0  0  0
   59.0700  -40.3420   20.3830 C   0  0  0  0  0  3  0  0  0  0  0  0
   59.6770  -39.4550   21.2730 C   0  0  0  0  0  3  0  0  0  0  0  0
   60.3510  -38.3320   20.7930 C   0  0  0  0  0  3  0  0  0  0  0  0
   60.4190  -38.0930   19.4210 C   0  0  0  0  0  3  0  0  0  0  0  0
   59.8070  -38.9740   18.5280 C   0  0  0  0  0  3  0  0  0  0  0  0
   53.3580  -44.0580   14.0550 C   0  0  0  0  0  0  0  0  0  0  0  0
   53.1990  -45.3980   14.2630 N   0  0  0  0  0  0  0  0  0  0  0  0
   53.1900  -43.5750   12.9430 O   0  0  0  0  0  0  0  0  0  0  0  0
   52.9570  -45.9620   13.4570 H   0  0  0  0  0  0  0  0  0  0  0  0
   53.2350  -45.8520   15.1630 H   0  0  0  0  0  0  0  0  0  0  0  0
  1  5  2  0  0  0  0
  2  3  2  0  0  0  0
  2  1  1  0  0  0  0
  3  4  1  0  0  0  0
  4  5  1  0  0  0  0
  4  6  1  0  0  0  0
  5 31  1  0  0  0  0
  7  6  1  0  0  0  0
  8  7  1  0  0  0  0
  9  8  1  0  0  0  0
 10  9  2  0  0  0  0
 11 12  2  0  0  0  0
 11 10  1  0  0  0  0
 12 13  1  0  0  0  0
 13  3  1  0  0  0  0
 13  8  2  0  0  0  0
 14 15  2  0  0  0  0
 14 19  1  0  0  0  0
 15 16  1  0  0  0  0
 16 17  2  0  0  0  0
 17 18  1  0  0  0  0
 17  1  1  0  0  0  0
 19 18  2  0  0  0  0
 21 20  1  6  0  0  0
 21 24  1  0  0  0  0
 21 22  1  0  0  0  0
 22 23  1  0  0  0  0
 23 14  1  0  0  0  0
 23 25  1  1  0  0  0
 24 23  1  0  0  0  0
 25 26  1  0  0  0  0
 25 27  1  0  0  0  0
 28 25  1  0  0  0  0
 29 21  1  0  0  0  0
 30 29  1  0  0  0  0
 31 32  1  0  0  0  0
 32 33  2  0  0  0  0
 34 33  1  0  0  0  0
 35 34  2  0  0  0  0
 36 31  2  0  0  0  0
 36 35  1  0  0  0  0
 37 38  1  0  0  0  0
 37 11  1  0  0  0  0
 38 41  1  0  0  0  0
 39 37  2  0  0  0  0
 40 38  1  0  0  0  0
M  END
>  <minimizedAffinity>
-3.8677659

$$$$
