
 OpenBabel11232419363D

 41 46  0  0  1  0  0  0  0  0999 V2000
   59.0400  -43.2340   16.4190 C   0  0  0  0  0  0  0  0  0  0  0  0
   60.3520  -43.3920   16.8220 N   0  0  0  0  0  0  0  0  0  0  0  0
   61.0460  -43.5420   15.7170 C   0  0  0  0  0  0  0  0  0  0  0  0
   60.2330  -43.5010   14.6220 N   0  0  0  0  0  0  0  0  0  0  0  0
   58.9380  -43.2760   15.0320 C   0  0  0  0  0  0  0  0  0  0  0  0
   60.7600  -43.5850   13.2730 C   0  0  0  0  0  2  0  0  0  0  0  0
   62.0420  -44.2450   13.1920 O   0  0  0  0  0  0  0  0  0  0  0  0
   62.9040  -44.0680   14.2450 C   0  0  0  0  0  0  0  0  0  0  0  0
   64.2550  -44.3110   14.0120 C   0  0  0  0  0  3  0  0  0  0  0  0
   65.1780  -44.1780   15.0550 C   0  0  0  0  0  3  0  0  0  0  0  0
   64.7460  -43.8110   16.3380 C   0  0  0  0  0  0  0  0  0  0  0  0
   63.3810  -43.6050   16.5750 C   0  0  0  0  0  3  0  0  0  0  0  0
   62.4630  -43.7320   15.5290 C   0  0  0  0  0  0  0  0  0  0  0  0
   55.8470  -42.4880   19.2400 C   0  0  0  0  0  0  0  0  0  0  0  0
   56.8710  -41.5520   18.9750 C   0  0  0  0  0  3  0  0  0  0  0  0
   57.9080  -41.8170   18.0720 C   0  0  0  0  0  3  0  0  0  0  0  0
   57.9860  -43.0420   17.4050 C   0  0  0  0  0  0  0  0  0  0  0  0
   57.0080  -43.9980   17.6730 C   0  0  0  0  0  3  0  0  0  0  0  0
   55.9650  -43.7240   18.5700 C   0  0  0  0  0  3  0  0  0  0  0  0
   53.5380  -43.4240   23.2360 C   0  0  0  0  0  1  0  0  0  0  0  0
   54.4040  -43.2760   21.9950 C   0  0  1  0  0  0  0  0  0  0  0  0
   53.6060  -43.2000   20.6660 C   0  0  0  0  0  2  0  0  0  0  0  0
   54.6190  -42.1180   20.1850 C   0  0  1  0  0  0  0  0  0  0  0  0
   54.9030  -41.8370   21.6920 C   0  0  0  0  0  2  0  0  0  0  0  0
   53.9100  -40.9910   19.5290 N   0  0  0  0  0  4  0  0  0  0  0  0
   54.5300  -40.1790   19.4120 H   0  0  0  0  0  0  0  0  0  0  0  0
   53.6130  -41.2570   18.5800 H   0  0  0  0  0  0  0  0  0  0  0  0
   53.0780  -40.6770   20.0400 H   0  0  0  0  0  0  0  0  0  0  0  0
   55.4290  -44.2860   21.9920 O   0  0  0  0  0  0  0  0  0  0  0  0
   55.8680  -44.2490   22.8630 H   0  0  0  0  0  0  0  0  0  0  0  0
   57.8180  -43.1630   14.1110 C   0  0  0  0  0  0  0  0  0  0  0  0
   57.5460  -41.9480   13.4750 C   0  0  0  0  0  3  0  0  0  0  0  0
   56.4540  -41.8380   12.6130 C   0  0  0  0  0  3  0  0  0  0  0  0
   55.6330  -42.9410   12.3790 C   0  0  0  0  0  3  0  0  0  0  0  0
   55.9020  -44.1570   13.0060 C   0  0  0  0  0  3  0  0  0  0  0  0
   56.9900  -44.2680   13.8730 C   0  0  0  0  0  3  0  0  0  0  0  0
   65.6820  -43.6520   17.4840 C   0  0  0  0  0  0  0  0  0  0  0  0
   65.7220  -42.4410   18.1140 N   0  0  0  0  0  0  0  0  0  0  0  0
   66.3750  -44.5830   17.8770 O   0  0  0  0  0  0  0  0  0  0  0  0
   66.3580  -42.3520   18.8970 H   0  0  0  0  0  0  0  0  0  0  0  0
   65.1210  -41.6600   17.9020 H   0  0  0  0  0  0  0  0  0  0  0  0
  1  2  1  0  0  0  0
  1 17  1  0  0  0  0
  3  2  2  0  0  0  0
  4  5  1  0  0  0  0
  4  3  1  0  0  0  0
  5  1  2  0  0  0  0
  6  4  1  0  0  0  0
  7  6  1  0  0  0  0
  7  8  1  0  0  0  0
  8 13  1  0  0  0  0
  9  8  2  0  0  0  0
  9 10  1  0  0  0  0
 10 11  2  0  0  0  0
 11 12  1  0  0  0  0
 11 37  1  0  0  0  0
 13  3  1  0  0  0  0
 13 12  2  0  0  0  0
 14 23  1  0  0  0  0
 15 14  1  0  0  0  0
 16 15  2  0  0  0  0
 17 18  2  0  0  0  0
 17 16  1  0  0  0  0
 18 19  1  0  0  0  0
 19 14  2  0  0  0  0
 21 20  1  1  0  0  0
 22 21  1  0  0  0  0
 23 25  1  6  0  0  0
 23 22  1  0  0  0  0
 23 24  1  0  0  0  0
 24 21  1  0  0  0  0
 25 28  1  0  0  0  0
 26 25  1  0  0  0  0
 27 25  1  0  0  0  0
 29 21  1  0  0  0  0
 29 30  1  0  0  0  0
 31  5  1  0  0  0  0
 32 31  2  0  0  0  0
 33 32  1  0  0  0  0
 34 33  2  0  0  0  0
 34 35  1  0  0  0  0
 35 36  2  0  0  0  0
 36 31  1  0  0  0  0
 37 39  2  0  0  0  0
 37 38  1  0  0  0  0
 38 40  1  0  0  0  0
 41 38  1  0  0  0  0
M  END
>  <minimizedAffinity>
-3.73394775

$$$$
