
 OpenBabel11232419363D

 41 46  0  0  1  0  0  0  0  0999 V2000
   60.4140  -42.2970   16.8540 C   0  0  0  0  0  0  0  0  0  0  0  0
   61.2830  -42.8840   15.9560 N   0  0  0  0  0  0  0  0  0  0  0  0
   62.4320  -42.2710   16.1210 C   0  0  0  0  0  0  0  0  0  0  0  0
   62.3340  -41.3040   17.0790 N   0  0  0  0  0  0  0  0  0  0  0  0
   61.0580  -41.3100   17.5940 C   0  0  0  0  0  0  0  0  0  0  0  0
   63.4820  -40.5180   17.4930 C   0  0  0  0  0  2  0  0  0  0  0  0
   64.5200  -40.4370   16.4930 O   0  0  0  0  0  0  0  0  0  0  0  0
   64.7070  -41.5380   15.6950 C   0  0  0  0  0  0  0  0  0  0  0  0
   65.9350  -41.6570   15.0500 C   0  0  0  0  0  3  0  0  0  0  0  0
   66.1740  -42.7410   14.1990 C   0  0  0  0  0  3  0  0  0  0  0  0
   65.1770  -43.7040   13.9850 C   0  0  0  0  0  0  0  0  0  0  0  0
   63.9300  -43.5580   14.6080 C   0  0  0  0  0  3  0  0  0  0  0  0
   63.6980  -42.4780   15.4620 C   0  0  0  0  0  0  0  0  0  0  0  0
   56.3450  -43.6940   17.3040 C   0  0  0  0  0  0  0  0  0  0  0  0
   57.4660  -44.5470   17.4090 C   0  0  0  0  0  3  0  0  0  0  0  0
   58.7760  -44.0820   17.2420 C   0  0  0  0  0  3  0  0  0  0  0  0
   59.0310  -42.7430   16.9400 C   0  0  0  0  0  0  0  0  0  0  0  0
   57.9420  -41.8840   16.7960 C   0  0  0  0  0  3  0  0  0  0  0  0
   56.6320  -42.3530   16.9760 C   0  0  0  0  0  3  0  0  0  0  0  0
   52.8940  -44.1090   20.4810 C   0  0  0  0  0  1  0  0  0  0  0  0
   54.1150  -43.8890   19.6030 C   0  0  1  0  0  0  0  0  0  0  0  0
   54.5800  -45.1510   18.8290 C   0  0  0  0  0  2  0  0  0  0  0  0
   54.8750  -44.2250   17.6100 C   0  0  1  0  0  0  0  0  0  0  0  0
   53.8410  -43.2320   18.2230 C   0  0  0  0  0  2  0  0  0  0  0  0
   54.3820  -44.8410   16.3520 N   0  0  0  0  0  4  0  0  0  0  0  0
   54.3640  -44.1570   15.5850 H   0  0  0  0  0  0  0  0  0  0  0  0
   55.0190  -45.5910   16.0470 H   0  0  0  0  0  0  0  0  0  0  0  0
   53.4420  -45.2440   16.4330 H   0  0  0  0  0  0  0  0  0  0  0  0
   55.1630  -43.2690   20.3710 O   0  0  0  0  0  0  0  0  0  0  0  0
   54.7700  -42.4920   20.8130 H   0  0  0  0  0  0  0  0  0  0  0  0
   60.6190  -40.4080   18.6470 C   0  0  0  0  0  0  0  0  0  0  0  0
   60.1640  -40.9160   19.8680 C   0  0  0  0  0  3  0  0  0  0  0  0
   59.7190  -40.0470   20.8660 C   0  0  0  0  0  3  0  0  0  0  0  0
   59.7310  -38.6690   20.6510 C   0  0  0  0  0  3  0  0  0  0  0  0
   60.1890  -38.1560   19.4370 C   0  0  0  0  0  3  0  0  0  0  0  0
   60.6290  -39.0230   18.4350 C   0  0  0  0  0  3  0  0  0  0  0  0
   65.3750  -44.8780   13.0920 C   0  0  0  0  0  0  0  0  0  0  0  0
   64.2800  -45.3900   12.4560 N   0  0  0  0  0  0  0  0  0  0  0  0
   66.4860  -45.3580   12.9040 O   0  0  0  0  0  0  0  0  0  0  0  0
   64.4320  -46.1830   11.8460 H   0  0  0  0  0  0  0  0  0  0  0  0
   63.3520  -44.9940   12.4950 H   0  0  0  0  0  0  0  0  0  0  0  0
  1 17  1  0  0  0  0
  1  5  2  0  0  0  0
  2  3  2  0  0  0  0
  2  1  1  0  0  0  0
  3  4  1  0  0  0  0
  4  6  1  0  0  0  0
  4  5  1  0  0  0  0
  5 31  1  0  0  0  0
  7  6  1  0  0  0  0
  8  7  1  0  0  0  0
  9  8  2  0  0  0  0
 10  9  1  0  0  0  0
 11 10  2  0  0  0  0
 11 12  1  0  0  0  0
 12 13  2  0  0  0  0
 13  8  1  0  0  0  0
 13  3  1  0  0  0  0
 14 15  1  0  0  0  0
 14 23  1  0  0  0  0
 16 15  2  0  0  0  0
 17 16  1  0  0  0  0
 18 17  2  0  0  0  0
 18 19  1  0  0  0  0
 19 14  2  0  0  0  0
 21 29  1  0  0  0  0
 21 20  1  1  0  0  0
 22 21  1  0  0  0  0
 23 25  1  6  0  0  0
 23 24  1  0  0  0  0
 23 22  1  0  0  0  0
 24 21  1  0  0  0  0
 25 28  1  0  0  0  0
 26 25  1  0  0  0  0
 27 25  1  0  0  0  0
 29 30  1  0  0  0  0
 31 32  1  0  0  0  0
 32 33  2  0  0  0  0
 34 33  1  0  0  0  0
 35 34  2  0  0  0  0
 36 31  2  0  0  0  0
 36 35  1  0  0  0  0
 37 11  1  0  0  0  0
 38 41  1  0  0  0  0
 38 37  1  0  0  0  0
 39 37  2  0  0  0  0
 40 38  1  0  0  0  0
M  END
>  <minimizedAffinity>
-5.21734095

$$$$
