
 OpenBabel11232419363D

 41 46  0  0  1  0  0  0  0  0999 V2000
   58.1440  -43.1980   17.4170 C   0  0  0  0  0  0  0  0  0  0  0  0
   57.3360  -43.1530   18.5360 N   0  0  0  0  0  0  0  0  0  0  0  0
   56.2090  -43.7270   18.1830 C   0  0  0  0  0  0  0  0  0  0  0  0
   56.2540  -44.1250   16.8790 N   0  0  0  0  0  0  0  0  0  0  0  0
   57.4940  -43.8280   16.3610 C   0  0  0  0  0  0  0  0  0  0  0  0
   55.1540  -44.8400   16.2580 C   0  0  0  0  0  2  0  0  0  0  0  0
   53.8790  -44.6060   16.8950 O   0  0  0  0  0  0  0  0  0  0  0  0
   53.8840  -44.4210   18.2540 C   0  0  0  0  0  0  0  0  0  0  0  0
   52.6850  -44.6290   18.9300 C   0  0  0  0  0  3  0  0  0  0  0  0
   52.6190  -44.4260   20.3130 C   0  0  0  0  0  3  0  0  0  0  0  0
   53.7540  -44.0040   21.0190 C   0  0  0  0  0  0  0  0  0  0  0  0
   54.9480  -43.7600   20.3270 C   0  0  0  0  0  3  0  0  0  0  0  0
   55.0110  -43.9710   18.9480 C   0  0  0  0  0  0  0  0  0  0  0  0
   62.0600  -41.3620   17.4490 C   0  0  0  0  0  0  0  0  0  0  0  0
   61.3070  -41.5420   16.2680 C   0  0  0  0  0  3  0  0  0  0  0  0
   60.0480  -42.1550   16.2730 C   0  0  0  0  0  3  0  0  0  0  0  0
   59.4880  -42.6400   17.4570 C   0  0  0  0  0  0  0  0  0  0  0  0
   60.2250  -42.5080   18.6330 C   0  0  0  0  0  3  0  0  0  0  0  0
   61.4810  -41.8820   18.6250 C   0  0  0  0  0  3  0  0  0  0  0  0
   66.4930  -41.1950   15.8680 C   0  0  0  0  0  1  0  0  0  0  0  0
   65.0490  -41.4260   16.2820 C   0  0  1  0  0  0  0  0  0  0  0  0
   64.7850  -41.2510   17.8020 C   0  0  0  0  0  2  0  0  0  0  0  0
   63.4370  -40.5620   17.4320 C   0  0  1  0  0  0  0  0  0  0  0  0
   64.0850  -40.2300   16.0520 C   0  0  0  0  0  2  0  0  0  0  0  0
   63.2270  -39.3460   18.2570 N   0  0  0  0  0  4  0  0  0  0  0  0
   62.4690  -38.7640   17.8770 H   0  0  0  0  0  0  0  0  0  0  0  0
   62.9310  -39.6060   19.2090 H   0  0  0  0  0  0  0  0  0  0  0  0
   64.0620  -38.7560   18.3400 H   0  0  0  0  0  0  0  0  0  0  0  0
   64.5870  -42.6850   15.7610 O   0  0  0  0  0  0  0  0  0  0  0  0
   64.7960  -42.6930   14.8080 H   0  0  0  0  0  0  0  0  0  0  0  0
   57.8810  -44.1340   14.9930 C   0  0  0  0  0  0  0  0  0  0  0  0
   57.2050  -43.5460   13.9190 C   0  0  0  0  0  3  0  0  0  0  0  0
   57.5620  -43.8650   12.6070 C   0  0  0  0  0  3  0  0  0  0  0  0
   58.5980  -44.7650   12.3630 C   0  0  0  0  0  3  0  0  0  0  0  0
   59.2800  -45.3510   13.4300 C   0  0  0  0  0  3  0  0  0  0  0  0
   58.9210  -45.0400   14.7420 C   0  0  0  0  0  3  0  0  0  0  0  0
   53.7440  -43.7740   22.4900 C   0  0  0  0  0  0  0  0  0  0  0  0
   54.5500  -42.7910   22.9890 N   0  0  0  0  0  0  0  0  0  0  0  0
   53.0150  -44.4190   23.2330 O   0  0  0  0  0  0  0  0  0  0  0  0
   54.5260  -42.6410   23.9890 H   0  0  0  0  0  0  0  0  0  0  0  0
   55.1090  -42.1630   22.4300 H   0  0  0  0  0  0  0  0  0  0  0  0
  1 17  1  0  0  0  0
  1  2  1  0  0  0  0
  3  2  2  0  0  0  0
  3 13  1  0  0  0  0
  4  3  1  0  0  0  0
  5  4  1  0  0  0  0
  5  1  2  0  0  0  0
  6  4  1  0  0  0  0
  6  7  1  0  0  0  0
  7  8  1  0  0  0  0
  8  9  2  0  0  0  0
  8 13  1  0  0  0  0
  9 10  1  0  0  0  0
 10 11  2  0  0  0  0
 11 37  1  0  0  0  0
 12 11  1  0  0  0  0
 13 12  2  0  0  0  0
 14 19  1  0  0  0  0
 15 16  1  0  0  0  0
 15 14  2  0  0  0  0
 16 17  2  0  0  0  0
 17 18  1  0  0  0  0
 19 18  2  0  0  0  0
 21 20  1  6  0  0  0
 21 22  1  0  0  0  0
 23 14  1  0  0  0  0
 23 22  1  0  0  0  0
 23 25  1  1  0  0  0
 24 21  1  0  0  0  0
 24 23  1  0  0  0  0
 25 28  1  0  0  0  0
 25 27  1  0  0  0  0
 26 25  1  0  0  0  0
 29 21  1  0  0  0  0
 30 29  1  0  0  0  0
 31  5  1  0  0  0  0
 32 31  2  0  0  0  0
 33 32  1  0  0  0  0
 34 33  2  0  0  0  0
 34 35  1  0  0  0  0
 35 36  2  0  0  0  0
 36 31  1  0  0  0  0
 37 38  1  0  0  0  0
 37 39  2  0  0  0  0
 38 40  1  0  0  0  0
 41 38  1  0  0  0  0
M  END
>  <minimizedAffinity>
-2.33939123

$$$$
