
 OpenBabel11232419363D

 41 46  0  0  1  0  0  0  0  0999 V2000
   58.5360  -42.2800   17.4410 C   0  0  0  0  0  0  0  0  0  0  0  0
   57.8080  -41.9840   18.5770 N   0  0  0  0  0  0  0  0  0  0  0  0
   56.5490  -42.1550   18.2470 C   0  0  0  0  0  0  0  0  0  0  0  0
   56.4350  -42.5350   16.9420 N   0  0  0  0  0  0  0  0  0  0  0  0
   57.6940  -42.6540   16.3970 C   0  0  0  0  0  0  0  0  0  0  0  0
   55.1500  -42.8450   16.3440 C   0  0  0  0  0  2  0  0  0  0  0  0
   54.0340  -42.2140   17.0080 O   0  0  0  0  0  0  0  0  0  0  0  0
   54.1260  -42.0530   18.3680 C   0  0  0  0  0  0  0  0  0  0  0  0
   52.9390  -41.8650   19.0700 C   0  0  0  0  0  3  0  0  0  0  0  0
   52.9700  -41.6640   20.4540 C   0  0  0  0  0  3  0  0  0  0  0  0
   54.1950  -41.6420   21.1360 C   0  0  0  0  0  0  0  0  0  0  0  0
   55.3890  -41.7950   20.4190 C   0  0  0  0  0  3  0  0  0  0  0  0
   55.3530  -42.0020   19.0380 C   0  0  0  0  0  0  0  0  0  0  0  0
   62.8540  -42.1160   17.2860 C   0  0  0  0  0  0  0  0  0  0  0  0
   62.1300  -43.3260   17.2230 C   0  0  0  0  0  3  0  0  0  0  0  0
   60.7320  -43.3630   17.2930 C   0  0  0  0  0  3  0  0  0  0  0  0
   59.9880  -42.1920   17.4530 C   0  0  0  0  0  0  0  0  0  0  0  0
   60.6790  -40.9860   17.5540 C   0  0  0  0  0  3  0  0  0  0  0  0
   62.0790  -40.9520   17.4720 C   0  0  0  0  0  3  0  0  0  0  0  0
   66.4450  -42.2950   14.2450 C   0  0  0  0  0  1  0  0  0  0  0  0
   65.1670  -42.2630   15.0660 C   0  0  1  0  0  0  0  0  0  0  0  0
   65.1750  -43.2100   16.2960 C   0  0  0  0  0  2  0  0  0  0  0  0
   64.4350  -42.0920   17.0910 C   0  0  1  0  0  0  0  0  0  0  0  0
   65.0410  -41.0830   16.0680 C   0  0  0  0  0  2  0  0  0  0  0  0
   65.0230  -41.9360   18.4450 N   0  0  0  0  0  4  0  0  0  0  0  0
   64.7040  -41.0670   18.8920 H   0  0  0  0  0  0  0  0  0  0  0  0
   64.7110  -42.7000   19.0620 H   0  0  0  0  0  0  0  0  0  0  0  0
   66.0490  -41.9310   18.4500 H   0  0  0  0  0  0  0  0  0  0  0  0
   64.0280  -42.4510   14.2050 O   0  0  0  0  0  0  0  0  0  0  0  0
   64.1170  -41.8120   13.4720 H   0  0  0  0  0  0  0  0  0  0  0  0
   57.9320  -43.0560   15.0210 C   0  0  0  0  0  0  0  0  0  0  0  0
   58.1500  -44.4010   14.7050 C   0  0  0  0  0  3  0  0  0  0  0  0
   58.4050  -44.7790   13.3860 C   0  0  0  0  0  3  0  0  0  0  0  0
   58.4390  -43.8180   12.3770 C   0  0  0  0  0  3  0  0  0  0  0  0
   58.2180  -42.4750   12.6840 C   0  0  0  0  0  3  0  0  0  0  0  0
   57.9690  -42.0940   14.0030 C   0  0  0  0  0  3  0  0  0  0  0  0
   54.2900  -41.4350   22.6070 C   0  0  0  0  0  0  0  0  0  0  0  0
   55.4370  -41.8280   23.2360 N   0  0  0  0  0  0  0  0  0  0  0  0
   53.3860  -40.9000   23.2370 O   0  0  0  0  0  0  0  0  0  0  0  0
   55.4900  -41.6730   24.2340 H   0  0  0  0  0  0  0  0  0  0  0  0
   56.2540  -42.1930   22.7710 H   0  0  0  0  0  0  0  0  0  0  0  0
  1 17  1  0  0  0  0
  1  2  1  0  0  0  0
  3  2  2  0  0  0  0
  3 13  1  0  0  0  0
  4  3  1  0  0  0  0
  5  4  1  0  0  0  0
  5  1  2  0  0  0  0
  6  4  1  0  0  0  0
  6  7  1  0  0  0  0
  7  8  1  0  0  0  0
  8 13  2  0  0  0  0
  8  9  1  0  0  0  0
  9 10  2  0  0  0  0
 10 11  1  0  0  0  0
 11 37  1  0  0  0  0
 12 11  2  0  0  0  0
 13 12  1  0  0  0  0
 14 19  1  0  0  0  0
 15 14  2  0  0  0  0
 15 16  1  0  0  0  0
 16 17  2  0  0  0  0
 17 18  1  0  0  0  0
 19 18  2  0  0  0  0
 21 20  1  6  0  0  0
 21 24  1  0  0  0  0
 21 22  1  0  0  0  0
 22 23  1  0  0  0  0
 23 14  1  0  0  0  0
 23 25  1  1  0  0  0
 24 23  1  0  0  0  0
 25 28  1  0  0  0  0
 25 26  1  0  0  0  0
 25 27  1  0  0  0  0
 29 21  1  0  0  0  0
 30 29  1  0  0  0  0
 31  5  1  0  0  0  0
 32 31  1  0  0  0  0
 33 32  2  0  0  0  0
 34 35  2  0  0  0  0
 34 33  1  0  0  0  0
 35 36  1  0  0  0  0
 36 31  2  0  0  0  0
 37 38  1  0  0  0  0
 37 39  2  0  0  0  0
 38 40  1  0  0  0  0
 41 38  1  0  0  0  0
M  END
>  <minimizedAffinity>
-5.05998278

$$$$
