
 OpenBabel11232419363D

 41 46  0  0  1  0  0  0  0  0999 V2000
   57.7470  -42.5030   16.4980 C   0  0  0  0  0  0  0  0  0  0  0  0
   59.0920  -42.1870   16.5360 N   0  0  0  0  0  0  0  0  0  0  0  0
   59.4970  -42.2140   15.2870 C   0  0  0  0  0  0  0  0  0  0  0  0
   58.4730  -42.5480   14.4500 N   0  0  0  0  0  0  0  0  0  0  0  0
   57.3240  -42.7130   15.1900 C   0  0  0  0  0  0  0  0  0  0  0  0
   58.6450  -42.5900   13.0090 C   0  0  0  0  0  2  0  0  0  0  0  0
   60.0110  -42.8050   12.5950 O   0  0  0  0  0  0  0  0  0  0  0  0
   60.9950  -42.2550   13.3770 C   0  0  0  0  0  0  0  0  0  0  0  0
   62.2450  -42.0700   12.7930 C   0  0  0  0  0  3  0  0  0  0  0  0
   63.2980  -41.5420   13.5480 C   0  0  0  0  0  3  0  0  0  0  0  0
   63.1010  -41.2080   14.8960 C   0  0  0  0  0  0  0  0  0  0  0  0
   61.8510  -41.4320   15.4890 C   0  0  0  0  0  3  0  0  0  0  0  0
   60.8010  -41.9530   14.7290 C   0  0  0  0  0  0  0  0  0  0  0  0
   55.6230  -42.7090   20.2600 C   0  0  0  0  0  0  0  0  0  0  0  0
   56.4670  -43.7430   19.7980 C   0  0  0  0  0  3  0  0  0  0  0  0
   57.1330  -43.6680   18.5690 C   0  0  0  0  0  3  0  0  0  0  0  0
   56.9710  -42.5650   17.7280 C   0  0  0  0  0  0  0  0  0  0  0  0
   56.1160  -41.5450   18.1420 C   0  0  0  0  0  3  0  0  0  0  0  0
   55.4600  -41.6190   19.3800 C   0  0  0  0  0  3  0  0  0  0  0  0
   52.6270  -44.9340   23.1320 C   0  0  0  0  0  1  0  0  0  0  0  0
   53.5360  -44.3480   22.0640 C   0  0  1  0  0  0  0  0  0  0  0  0
   53.4210  -42.8080   21.9050 C   0  0  0  0  0  2  0  0  0  0  0  0
   54.9670  -42.7690   21.7100 C   0  0  1  0  0  0  0  0  0  0  0  0
   55.0120  -44.1200   22.4880 C   0  0  0  0  0  2  0  0  0  0  0  0
   55.5660  -41.6560   22.4880 N   0  0  0  0  0  4  0  0  0  0  0  0
   56.5870  -41.7530   22.5520 H   0  0  0  0  0  0  0  0  0  0  0  0
   55.3980  -40.7570   22.0150 H   0  0  0  0  0  0  0  0  0  0  0  0
   55.2000  -41.5790   23.4430 H   0  0  0  0  0  0  0  0  0  0  0  0
   53.3640  -45.0660   20.8290 O   0  0  0  0  0  0  0  0  0  0  0  0
   53.4560  -46.0160   21.0370 H   0  0  0  0  0  0  0  0  0  0  0  0
   56.0410  -43.0610   14.6010 C   0  0  0  0  0  0  0  0  0  0  0  0
   55.6900  -44.4020   14.4110 C   0  0  0  0  0  3  0  0  0  0  0  0
   54.4690  -44.7300   13.8200 C   0  0  0  0  0  3  0  0  0  0  0  0
   53.5900  -43.7220   13.4230 C   0  0  0  0  0  3  0  0  0  0  0  0
   53.9310  -42.3830   13.6150 C   0  0  0  0  0  3  0  0  0  0  0  0
   55.1550  -42.0520   14.1990 C   0  0  0  0  0  3  0  0  0  0  0  0
   64.1820  -40.6420   15.7490 C   0  0  0  0  0  0  0  0  0  0  0  0
   64.2640  -39.2840   15.8590 N   0  0  0  0  0  0  0  0  0  0  0  0
   64.9590  -41.3650   16.3600 O   0  0  0  0  0  0  0  0  0  0  0  0
   64.9990  -38.9140   16.4490 H   0  0  0  0  0  0  0  0  0  0  0  0
   63.6090  -38.6310   15.4570 H   0  0  0  0  0  0  0  0  0  0  0  0
  1  2  1  0  0  0  0
  1 17  1  0  0  0  0
  3  2  2  0  0  0  0
  4  5  1  0  0  0  0
  4  3  1  0  0  0  0
  5  1  2  0  0  0  0
  6  4  1  0  0  0  0
  7  6  1  0  0  0  0
  7  8  1  0  0  0  0
  8 13  1  0  0  0  0
  9  8  2  0  0  0  0
  9 10  1  0  0  0  0
 10 11  2  0  0  0  0
 11 12  1  0  0  0  0
 11 37  1  0  0  0  0
 13  3  1  0  0  0  0
 13 12  2  0  0  0  0
 14 23  1  0  0  0  0
 15 14  1  0  0  0  0
 16 15  2  0  0  0  0
 17 18  2  0  0  0  0
 17 16  1  0  0  0  0
 18 19  1  0  0  0  0
 19 14  2  0  0  0  0
 21 24  1  0  0  0  0
 21 20  1  1  0  0  0
 22 21  1  0  0  0  0
 23 22  1  0  0  0  0
 23 24  1  0  0  0  0
 23 25  1  1  0  0  0
 25 26  1  0  0  0  0
 25 28  1  0  0  0  0
 27 25  1  0  0  0  0
 29 30  1  0  0  0  0
 29 21  1  0  0  0  0
 31  5  1  0  0  0  0
 32 31  1  0  0  0  0
 33 32  2  0  0  0  0
 34 35  2  0  0  0  0
 34 33  1  0  0  0  0
 35 36  1  0  0  0  0
 36 31  2  0  0  0  0
 37 38  1  0  0  0  0
 37 39  2  0  0  0  0
 38 40  1  0  0  0  0
 41 38  1  0  0  0  0
M  END
>  <minimizedAffinity>
-4.46992016

$$$$
