
 OpenBabel10152419313D

 29 32  0  0  0  0  0  0  0  0999 V2000
    2.9300  -10.1390  -26.7770 C   0  0  0  0  0  0  0  0  0  0  0  0
    1.9700  -10.3350  -25.8480 N   0  0  0  0  0  0  0  0  0  0  0  0
    1.4900  -11.5780  -25.7110 C   0  0  0  0  0  0  0  0  0  0  0  0
    0.5900  -11.8960  -24.6990 N   0  0  0  0  0  0  0  0  0  0  0  0
    1.9050  -12.6120  -26.4620 N   0  0  0  0  0  0  0  0  0  0  0  0
    2.8700  -12.3690  -27.3780 C   0  0  0  0  0  3  0  0  0  0  0  0
    3.4470  -11.1390  -27.5720 C   0  0  0  0  0  0  0  0  0  0  0  0
    4.7130  -10.9250  -28.7030 Cl  0  0  0  0  0  0  0  0  0  0  0  0
    0.4570  -12.8960  -24.6520 H   0  0  0  0  0  0  0  0  0  0  0  0
   -0.0580  -11.1090  -23.7440 C   0  0  0  0  0  0  0  0  0  0  0  0
   -0.3600   -9.7760  -24.0560 C   0  0  0  0  0  3  0  0  0  0  0  0
   -1.0940   -8.9710  -23.1740 C   0  0  0  0  0  3  0  0  0  0  0  0
   -1.5360   -9.4810  -21.9480 C   0  0  0  0  0  0  0  0  0  0  0  0
   -1.2130  -10.8020  -21.6210 C   0  0  0  0  0  3  0  0  0  0  0  0
   -0.5030  -11.6080  -22.5170 C   0  0  0  0  0  3  0  0  0  0  0  0
   -2.3230   -8.6810  -21.0200 C   0  0  0  0  0  0  0  0  0  0  0  0
   -2.0420   -8.3800  -19.7680 N   0  0  0  0  0  0  0  0  0  0  0  0
   -3.0980   -7.6340  -19.2990 N   0  0  0  0  0  0  0  0  0  0  0  0
   -4.0290   -7.4930  -20.2290 N   0  0  0  0  0  0  0  0  0  0  0  0
   -3.5560   -8.1510  -21.2950 N   0  0  0  0  0  0  0  0  0  0  0  0
   -4.1170   -8.2200  -22.1300 H   0  0  0  0  0  0  0  0  0  0  0  0
    3.4800   -8.8770  -26.7820 O   0  0  0  0  0  0  0  0  0  0  0  0
    0.3330   -4.5790  -28.1340 F   0  0  0  0  0  0  0  0  0  0  0  0
    1.0910   -5.6210  -27.7730 C   0  0  0  0  0  0  0  0  0  0  0  0
    2.1030   -6.0580  -28.6180 C   0  0  0  0  0  3  0  0  0  0  0  0
    2.8840   -7.1500  -28.2410 C   0  0  0  0  0  3  0  0  0  0  0  0
    2.6520   -7.8030  -27.0240 C   0  0  0  0  0  0  0  0  0  0  0  0
    1.6430   -7.3410  -26.1710 C   0  0  0  0  0  3  0  0  0  0  0  0
    0.8560   -6.2500  -26.5540 C   0  0  0  0  0  3  0  0  0  0  0  0
  1  2  2  0  0  0  0
  2  3  1  0  0  0  0
  3  4  1  0  0  0  0
  4  9  1  0  0  0  0
  4 10  1  0  0  0  0
  5  3  2  0  0  0  0
  6  5  1  0  0  0  0
  7  6  2  0  0  0  0
  7  1  1  0  0  0  0
  8  7  1  0  0  0  0
 10 15  1  0  0  0  0
 11 10  2  0  0  0  0
 11 12  1  0  0  0  0
 12 13  2  0  0  0  0
 13 14  1  0  0  0  0
 13 16  1  0  0  0  0
 15 14  2  0  0  0  0
 16 17  2  0  0  0  0
 17 18  1  0  0  0  0
 19 18  2  0  0  0  0
 20 16  1  0  0  0  0
 20 19  1  0  0  0  0
 21 20  1  0  0  0  0
 22  1  1  0  0  0  0
 23 24  1  0  0  0  0
 24 29  1  0  0  0  0
 25 26  1  0  0  0  0
 25 24  2  0  0  0  0
 26 27  2  0  0  0  0
 27 22  1  0  0  0  0
 27 28  1  0  0  0  0
 29 28  2  0  0  0  0
M  END
>  <minimizedAffinity>
-8.39743614

$$$$
