
 OpenBabel10152419313D

 29 32  0  0  0  0  0  0  0  0999 V2000
    2.9410   -7.5850  -27.6560 C   0  0  0  0  0  0  0  0  0  0  0  0
    1.9060   -7.2130  -26.8740 N   0  0  0  0  0  0  0  0  0  0  0  0
    1.0720   -6.2830  -27.3570 C   0  0  0  0  0  0  0  0  0  0  0  0
   -0.0880   -5.9290  -26.6760 N   0  0  0  0  0  0  0  0  0  0  0  0
    1.2350   -5.7040  -28.5590 N   0  0  0  0  0  0  0  0  0  0  0  0
    2.2850   -6.1100  -29.3090 C   0  0  0  0  0  3  0  0  0  0  0  0
    3.1760   -7.0770  -28.9150 C   0  0  0  0  0  0  0  0  0  0  0  0
    4.4400   -7.5880  -29.9500 Cl  0  0  0  0  0  0  0  0  0  0  0  0
   -0.6650   -5.3350  -27.2520 H   0  0  0  0  0  0  0  0  0  0  0  0
   -0.5870   -6.3040  -25.4260 C   0  0  0  0  0  0  0  0  0  0  0  0
   -1.4080   -7.4380  -25.3360 C   0  0  0  0  0  3  0  0  0  0  0  0
   -1.8560   -7.9150  -24.0960 C   0  0  0  0  0  3  0  0  0  0  0  0
   -1.5010   -7.2580  -22.9130 C   0  0  0  0  0  0  0  0  0  0  0  0
   -0.7060   -6.1110  -23.0000 C   0  0  0  0  0  3  0  0  0  0  0  0
   -0.2400   -5.6550  -24.2380 C   0  0  0  0  0  3  0  0  0  0  0  0
   -1.9280   -7.7410  -21.6070 C   0  0  0  0  0  0  0  0  0  0  0  0
   -2.8500   -7.2320  -20.8150 N   0  0  0  0  0  0  0  0  0  0  0  0
   -2.8700   -8.0140  -19.6840 N   0  0  0  0  0  0  0  0  0  0  0  0
   -1.9640   -8.9760  -19.7580 N   0  0  0  0  0  0  0  0  0  0  0  0
   -1.3700   -8.8020  -20.9450 N   0  0  0  0  0  0  0  0  0  0  0  0
   -0.6040   -9.4000  -21.2140 H   0  0  0  0  0  0  0  0  0  0  0  0
    3.6860   -8.6350  -27.1680 O   0  0  0  0  0  0  0  0  0  0  0  0
    1.5340  -12.4130  -23.8060 F   0  0  0  0  0  0  0  0  0  0  0  0
    2.0350  -11.4710  -24.6150 C   0  0  0  0  0  0  0  0  0  0  0  0
    2.8390  -11.8430  -25.6840 C   0  0  0  0  0  3  0  0  0  0  0  0
    3.3650  -10.8580  -26.5190 C   0  0  0  0  0  3  0  0  0  0  0  0
    3.0890   -9.5050  -26.2820 C   0  0  0  0  0  0  0  0  0  0  0  0
    2.2600   -9.1440  -25.2140 C   0  0  0  0  0  3  0  0  0  0  0  0
    1.7390  -10.1330  -24.3750 C   0  0  0  0  0  3  0  0  0  0  0  0
  1 22  1  0  0  0  0
  1  2  2  0  0  0  0
  3  2  1  0  0  0  0
  3  4  1  0  0  0  0
  4 10  1  0  0  0  0
  5  3  2  0  0  0  0
  6  7  2  0  0  0  0
  6  5  1  0  0  0  0
  7  1  1  0  0  0  0
  8  7  1  0  0  0  0
  9  4  1  0  0  0  0
 10 11  2  0  0  0  0
 10 15  1  0  0  0  0
 11 12  1  0  0  0  0
 12 13  2  0  0  0  0
 13 16  1  0  0  0  0
 14 13  1  0  0  0  0
 15 14  2  0  0  0  0
 16 20  1  0  0  0  0
 16 17  2  0  0  0  0
 17 18  1  0  0  0  0
 19 18  2  0  0  0  0
 20 19  1  0  0  0  0
 21 20  1  0  0  0  0
 22 27  1  0  0  0  0
 24 29  1  0  0  0  0
 24 23  1  0  0  0  0
 25 24  2  0  0  0  0
 26 27  2  0  0  0  0
 26 25  1  0  0  0  0
 27 28  1  0  0  0  0
 28 29  2  0  0  0  0
M  END
>  <minimizedAffinity>
-8.62229347

$$$$
