
 OpenBabel10152419313D

 29 32  0  0  0  0  0  0  0  0999 V2000
   -0.6810  -11.1840  -21.9430 C   0  0  0  0  0  0  0  0  0  0  0  0
   -0.9140  -10.0430  -22.6250 N   0  0  0  0  0  0  0  0  0  0  0  0
   -1.8800   -9.2360  -22.1650 C   0  0  0  0  0  0  0  0  0  0  0  0
   -2.1050   -7.9850  -22.7300 N   0  0  0  0  0  0  0  0  0  0  0  0
   -2.6240   -9.5240  -21.0840 N   0  0  0  0  0  0  0  0  0  0  0  0
   -2.3530  -10.6770  -20.4300 C   0  0  0  0  0  3  0  0  0  0  0  0
   -1.3650  -11.5530  -20.8040 C   0  0  0  0  0  0  0  0  0  0  0  0
   -1.0350  -12.9590  -19.8860 Cl  0  0  0  0  0  0  0  0  0  0  0  0
   -2.7580   -7.4600  -22.1670 H   0  0  0  0  0  0  0  0  0  0  0  0
   -1.5480   -7.3490  -23.8410 C   0  0  0  0  0  0  0  0  0  0  0  0
   -0.7500   -6.2130  -23.6440 C   0  0  0  0  0  3  0  0  0  0  0  0
   -0.0880   -5.5940  -24.7130 C   0  0  0  0  0  3  0  0  0  0  0  0
   -0.2180   -6.0930  -26.0140 C   0  0  0  0  0  0  0  0  0  0  0  0
   -1.0350   -7.2100  -26.2200 C   0  0  0  0  0  3  0  0  0  0  0  0
   -1.6720   -7.8390  -25.1440 C   0  0  0  0  0  3  0  0  0  0  0  0
    0.4760   -5.4910  -27.1430 C   0  0  0  0  0  0  0  0  0  0  0  0
    1.3290   -6.0620  -27.9700 N   0  0  0  0  0  0  0  0  0  0  0  0
    1.7380   -5.0850  -28.8470 N   0  0  0  0  0  0  0  0  0  0  0  0
    1.1710   -3.9240  -28.5600 N   0  0  0  0  0  0  0  0  0  0  0  0
    0.3960   -4.1700  -27.4960 N   0  0  0  0  0  0  0  0  0  0  0  0
   -0.1140   -3.4160  -27.0620 H   0  0  0  0  0  0  0  0  0  0  0  0
    0.4060  -11.9060  -22.3790 O   0  0  0  0  0  0  0  0  0  0  0  0
    1.9850  -11.6710  -27.6380 F   0  0  0  0  0  0  0  0  0  0  0  0
    1.5690  -11.7350  -26.3680 C   0  0  0  0  0  0  0  0  0  0  0  0
    2.3300  -11.1430  -25.3670 C   0  0  0  0  0  3  0  0  0  0  0  0
    1.8970  -11.2200  -24.0440 C   0  0  0  0  0  3  0  0  0  0  0  0
    0.7080  -11.8870  -23.7230 C   0  0  0  0  0  0  0  0  0  0  0  0
   -0.0610  -12.4610  -24.7420 C   0  0  0  0  0  3  0  0  0  0  0  0
    0.3790  -12.3890  -26.0680 C   0  0  0  0  0  3  0  0  0  0  0  0
  1  7  1  0  0  0  0
  2  3  1  0  0  0  0
  2  1  2  0  0  0  0
  3  5  2  0  0  0  0
  4  9  1  0  0  0  0
  4  3  1  0  0  0  0
  5  6  1  0  0  0  0
  7  6  2  0  0  0  0
  7  8  1  0  0  0  0
 10 11  1  0  0  0  0
 10  4  1  0  0  0  0
 12 11  2  0  0  0  0
 13 12  1  0  0  0  0
 14 13  2  0  0  0  0
 14 15  1  0  0  0  0
 15 10  2  0  0  0  0
 16 13  1  0  0  0  0
 17 16  2  0  0  0  0
 18 19  2  0  0  0  0
 18 17  1  0  0  0  0
 19 20  1  0  0  0  0
 20 16  1  0  0  0  0
 20 21  1  0  0  0  0
 22  1  1  0  0  0  0
 23 24  1  0  0  0  0
 24 29  2  0  0  0  0
 24 25  1  0  0  0  0
 25 26  2  0  0  0  0
 26 27  1  0  0  0  0
 27 22  1  0  0  0  0
 28 27  2  0  0  0  0
 29 28  1  0  0  0  0
M  END
>  <minimizedAffinity>
-8.91946316

$$$$
