
 OpenBabel10152419313D

 29 32  0  0  0  0  0  0  0  0999 V2000
    1.3380   -7.0090  -26.2080 C   0  0  0  0  0  0  0  0  0  0  0  0
    0.4590   -7.5750  -25.3550 N   0  0  0  0  0  0  0  0  0  0  0  0
   -0.8380   -7.2870  -25.5250 C   0  0  0  0  0  0  0  0  0  0  0  0
   -1.8230   -7.9190  -24.7730 N   0  0  0  0  0  0  0  0  0  0  0  0
   -1.2860   -6.4570  -26.4830 N   0  0  0  0  0  0  0  0  0  0  0  0
   -0.3690   -5.9150  -27.3170 C   0  0  0  0  0  3  0  0  0  0  0  0
    0.9770   -6.1730  -27.2420 C   0  0  0  0  0  0  0  0  0  0  0  0
    2.0690   -5.5030  -28.3780 Cl  0  0  0  0  0  0  0  0  0  0  0  0
   -2.7370   -7.6960  -25.1370 H   0  0  0  0  0  0  0  0  0  0  0  0
   -1.7500   -8.8200  -23.7090 C   0  0  0  0  0  0  0  0  0  0  0  0
   -2.1930   -8.4120  -22.4420 C   0  0  0  0  0  3  0  0  0  0  0  0
   -2.2320   -9.3050  -21.3620 C   0  0  0  0  0  3  0  0  0  0  0  0
   -1.8170  -10.6310  -21.5230 C   0  0  0  0  0  0  0  0  0  0  0  0
   -1.3480  -11.0360  -22.7770 C   0  0  0  0  0  3  0  0  0  0  0  0
   -1.3360  -10.1470  -23.8580 C   0  0  0  0  0  3  0  0  0  0  0  0
   -1.8690  -11.5920  -20.4300 C   0  0  0  0  0  0  0  0  0  0  0  0
   -2.9340  -12.1500  -19.8890 N   0  0  0  0  0  0  0  0  0  0  0  0
   -2.4800  -12.9590  -18.8740 N   0  0  0  0  0  0  0  0  0  0  0  0
   -1.1630  -12.8890  -18.7670 N   0  0  0  0  0  0  0  0  0  0  0  0
   -0.7820  -12.0340  -19.7240 N   0  0  0  0  0  0  0  0  0  0  0  0
    0.1920  -11.7840  -19.8140 H   0  0  0  0  0  0  0  0  0  0  0  0
    2.6370   -7.4430  -26.0710 O   0  0  0  0  0  0  0  0  0  0  0  0
    3.9740  -12.7730  -26.1270 F   0  0  0  0  0  0  0  0  0  0  0  0
    3.6170  -11.4830  -26.1080 C   0  0  0  0  0  0  0  0  0  0  0  0
    4.4490  -10.5330  -26.6860 C   0  0  0  0  0  3  0  0  0  0  0  0
    4.0760   -9.1900  -26.6570 C   0  0  0  0  0  3  0  0  0  0  0  0
    2.8760   -8.7990  -26.0490 C   0  0  0  0  0  0  0  0  0  0  0  0
    2.0360   -9.7680  -25.4880 C   0  0  0  0  0  3  0  0  0  0  0  0
    2.4150  -11.1140  -25.5130 C   0  0  0  0  0  3  0  0  0  0  0  0
  1 22  1  0  0  0  0
  1  2  2  0  0  0  0
  3  2  1  0  0  0  0
  3  4  1  0  0  0  0
  4 10  1  0  0  0  0
  5  3  2  0  0  0  0
  6  7  2  0  0  0  0
  6  5  1  0  0  0  0
  7  1  1  0  0  0  0
  8  7  1  0  0  0  0
  9  4  1  0  0  0  0
 10 11  1  0  0  0  0
 11 12  2  0  0  0  0
 13 12  1  0  0  0  0
 13 16  1  0  0  0  0
 14 13  2  0  0  0  0
 15 10  2  0  0  0  0
 15 14  1  0  0  0  0
 16 17  2  0  0  0  0
 16 20  1  0  0  0  0
 17 18  1  0  0  0  0
 18 19  2  0  0  0  0
 20 19  1  0  0  0  0
 21 20  1  0  0  0  0
 22 27  1  0  0  0  0
 23 24  1  0  0  0  0
 24 29  1  0  0  0  0
 25 26  1  0  0  0  0
 25 24  2  0  0  0  0
 26 27  2  0  0  0  0
 27 28  1  0  0  0  0
 29 28  2  0  0  0  0
M  END
>  <minimizedAffinity>
-9.23793983

$$$$
