
 OpenBabel11232418513D

 37 41  0  0  1  0  0  0  0  0999 V2000
    7.1770   -5.4510   11.1530 C   0  0  2  0  0  3  0  0  0  0  0  0
    6.6730   -5.4760    9.9290 N   0  0  0  0  0  2  0  0  0  0  0  0
    6.6890   -4.1920    9.4520 C   0  0  2  0  0  3  0  0  0  0  0  0
    7.0640   -3.3410   10.4600 C   0  0  0  0  0  2  0  0  0  0  0  0
    7.2370   -4.1370   11.5720 N   0  0  0  0  0  0  0  0  0  0  0  0
    6.3210   -3.8390    8.0900 C   0  0  0  0  0  0  0  0  0  0  0  0
    6.3410   -2.4900    7.7030 C   0  0  0  0  0  3  0  0  0  0  0  0
    6.0010   -2.1180    6.4010 C   0  0  0  0  0  3  0  0  0  0  0  0
    5.6300   -3.0920    5.4830 C   0  0  0  0  0  0  0  0  0  0  0  0
    5.3160   -2.7200    4.2340 F   0  0  0  0  0  0  0  0  0  0  0  0
    5.5750   -4.4400    5.8410 C   0  0  0  0  0  0  0  0  0  0  0  0
    5.1750   -5.4710    4.8290 C   0  0  0  0  0  1  0  0  0  0  0  0
    5.9350   -4.8070    7.1480 C   0  0  0  0  0  3  0  0  0  0  0  0
    8.9650   -8.3740   13.8030 N   0  0  0  0  0  0  0  0  0  0  0  0
    9.6250   -8.1000   12.5290 C   0  0  0  0  0  2  0  0  0  0  0  0
    9.1240   -6.8060   11.8950 C   0  0  0  0  0  2  0  0  0  0  0  0
    7.5810   -6.7380   11.8490 C   0  0  1  0  0  3  0  0  0  0  0  0
    7.0060   -7.0090   13.2380 C   0  0  0  0  0  2  0  0  0  0  0  0
    7.5110   -8.3440   13.7950 C   0  0  0  0  0  2  0  0  0  0  0  0
   10.2630   -8.6780   15.8290 C   0  0  0  0  0  0  0  0  0  0  0  0
   10.8200   -8.0530   16.9380 C   0  0  0  0  0  0  0  0  0  0  0  0
   11.5300   -8.7460   17.9030 N   0  0  0  0  0  0  0  0  0  0  0  0
   10.6770   -6.7460   17.1880 N   0  0  0  0  0  0  0  0  0  0  0  0
   10.0050   -6.0440   16.2740 C   0  0  0  0  0  3  0  0  0  0  0  0
    9.4390   -6.5290   15.1650 N   0  0  0  0  0  0  0  0  0  0  0  0
    9.5700   -7.8490   14.9460 C   0  0  0  0  0  0  0  0  0  0  0  0
   11.8470   -8.1380   18.6480 H   0  0  0  0  0  0  0  0  0  0  0  0
   12.1970   -9.4350   17.5850 H   0  0  0  0  0  0  0  0  0  0  0  0
    9.3550  -10.9950   16.1600 C   0  0  0  0  0  1  0  0  0  0  0  0
   10.4680  -10.1480   15.5610 C   0  0  0  0  0  2  0  0  0  0  0  0
    7.2810   -3.5720   12.9090 C   0  0  0  0  0  2  0  0  0  0  0  0
    6.9220   -2.0900   12.9700 C   0  0  0  0  0  3  0  0  0  0  0  0
    6.9100   -1.3720   14.3390 C   0  0  0  0  0  2  0  0  0  0  0  0
    7.4500   -0.1740   13.6670 N   0  0  0  0  0  4  0  0  0  0  0  0
    8.5770    0.4140   14.4350 C   0  0  0  0  0  1  0  0  0  0  0  0
    7.9390   -1.0040   12.5500 C   0  0  0  0  0  2  0  0  0  0  0  0
    6.7350    0.5160   13.3980 H   0  0  0  0  0  0  0  0  0  0  0  0
  1  2  1  6  0  0  0
  1  5  1  0  0  0  0
  1 17  1  0  0  0  0
  3  6  1  1  0  0  0
  3  2  1  0  0  0  0
  3  4  1  0  0  0  0
  4  5  1  0  0  0  0
  5 31  1  0  0  0  0
  7  6  1  0  0  0  0
  8  7  2  0  0  0  0
  9 11  2  0  0  0  0
  9  8  1  0  0  0  0
 10  9  1  0  0  0  0
 11 13  1  0  0  0  0
 12 11  1  0  0  0  0
 13  6  2  0  0  0  0
 14 26  1  0  0  0  0
 15 14  1  0  0  0  0
 16 15  1  0  0  0  0
 17 16  1  1  0  0  0
 17 18  1  0  0  0  0
 18 19  1  0  0  0  0
 19 14  1  0  0  0  0
 20 21  1  0  0  0  0
 21 23  2  0  0  0  0
 21 22  1  0  0  0  0
 22 27  1  0  0  0  0
 24 23  1  0  0  0  0
 25 24  2  0  0  0  0
 26 25  1  0  0  0  0
 26 20  2  0  0  0  0
 28 22  1  0  0  0  0
 30 20  1  0  0  0  0
 30 29  1  0  0  0  0
 31 32  1  0  0  0  0
 32 33  1  0  0  0  0
 34 33  1  0  0  0  0
 34 35  1  0  0  0  0
 36 32  1  0  0  0  0
 36 34  1  0  0  0  0
 37 34  1  0  0  0  0
M  END
>  <minimizedAffinity>
-11.4973869

$$$$
