
 OpenBabel11232418513D

 37 41  0  0  1  0  0  0  0  0999 V2000
    7.1770   -5.4510   11.1530 C   0  0  2  0  0  3  0  0  0  0  0  0
    6.6730   -5.4760    9.9290 N   0  0  0  0  0  2  0  0  0  0  0  0
    6.6890   -4.1920    9.4520 C   0  0  2  0  0  3  0  0  0  0  0  0
    7.0640   -3.3410   10.4600 C   0  0  0  0  0  2  0  0  0  0  0  0
    7.2370   -4.1370   11.5720 N   0  0  0  0  0  0  0  0  0  0  0  0
    6.3210   -3.8390    8.0900 C   0  0  0  0  0  0  0  0  0  0  0  0
    6.3410   -2.4900    7.7030 C   0  0  0  0  0  3  0  0  0  0  0  0
    6.0010   -2.1180    6.4010 C   0  0  0  0  0  3  0  0  0  0  0  0
    5.6300   -3.0920    5.4830 C   0  0  0  0  0  0  0  0  0  0  0  0
    5.3160   -2.7200    4.2340 F   0  0  0  0  0  0  0  0  0  0  0  0
    5.5750   -4.4400    5.8410 C   0  0  0  0  0  0  0  0  0  0  0  0
    5.1750   -5.4710    4.8290 C   0  0  0  0  0  1  0  0  0  0  0  0
    5.9350   -4.8070    7.1480 C   0  0  0  0  0  3  0  0  0  0  0  0
    8.9650   -8.3740   13.8030 N   0  0  0  0  0  0  0  0  0  0  0  0
    9.6250   -8.1000   12.5290 C   0  0  0  0  0  2  0  0  0  0  0  0
    9.1240   -6.8060   11.8950 C   0  0  0  0  0  2  0  0  0  0  0  0
    7.5810   -6.7380   11.8490 C   0  0  1  0  0  3  0  0  0  0  0  0
    7.0060   -7.0090   13.2380 C   0  0  0  0  0  2  0  0  0  0  0  0
    7.5110   -8.3440   13.7950 C   0  0  0  0  0  2  0  0  0  0  0  0
   10.2630   -8.6780   15.8290 C   0  0  0  0  0  0  0  0  0  0  0  0
   10.8200   -8.0530   16.9380 C   0  0  0  0  0  0  0  0  0  0  0  0
   11.5300   -8.7460   17.9030 N   0  0  0  0  0  0  0  0  0  0  0  0
   10.6770   -6.7460   17.1880 N   0  0  0  0  0  0  0  0  0  0  0  0
   10.0050   -6.0440   16.2740 C   0  0  0  0  0  3  0  0  0  0  0  0
    9.4390   -6.5290   15.1650 N   0  0  0  0  0  0  0  0  0  0  0  0
    9.5700   -7.8490   14.9460 C   0  0  0  0  0  0  0  0  0  0  0  0
   11.8470   -8.1380   18.6480 H   0  0  0  0  0  0  0  0  0  0  0  0
   12.1970   -9.4350   17.5850 H   0  0  0  0  0  0  0  0  0  0  0  0
    9.3550  -10.9950   16.1600 C   0  0  0  0  0  1  0  0  0  0  0  0
   10.4680  -10.1480   15.5610 C   0  0  0  0  0  2  0  0  0  0  0  0
    7.2810   -3.5720   12.9090 C   0  0  0  0  0  2  0  0  0  0  0  0
    6.9220   -2.0900   12.9700 C   0  0  0  0  0  3  0  0  0  0  0  0
    6.9100   -1.3720   14.3390 C   0  0  0  0  0  2  0  0  0  0  0  0
    7.4500   -0.1740   13.6670 N   0  0  0  0  0  4  0  0  0  0  0  0
    8.5770    0.4140   14.4350 C   0  0  0  0  0  1  0  0  0  0  0  0
    7.9390   -1.0040   12.5500 C   0  0  0  0  0  2  0  0  0  0  0  0
    6.7350    0.5160   13.3980 H   0  0  0  0  0  0  0  0  0  0  0  0
  1  2  1  6  0  0  0
  1  5  1  0  0  0  0
  1 17  1  0  0  0  0
  3  6  1  1  0  0  0
  3  2  1  0  0  0  0
  3  4  1  0  0  0  0
  4  5  1  0  0  0  0
  5 31  1  0  0  0  0
  7  6  1  0  0  0  0
  8  7  2  0  0  0  0
  9 11  2  0  0  0  0
  9  8  1  0  0  0  0
 10  9  1  0  0  0  0
 11 13  1  0  0  0  0
 12 11  1  0  0  0  0
 13  6  2  0  0  0  0
 14 26  1  0  0  0  0
 15 14  1  0  0  0  0
 16 15  1  0  0  0  0
 17 16  1  1  0  0  0
 17 18  1  0  0  0  0
 18 19  1  0  0  0  0
 19 14  1  0  0  0  0
 20 21  1  0  0  0  0
 21 23  2  0  0  0  0
 21 22  1  0  0  0  0
 22 27  1  0  0  0  0
 24 23  1  0  0  0  0
 25 24  2  0  0  0  0
 26 25  1  0  0  0  0
 26 20  2  0  0  0  0
 28 22  1  0  0  0  0
 30 20  1  0  0  0  0
 30 29  1  0  0  0  0
 31 32  1  0  0  0  0
 32 33  1  0  0  0  0
 34 33  1  0  0  0  0
 34 35  1  0  0  0  0
 36 32  1  0  0  0  0
 36 34  1  0  0  0  0
 37 34  1  0  0  0  0
M  END
>  <minimizedAffinity>
-11.4973869

$$$$

 OpenBabel11232418513D

 37 41  0  0  1  0  0  0  0  0999 V2000
    6.9610   -6.0450    9.6930 C   0  0  2  0  0  3  0  0  0  0  0  0
    7.1590   -7.2300    9.1370 N   0  0  0  0  0  2  0  0  0  0  0  0
    7.1840   -7.0470    7.7790 C   0  0  2  0  0  3  0  0  0  0  0  0
    6.8370   -5.7510    7.4930 C   0  0  0  0  0  2  0  0  0  0  0  0
    6.5630   -5.1630    8.7090 N   0  0  0  0  0  0  0  0  0  0  0  0
    7.4990   -8.1050    6.8340 C   0  0  0  0  0  0  0  0  0  0  0  0
    6.9570   -9.3850    7.0310 C   0  0  0  0  0  3  0  0  0  0  0  0
    7.2330  -10.4210    6.1370 C   0  0  0  0  0  3  0  0  0  0  0  0
    8.0620  -10.1860    5.0470 C   0  0  0  0  0  0  0  0  0  0  0  0
    8.3100  -11.1870    4.1930 F   0  0  0  0  0  0  0  0  0  0  0  0
    8.6390   -8.9320    4.8350 C   0  0  0  0  0  0  0  0  0  0  0  0
    9.5260   -8.7050    3.6480 C   0  0  0  0  0  1  0  0  0  0  0  0
    8.3410   -7.8900    5.7300 C   0  0  0  0  0  3  0  0  0  0  0  0
    7.9930   -6.5830   13.8650 N   0  0  0  0  0  0  0  0  0  0  0  0
    6.6180   -6.8550   13.4520 C   0  0  0  0  0  2  0  0  0  0  0  0
    6.4980   -7.0040   11.9390 C   0  0  0  0  0  2  0  0  0  0  0  0
    7.1810   -5.8440   11.1810 C   0  0  1  0  0  3  0  0  0  0  0  0
    8.6170   -5.6740   11.6740 C   0  0  0  0  0  2  0  0  0  0  0  0
    8.6630   -5.4810   13.1930 C   0  0  0  0  0  2  0  0  0  0  0  0
    9.3960   -7.8430   15.3920 C   0  0  0  0  0  0  0  0  0  0  0  0
   10.1770   -8.9800   15.5570 C   0  0  0  0  0  0  0  0  0  0  0  0
   10.8410   -9.2590   16.7380 N   0  0  0  0  0  0  0  0  0  0  0  0
   10.3880   -9.8680   14.5790 N   0  0  0  0  0  0  0  0  0  0  0  0
    9.7560   -9.6350   13.4280 C   0  0  0  0  0  3  0  0  0  0  0  0
    8.9710   -8.5890   13.1560 N   0  0  0  0  0  0  0  0  0  0  0  0
    8.7930   -7.6930   14.1420 C   0  0  0  0  0  0  0  0  0  0  0  0
   11.3760  -10.1160   16.6770 H   0  0  0  0  0  0  0  0  0  0  0  0
   10.3340   -9.1200   17.6010 H   0  0  0  0  0  0  0  0  0  0  0  0
   10.2480   -5.8230   16.6170 C   0  0  0  0  0  1  0  0  0  0  0  0
    9.1530   -6.8750   16.5230 C   0  0  0  0  0  2  0  0  0  0  0  0
    5.8210   -3.9170    8.7990 C   0  0  0  0  0  2  0  0  0  0  0  0
    6.7020   -2.6710    8.8330 C   0  0  0  0  0  3  0  0  0  0  0  0
    6.1830   -1.3640    8.1900 C   0  0  0  0  0  2  0  0  0  0  0  0
    6.8360   -0.6180    9.2840 N   0  0  0  0  0  4  0  0  0  0  0  0
    5.9320    0.4170    9.8470 C   0  0  0  0  0  1  0  0  0  0  0  0
    6.8470   -1.8320   10.1220 C   0  0  0  0  0  2  0  0  0  0  0  0
    7.7720   -0.2600    9.0490 H   0  0  0  0  0  0  0  0  0  0  0  0
  1  2  1  6  0  0  0
  1 17  1  0  0  0  0
  3  6  1  6  0  0  0
  3  2  1  0  0  0  0
  4  3  1  0  0  0  0
  4  5  1  0  0  0  0
  5 31  1  0  0  0  0
  5  1  1  0  0  0  0
  6  7  1  0  0  0  0
  8  7  2  0  0  0  0
  9  8  1  0  0  0  0
 10  9  1  0  0  0  0
 11  9  2  0  0  0  0
 11 13  1  0  0  0  0
 12 11  1  0  0  0  0
 13  6  2  0  0  0  0
 14 26  1  0  0  0  0
 15 14  1  0  0  0  0
 16 15  1  0  0  0  0
 17 18  1  6  0  0  0
 17 16  1  0  0  0  0
 18 19  1  0  0  0  0
 19 14  1  0  0  0  0
 20 21  1  0  0  0  0
 20 30  1  0  0  0  0
 21 22  1  0  0  0  0
 22 28  1  0  0  0  0
 23 21  2  0  0  0  0
 24 23  1  0  0  0  0
 25 24  2  0  0  0  0
 25 26  1  0  0  0  0
 26 20  2  0  0  0  0
 27 22  1  0  0  0  0
 30 29  1  0  0  0  0
 31 32  1  0  0  0  0
 32 36  1  0  0  0  0
 33 32  1  0  0  0  0
 33 34  1  0  0  0  0
 34 35  1  0  0  0  0
 34 36  1  0  0  0  0
 37 34  1  0  0  0  0
M  END
>  <minimizedAffinity>
-11.4368162

$$$$

 OpenBabel11232418513D

 37 41  0  0  1  0  0  0  0  0999 V2000
    7.5170   -6.6910   10.7570 C   0  0  2  0  0  3  0  0  0  0  0  0
    7.6670   -5.4230   11.1090 N   0  0  0  0  0  2  0  0  0  0  0  0
    7.0800   -4.6550   10.1390 C   0  0  2  0  0  3  0  0  0  0  0  0
    6.7010   -5.4600    9.0940 C   0  0  0  0  0  2  0  0  0  0  0  0
    7.1090   -6.7310    9.4390 N   0  0  0  0  0  0  0  0  0  0  0  0
    6.9390   -3.2120   10.2350 C   0  0  0  0  0  0  0  0  0  0  0  0
    6.6220   -2.4750    9.0840 C   0  0  0  0  0  3  0  0  0  0  0  0
    6.4710   -1.0890    9.1440 C   0  0  0  0  0  3  0  0  0  0  0  0
    6.6480   -0.4300   10.3540 C   0  0  0  0  0  0  0  0  0  0  0  0
    6.4910    0.9000   10.3980 F   0  0  0  0  0  0  0  0  0  0  0  0
    6.9890   -1.1280   11.5140 C   0  0  0  0  0  0  0  0  0  0  0  0
    7.1700   -0.3930   12.8080 C   0  0  0  0  0  1  0  0  0  0  0  0
    7.1210   -2.5260   11.4480 C   0  0  0  0  0  3  0  0  0  0  0  0
    8.9430   -9.0370   14.1070 N   0  0  0  0  0  0  0  0  0  0  0  0
    9.6740   -9.1190   12.8450 C   0  0  0  0  0  2  0  0  0  0  0  0
    9.3100   -7.9750   11.9020 C   0  0  0  0  0  2  0  0  0  0  0  0
    7.7820   -7.8060   11.7530 C   0  0  1  0  0  3  0  0  0  0  0  0
    7.1320   -7.7020   13.1310 C   0  0  0  0  0  2  0  0  0  0  0  0
    7.4990   -8.9020   14.0090 C   0  0  0  0  0  2  0  0  0  0  0  0
   10.1540   -8.9550   16.2070 C   0  0  0  0  0  0  0  0  0  0  0  0
   10.7170   -8.1310   17.1740 C   0  0  0  0  0  0  0  0  0  0  0  0
   11.3470   -8.6310   18.3000 N   0  0  0  0  0  0  0  0  0  0  0  0
   10.6530   -6.7960   17.1220 N   0  0  0  0  0  0  0  0  0  0  0  0
   10.0600   -6.2790   16.0460 C   0  0  0  0  0  3  0  0  0  0  0  0
    9.4970   -6.9650   15.0470 N   0  0  0  0  0  0  0  0  0  0  0  0
    9.5460   -8.3060   15.1320 C   0  0  0  0  0  0  0  0  0  0  0  0
   11.6810   -7.8910   18.9050 H   0  0  0  0  0  0  0  0  0  0  0  0
   11.9760   -9.4120   18.1730 H   0  0  0  0  0  0  0  0  0  0  0  0
    9.0610  -11.0860   16.9620 C   0  0  0  0  0  1  0  0  0  0  0  0
   10.2680  -10.4570   16.2800 C   0  0  0  0  0  2  0  0  0  0  0  0
    7.2140   -7.7880    8.4490 C   0  0  0  0  0  2  0  0  0  0  0  0
    6.7980   -7.3660    7.0420 C   0  0  0  0  0  3  0  0  0  0  0  0
    7.8190   -6.6310    6.1420 C   0  0  0  0  0  2  0  0  0  0  0  0
    7.2670   -7.3680    4.9890 N   0  0  0  0  0  4  0  0  0  0  0  0
    8.3480   -7.9250    4.1370 C   0  0  0  0  0  1  0  0  0  0  0  0
    6.7140   -8.3950    5.8920 C   0  0  0  0  0  2  0  0  0  0  0  0
    6.5560   -6.8460    4.4580 H   0  0  0  0  0  0  0  0  0  0  0  0
  1  2  1  1  0  0  0
  1 17  1  0  0  0  0
  3  6  1  6  0  0  0
  3  2  1  0  0  0  0
  4  5  1  0  0  0  0
  4  3  1  0  0  0  0
  5  1  1  0  0  0  0
  6 13  1  0  0  0  0
  7  8  1  0  0  0  0
  7  6  2  0  0  0  0
  8  9  2  0  0  0  0
  9 10  1  0  0  0  0
  9 11  1  0  0  0  0
 11 12  1  0  0  0  0
 13 11  2  0  0  0  0
 14 26  1  0  0  0  0
 15 14  1  0  0  0  0
 16 15  1  0  0  0  0
 17 16  1  1  0  0  0
 17 18  1  0  0  0  0
 18 19  1  0  0  0  0
 19 14  1  0  0  0  0
 20 30  1  0  0  0  0
 20 21  1  0  0  0  0
 21 22  1  0  0  0  0
 22 27  1  0  0  0  0
 23 21  2  0  0  0  0
 24 23  1  0  0  0  0
 25 26  1  0  0  0  0
 25 24  2  0  0  0  0
 26 20  2  0  0  0  0
 28 22  1  0  0  0  0
 30 29  1  0  0  0  0
 31  5  1  0  0  0  0
 32 31  1  0  0  0  0
 33 32  1  0  0  0  0
 34 36  1  0  0  0  0
 34 33  1  0  0  0  0
 35 34  1  0  0  0  0
 36 32  1  0  0  0  0
 37 34  1  0  0  0  0
M  END
>  <minimizedAffinity>
-11.4284058

$$$$

 OpenBabel11232418513D

 37 41  0  0  1  0  0  0  0  0999 V2000
    7.6500   -5.9940   11.5570 C   0  0  2  0  0  3  0  0  0  0  0  0
    8.1090   -4.9730   12.2640 N   0  0  0  0  0  2  0  0  0  0  0  0
    7.5290   -3.8360   11.7660 C   0  0  2  0  0  3  0  0  0  0  0  0
    6.8240   -4.1490   10.6310 C   0  0  0  0  0  2  0  0  0  0  0  0
    7.0230   -5.4980   10.4320 N   0  0  0  0  0  0  0  0  0  0  0  0
    7.6980   -2.5220   12.3650 C   0  0  0  0  0  0  0  0  0  0  0  0
    7.9460   -2.4230   13.7430 C   0  0  0  0  0  3  0  0  0  0  0  0
    8.1210   -1.1780   14.3480 C   0  0  0  0  0  3  0  0  0  0  0  0
    8.0380   -0.0230   13.5790 C   0  0  0  0  0  0  0  0  0  0  0  0
    8.2180    1.1650   14.1720 F   0  0  0  0  0  0  0  0  0  0  0  0
    7.7670   -0.0830   12.2110 C   0  0  0  0  0  0  0  0  0  0  0  0
    7.6870    1.1780   11.4050 C   0  0  0  0  0  1  0  0  0  0  0  0
    7.6100   -1.3420   11.6070 C   0  0  0  0  0  3  0  0  0  0  0  0
    8.9620   -9.5260   13.6940 N   0  0  0  0  0  0  0  0  0  0  0  0
    9.6700   -9.1550   12.4720 C   0  0  0  0  0  2  0  0  0  0  0  0
    9.3700   -7.7180   12.0550 C   0  0  0  0  0  2  0  0  0  0  0  0
    7.8540   -7.4200   12.0370 C   0  0  1  0  0  3  0  0  0  0  0  0
    7.2290   -7.8200   13.3730 C   0  0  0  0  0  2  0  0  0  0  0  0
    7.5280   -9.2840   13.7080 C   0  0  0  0  0  2  0  0  0  0  0  0
    9.4280  -10.1150   16.0010 C   0  0  0  0  0  0  0  0  0  0  0  0
   10.1300   -9.7760   17.1510 C   0  0  0  0  0  0  0  0  0  0  0  0
   10.0310  -10.5050   18.3230 N   0  0  0  0  0  0  0  0  0  0  0  0
   10.9160   -8.6970   17.2340 N   0  0  0  0  0  0  0  0  0  0  0  0
   11.0410   -7.9750   16.1200 C   0  0  0  0  0  3  0  0  0  0  0  0
   10.4310   -8.2080   14.9540 N   0  0  0  0  0  0  0  0  0  0  0  0
    9.6230   -9.2810   14.8990 C   0  0  0  0  0  0  0  0  0  0  0  0
   10.5950  -10.1060   19.0640 H   0  0  0  0  0  0  0  0  0  0  0  0
   10.0550  -11.5120   18.2480 H   0  0  0  0  0  0  0  0  0  0  0  0
    9.3870  -12.5880   15.5670 C   0  0  0  0  0  1  0  0  0  0  0  0
    8.5720  -11.3550   15.9300 C   0  0  0  0  0  2  0  0  0  0  0  0
    6.7430   -6.1250    9.1520 C   0  0  0  0  0  2  0  0  0  0  0  0
    6.8520   -5.1780    7.9600 C   0  0  0  0  0  3  0  0  0  0  0  0
    7.3190   -5.7340    6.5950 C   0  0  0  0  0  2  0  0  0  0  0  0
    6.3630   -4.8180    5.9430 N   0  0  0  0  0  4  0  0  0  0  0  0
    5.5820   -5.5130    4.8890 C   0  0  0  0  0  1  0  0  0  0  0  0
    5.5930   -4.7080    7.1960 C   0  0  0  0  0  2  0  0  0  0  0  0
    6.7800   -3.9320    5.6250 H   0  0  0  0  0  0  0  0  0  0  0  0
  1 17  1  0  0  0  0
  1  2  1  1  0  0  0
  3  2  1  0  0  0  0
  3  6  1  6  0  0  0
  4  3  1  0  0  0  0
  5  4  1  0  0  0  0
  5  1  1  0  0  0  0
  6  7  1  0  0  0  0
  7  8  2  0  0  0  0
  9 10  1  0  0  0  0
  9  8  1  0  0  0  0
 11  9  2  0  0  0  0
 12 11  1  0  0  0  0
 13 11  1  0  0  0  0
 13  6  2  0  0  0  0
 14 19  1  0  0  0  0
 14 26  1  0  0  0  0
 15 14  1  0  0  0  0
 16 15  1  0  0  0  0
 17 16  1  1  0  0  0
 17 18  1  0  0  0  0
 18 19  1  0  0  0  0
 20 21  1  0  0  0  0
 21 23  2  0  0  0  0
 21 22  1  0  0  0  0
 22 27  1  0  0  0  0
 24 23  1  0  0  0  0
 25 24  2  0  0  0  0
 26 25  1  0  0  0  0
 26 20  2  0  0  0  0
 28 22  1  0  0  0  0
 29 30  1  0  0  0  0
 30 20  1  0  0  0  0
 31  5  1  0  0  0  0
 32 31  1  0  0  0  0
 33 32  1  0  0  0  0
 34 33  1  0  0  0  0
 34 36  1  0  0  0  0
 35 34  1  0  0  0  0
 36 32  1  0  0  0  0
 37 34  1  0  0  0  0
M  END
>  <minimizedAffinity>
-11.4156389

$$$$

 OpenBabel11232418513D

 37 41  0  0  1  0  0  0  0  0999 V2000
    6.8570   -5.4700    9.8550 C   0  0  2  0  0  3  0  0  0  0  0  0
    6.5660   -4.1800    9.7830 N   0  0  0  0  0  2  0  0  0  0  0  0
    7.2750   -3.5440   10.7660 C   0  0  2  0  0  3  0  0  0  0  0  0
    7.8900   -4.4810   11.5580 C   0  0  0  0  0  2  0  0  0  0  0  0
    7.5040   -5.7040   11.0520 N   0  0  0  0  0  0  0  0  0  0  0  0
    7.3070   -2.0990   10.9240 C   0  0  0  0  0  0  0  0  0  0  0  0
    6.9210   -1.2830    9.8490 C   0  0  0  0  0  3  0  0  0  0  0  0
    6.9310    0.1070    9.9700 C   0  0  0  0  0  3  0  0  0  0  0  0
    7.3400    0.6900   11.1640 C   0  0  0  0  0  0  0  0  0  0  0  0
    7.3350    2.0260   11.2680 F   0  0  0  0  0  0  0  0  0  0  0  0
    7.7550   -0.0900   12.2440 C   0  0  0  0  0  0  0  0  0  0  0  0
    8.1870    0.5640   13.5220 C   0  0  0  0  0  1  0  0  0  0  0  0
    7.7240   -1.4890   12.1200 C   0  0  0  0  0  3  0  0  0  0  0  0
    6.7700   -7.7170    6.1530 N   0  0  0  0  0  0  0  0  0  0  0  0
    6.0210   -6.4650    6.2200 C   0  0  0  0  0  2  0  0  0  0  0  0
    6.4490   -5.6080    7.4080 C   0  0  0  0  0  2  0  0  0  0  0  0
    6.4790   -6.4120    8.7260 C   0  0  1  0  0  3  0  0  0  0  0  0
    7.3130   -7.6790    8.5450 C   0  0  0  0  0  2  0  0  0  0  0  0
    6.8020   -8.5150    7.3680 C   0  0  0  0  0  2  0  0  0  0  0  0
    8.5250   -8.8830    4.9500 C   0  0  0  0  0  0  0  0  0  0  0  0
    9.7090   -8.7480    4.2350 C   0  0  0  0  0  0  0  0  0  0  0  0
   10.3900   -9.8350    3.7170 N   0  0  0  0  0  0  0  0  0  0  0  0
   10.3080   -7.5690    4.0320 N   0  0  0  0  0  0  0  0  0  0  0  0
    9.6740   -6.4980    4.5110 C   0  0  0  0  0  3  0  0  0  0  0  0
    8.5290   -6.5000    5.1990 N   0  0  0  0  0  0  0  0  0  0  0  0
    7.9570   -7.6970    5.4170 C   0  0  0  0  0  0  0  0  0  0  0  0
   11.2400   -9.5550    3.2430 H   0  0  0  0  0  0  0  0  0  0  0  0
    9.8450  -10.5490    3.2550 H   0  0  0  0  0  0  0  0  0  0  0  0
    6.8910  -10.5390    4.0060 C   0  0  0  0  0  1  0  0  0  0  0  0
    7.8580  -10.2230    5.1370 C   0  0  0  0  0  2  0  0  0  0  0  0
    7.6510   -6.9240   11.8260 C   0  0  0  0  0  2  0  0  0  0  0  0
    9.0120   -7.0730   12.4990 C   0  0  0  0  0  3  0  0  0  0  0  0
    9.0960   -7.0480   14.0430 C   0  0  0  0  0  2  0  0  0  0  0  0
   10.1580   -8.0700   13.9580 N   0  0  0  0  0  4  0  0  0  0  0  0
    9.9330   -9.1660   14.9340 C   0  0  0  0  0  1  0  0  0  0  0  0
    9.7020   -8.4520   12.6080 C   0  0  0  0  0  2  0  0  0  0  0  0
   11.1130   -7.6860   13.9870 H   0  0  0  0  0  0  0  0  0  0  0  0
  1  2  1  6  0  0  0
  1  5  1  0  0  0  0
  2  3  1  0  0  0  0
  3  6  1  1  0  0  0
  3  4  1  0  0  0  0
  5  4  1  0  0  0  0
  5 31  1  0  0  0  0
  6 13  1  0  0  0  0
  7  8  1  0  0  0  0
  7  6  2  0  0  0  0
  8  9  2  0  0  0  0
  9 10  1  0  0  0  0
  9 11  1  0  0  0  0
 11 12  1  0  0  0  0
 13 11  2  0  0  0  0
 14 15  1  0  0  0  0
 14 19  1  0  0  0  0
 15 16  1  0  0  0  0
 17 16  1  6  0  0  0
 17  1  1  0  0  0  0
 18 17  1  0  0  0  0
 19 18  1  0  0  0  0
 20 30  1  0  0  0  0
 20 26  1  0  0  0  0
 21 20  2  0  0  0  0
 22 21  1  0  0  0  0
 23 21  1  0  0  0  0
 23 24  2  0  0  0  0
 24 25  1  0  0  0  0
 25 26  2  0  0  0  0
 26 14  1  0  0  0  0
 27 22  1  0  0  0  0
 28 22  1  0  0  0  0
 29 30  1  0  0  0  0
 31 32  1  0  0  0  0
 32 36  1  0  0  0  0
 32 33  1  0  0  0  0
 34 37  1  0  0  0  0
 34 33  1  0  0  0  0
 34 35  1  0  0  0  0
 36 34  1  0  0  0  0
M  END
>  <minimizedAffinity>
-11.2653456

$$$$

 OpenBabel11232418513D

 37 41  0  0  1  0  0  0  0  0999 V2000
    7.2040   -6.5830   11.3690 C   0  0  2  0  0  3  0  0  0  0  0  0
    7.4760   -6.5270   10.0740 N   0  0  0  0  0  2  0  0  0  0  0  0
    7.0820   -7.7160    9.5200 C   0  0  2  0  0  3  0  0  0  0  0  0
    6.7070   -8.5770   10.5200 C   0  0  0  0  0  2  0  0  0  0  0  0
    6.9210   -7.8940   11.6980 N   0  0  0  0  0  0  0  0  0  0  0  0
    7.1120   -7.9830    8.0920 C   0  0  0  0  0  0  0  0  0  0  0  0
    6.7890   -9.2680    7.6270 C   0  0  0  0  0  3  0  0  0  0  0  0
    6.8010   -9.5560    6.2620 C   0  0  0  0  0  3  0  0  0  0  0  0
    7.1460   -8.5620    5.3530 C   0  0  0  0  0  0  0  0  0  0  0  0
    7.1420   -8.8510    4.0450 F   0  0  0  0  0  0  0  0  0  0  0  0
    7.4980   -7.2810    5.7820 C   0  0  0  0  0  0  0  0  0  0  0  0
    7.8620   -6.2270    4.7800 C   0  0  0  0  0  1  0  0  0  0  0  0
    7.4660   -6.9960    7.1570 C   0  0  0  0  0  3  0  0  0  0  0  0
    7.5110   -2.4890   12.7490 N   0  0  0  0  0  0  0  0  0  0  0  0
    8.7050   -3.3290   12.8050 C   0  0  0  0  0  2  0  0  0  0  0  0
    8.5600   -4.5820   11.9460 C   0  0  0  0  0  2  0  0  0  0  0  0
    7.2340   -5.3260   12.2200 C   0  0  1  0  0  3  0  0  0  0  0  0
    6.0590   -4.3570   12.1050 C   0  0  0  0  0  2  0  0  0  0  0  0
    6.2450   -3.1480   13.0260 C   0  0  0  0  0  2  0  0  0  0  0  0
    8.1100   -0.2880   11.9240 C   0  0  0  0  0  0  0  0  0  0  0  0
    8.0060    0.6070   10.8650 C   0  0  0  0  0  0  0  0  0  0  0  0
    8.5770    1.8670   10.9000 N   0  0  0  0  0  0  0  0  0  0  0  0
    7.3110    0.3430    9.7540 N   0  0  0  0  0  0  0  0  0  0  0  0
    6.7540   -0.8660    9.6820 C   0  0  0  0  0  3  0  0  0  0  0  0
    6.7970   -1.8120   10.6240 N   0  0  0  0  0  0  0  0  0  0  0  0
    7.4760   -1.5180   11.7460 C   0  0  0  0  0  0  0  0  0  0  0  0
    8.3870    2.3900   10.0540 H   0  0  0  0  0  0  0  0  0  0  0  0
    9.5170    1.9420   11.2610 H   0  0  0  0  0  0  0  0  0  0  0  0
    8.0680    0.5890   14.2760 C   0  0  0  0  0  1  0  0  0  0  0  0
    8.9260    0.0270   13.1520 C   0  0  0  0  0  2  0  0  0  0  0  0
    6.9870   -8.5830   12.9740 C   0  0  0  0  0  2  0  0  0  0  0  0
    8.3470   -9.2080   13.2730 C   0  0  0  0  0  3  0  0  0  0  0  0
    9.5930   -8.2960   13.3620 C   0  0  0  0  0  2  0  0  0  0  0  0
   10.0910   -9.1560   14.4530 N   0  0  0  0  0  4  0  0  0  0  0  0
   10.5890   -8.3470   15.5940 C   0  0  0  0  0  1  0  0  0  0  0  0
    8.7240   -9.6520   14.7040 C   0  0  0  0  0  2  0  0  0  0  0  0
   10.7530   -9.8820   14.1470 H   0  0  0  0  0  0  0  0  0  0  0  0
  1  2  1  6  0  0  0
  1  5  1  0  0  0  0
  1 17  1  0  0  0  0
  3  6  1  1  0  0  0
  3  2  1  0  0  0  0
  3  4  1  0  0  0  0
  4  5  1  0  0  0  0
  5 31  1  0  0  0  0
  7  6  1  0  0  0  0
  8  7  2  0  0  0  0
  9 11  2  0  0  0  0
  9  8  1  0  0  0  0
 10  9  1  0  0  0  0
 11 13  1  0  0  0  0
 12 11  1  0  0  0  0
 13  6  2  0  0  0  0
 14 15  1  0  0  0  0
 14 19  1  0  0  0  0
 16 15  1  0  0  0  0
 17 16  1  6  0  0  0
 18 17  1  0  0  0  0
 18 19  1  0  0  0  0
 20 30  1  0  0  0  0
 21 22  1  0  0  0  0
 21 20  2  0  0  0  0
 22 28  1  0  0  0  0
 23 21  1  0  0  0  0
 24 23  2  0  0  0  0
 24 25  1  0  0  0  0
 25 26  2  0  0  0  0
 26 20  1  0  0  0  0
 26 14  1  0  0  0  0
 27 22  1  0  0  0  0
 30 29  1  0  0  0  0
 31 32  1  0  0  0  0
 32 33  1  0  0  0  0
 32 36  1  0  0  0  0
 33 34  1  0  0  0  0
 34 36  1  0  0  0  0
 34 35  1  0  0  0  0
 37 34  1  0  0  0  0
M  END
>  <minimizedAffinity>
-11.1761961

$$$$

 OpenBabel11232418513D

 37 41  0  0  1  0  0  0  0  0999 V2000
    6.6430   -3.3830   10.4820 C   0  0  2  0  0  3  0  0  0  0  0  0
    6.2880   -4.1750    9.4820 N   0  0  0  0  0  2  0  0  0  0  0  0
    6.3850   -3.4460    8.3260 C   0  0  2  0  0  3  0  0  0  0  0  0
    6.6520   -2.1370    8.6400 C   0  0  0  0  0  2  0  0  0  0  0  0
    6.6760   -2.0830   10.0170 N   0  0  0  0  0  0  0  0  0  0  0  0
    6.1900   -4.0130    7.0020 C   0  0  0  0  0  0  0  0  0  0  0  0
    6.2790   -5.4030    6.8310 C   0  0  0  0  0  3  0  0  0  0  0  0
    6.0890   -5.9800    5.5750 C   0  0  0  0  0  3  0  0  0  0  0  0
    5.8190   -5.1690    4.4790 C   0  0  0  0  0  0  0  0  0  0  0  0
    5.6290   -5.7380    3.2820 F   0  0  0  0  0  0  0  0  0  0  0  0
    5.7500   -3.7800    4.6080 C   0  0  0  0  0  0  0  0  0  0  0  0
    5.4540   -2.9290    3.4110 C   0  0  0  0  0  1  0  0  0  0  0  0
    5.9250   -3.2090    5.8800 C   0  0  0  0  0  3  0  0  0  0  0  0
    7.7740   -5.9770   13.7610 N   0  0  0  0  0  0  0  0  0  0  0  0
    6.3650   -5.9190   13.3800 C   0  0  0  0  0  2  0  0  0  0  0  0
    6.1740   -5.2930   12.0010 C   0  0  0  0  0  2  0  0  0  0  0  0
    6.9370   -3.9580   11.8560 C   0  0  1  0  0  3  0  0  0  0  0  0
    8.4000   -4.1480   12.2520 C   0  0  0  0  0  2  0  0  0  0  0  0
    8.5210   -4.7340   13.6620 C   0  0  0  0  0  2  0  0  0  0  0  0
    9.0970   -7.9200   14.3610 C   0  0  0  0  0  0  0  0  0  0  0  0
    9.7700   -9.0390   13.8860 C   0  0  0  0  0  0  0  0  0  0  0  0
   10.4410   -9.9120   14.7230 N   0  0  0  0  0  0  0  0  0  0  0  0
    9.8660   -9.3350   12.5850 N   0  0  0  0  0  0  0  0  0  0  0  0
    9.2240   -8.5190   11.7480 C   0  0  0  0  0  3  0  0  0  0  0  0
    8.5340   -7.4260   12.0850 N   0  0  0  0  0  0  0  0  0  0  0  0
    8.4730   -7.1290   13.3950 C   0  0  0  0  0  0  0  0  0  0  0  0
   10.8910  -10.6590   14.2080 H   0  0  0  0  0  0  0  0  0  0  0  0
    9.9770  -10.1860   15.5780 H   0  0  0  0  0  0  0  0  0  0  0  0
   10.1330   -6.7690   16.3370 C   0  0  0  0  0  1  0  0  0  0  0  0
    8.9820   -7.6290   15.8360 C   0  0  0  0  0  2  0  0  0  0  0  0
    6.5690   -0.8220   10.7290 C   0  0  0  0  0  2  0  0  0  0  0  0
    7.9020   -0.2790   11.2350 C   0  0  0  0  0  3  0  0  0  0  0  0
    7.9210    1.0320   12.0540 C   0  0  0  0  0  2  0  0  0  0  0  0
    9.0000    0.4520   12.8770 N   0  0  0  0  0  4  0  0  0  0  0  0
    8.7490    0.6650   14.3250 C   0  0  0  0  0  1  0  0  0  0  0  0
    8.6070   -0.9070   12.4590 C   0  0  0  0  0  2  0  0  0  0  0  0
    9.9470    0.7260   12.5810 H   0  0  0  0  0  0  0  0  0  0  0  0
  1  2  1  6  0  0  0
  1 17  1  0  0  0  0
  3  6  1  1  0  0  0
  3  4  1  0  0  0  0
  3  2  1  0  0  0  0
  4  5  1  0  0  0  0
  5  1  1  0  0  0  0
  5 31  1  0  0  0  0
  7  6  1  0  0  0  0
  8  7  2  0  0  0  0
  9 11  2  0  0  0  0
  9  8  1  0  0  0  0
 10  9  1  0  0  0  0
 11 13  1  0  0  0  0
 12 11  1  0  0  0  0
 13  6  2  0  0  0  0
 15 14  1  0  0  0  0
 16 15  1  0  0  0  0
 17 16  1  6  0  0  0
 17 18  1  0  0  0  0
 18 19  1  0  0  0  0
 19 14  1  0  0  0  0
 20 30  1  0  0  0  0
 21 20  1  0  0  0  0
 21 22  1  0  0  0  0
 22 28  1  0  0  0  0
 23 21  2  0  0  0  0
 24 25  2  0  0  0  0
 24 23  1  0  0  0  0
 25 26  1  0  0  0  0
 26 14  1  0  0  0  0
 26 20  2  0  0  0  0
 27 22  1  0  0  0  0
 30 29  1  0  0  0  0
 31 32  1  0  0  0  0
 32 33  1  0  0  0  0
 32 36  1  0  0  0  0
 33 34  1  0  0  0  0
 34 35  1  0  0  0  0
 36 34  1  0  0  0  0
 37 34  1  0  0  0  0
M  END
>  <minimizedAffinity>
-10.9477434

$$$$

 OpenBabel11232418513D

 37 41  0  0  1  0  0  0  0  0999 V2000
    8.5990   -9.4500   14.0480 C   0  0  2  0  0  3  0  0  0  0  0  0
    8.1390  -10.5260   13.4270 N   0  0  0  0  0  2  0  0  0  0  0  0
    8.5040  -11.6160   14.1710 C   0  0  2  0  0  3  0  0  0  0  0  0
    9.3390  -11.2130   15.1830 C   0  0  0  0  0  2  0  0  0  0  0  0
    9.5020   -9.8560   15.0100 N   0  0  0  0  0  0  0  0  0  0  0  0
    8.0750  -12.9720   13.8690 C   0  0  0  0  0  0  0  0  0  0  0  0
    7.1670  -13.1860   12.8210 C   0  0  0  0  0  3  0  0  0  0  0  0
    6.7410  -14.4760   12.5000 C   0  0  0  0  0  3  0  0  0  0  0  0
    7.2130  -15.5580   13.2330 C   0  0  0  0  0  0  0  0  0  0  0  0
    6.8040  -16.7910   12.9060 F   0  0  0  0  0  0  0  0  0  0  0  0
    8.0970  -15.3790   14.2980 C   0  0  0  0  0  0  0  0  0  0  0  0
    8.5940  -16.5640   15.0700 C   0  0  0  0  0  1  0  0  0  0  0  0
    8.5340  -14.0790   14.6030 C   0  0  0  0  0  3  0  0  0  0  0  0
    7.4290   -5.9130   11.8390 N   0  0  0  0  0  0  0  0  0  0  0  0
    8.7990   -5.9940   12.3390 C   0  0  0  0  0  2  0  0  0  0  0  0
    9.1750   -7.4180   12.7390 C   0  0  0  0  0  2  0  0  0  0  0  0
    8.1150   -8.0660   13.6560 C   0  0  1  0  0  3  0  0  0  0  0  0
    6.7320   -7.9470   13.0180 C   0  0  0  0  0  2  0  0  0  0  0  0
    6.3980   -6.4900   12.6860 C   0  0  0  0  0  2  0  0  0  0  0  0
    6.5800   -5.1470    9.6990 C   0  0  0  0  0  0  0  0  0  0  0  0
    6.4550   -5.4370    8.3460 C   0  0  0  0  0  0  0  0  0  0  0  0
    5.8080   -4.5910    7.4630 N   0  0  0  0  0  0  0  0  0  0  0  0
    6.9040   -6.5710    7.7980 N   0  0  0  0  0  0  0  0  0  0  0  0
    7.5410   -7.4080    8.6190 C   0  0  0  0  0  3  0  0  0  0  0  0
    7.7360   -7.2330    9.9290 N   0  0  0  0  0  0  0  0  0  0  0  0
    7.2520   -6.0990   10.4660 C   0  0  0  0  0  0  0  0  0  0  0  0
    5.7930   -4.9660    6.5220 H   0  0  0  0  0  0  0  0  0  0  0  0
    6.0030   -3.6020    7.5380 H   0  0  0  0  0  0  0  0  0  0  0  0
    7.0200   -2.6880    9.9500 C   0  0  0  0  0  1  0  0  0  0  0  0
    6.0890   -3.8450   10.2810 C   0  0  0  0  0  2  0  0  0  0  0  0
   10.5860   -9.1350   15.6530 C   0  0  0  0  0  2  0  0  0  0  0  0
   10.1410   -8.2460   16.8110 C   0  0  0  0  0  3  0  0  0  0  0  0
   11.2090   -7.4850   17.6320 C   0  0  0  0  0  2  0  0  0  0  0  0
   10.2640   -6.3550   17.7320 N   0  0  0  0  0  4  0  0  0  0  0  0
   10.9350   -5.0630   17.4410 C   0  0  0  0  0  1  0  0  0  0  0  0
    9.5250   -6.8520   16.5550 C   0  0  0  0  0  2  0  0  0  0  0  0
    9.7140   -6.3440   18.6010 H   0  0  0  0  0  0  0  0  0  0  0  0
  1  2  1  1  0  0  0
  1  5  1  0  0  0  0
  2  3  1  0  0  0  0
  3  6  1  6  0  0  0
  3  4  1  0  0  0  0
  5  4  1  0  0  0  0
  5 31  1  0  0  0  0
  6 13  1  0  0  0  0
  7  6  2  0  0  0  0
  8  7  1  0  0  0  0
  8  9  2  0  0  0  0
  9 11  1  0  0  0  0
 10  9  1  0  0  0  0
 11 13  2  0  0  0  0
 11 12  1  0  0  0  0
 14 15  1  0  0  0  0
 14 19  1  0  0  0  0
 15 16  1  0  0  0  0
 17 16  1  6  0  0  0
 17  1  1  0  0  0  0
 18 17  1  0  0  0  0
 19 18  1  0  0  0  0
 20 30  1  0  0  0  0
 20 26  1  0  0  0  0
 21 20  2  0  0  0  0
 22 28  1  0  0  0  0
 22 21  1  0  0  0  0
 23 21  1  0  0  0  0
 23 24  2  0  0  0  0
 24 25  1  0  0  0  0
 25 26  2  0  0  0  0
 26 14  1  0  0  0  0
 27 22  1  0  0  0  0
 29 30  1  0  0  0  0
 31 32  1  0  0  0  0
 32 33  1  0  0  0  0
 33 34  1  0  0  0  0
 34 37  1  0  0  0  0
 35 34  1  0  0  0  0
 36 32  1  0  0  0  0
 36 34  1  0  0  0  0
M  END
>  <minimizedAffinity>
-10.8155451

$$$$

 OpenBabel11232418513D

 37 41  0  0  1  0  0  0  0  0999 V2000
    7.3920   -8.4480   12.7230 C   0  0  2  0  0  3  0  0  0  0  0  0
    6.8960   -8.1550   11.5310 N   0  0  0  0  0  2  0  0  0  0  0  0
    7.3430   -6.9030   11.1970 C   0  0  2  0  0  3  0  0  0  0  0  0
    7.9940   -6.3550   12.2720 C   0  0  0  0  0  2  0  0  0  0  0  0
    7.8980   -7.2900   13.2800 N   0  0  0  0  0  0  0  0  0  0  0  0
    7.1030   -6.2860    9.9030 C   0  0  0  0  0  0  0  0  0  0  0  0
    7.2460   -7.0570    8.7380 C   0  0  0  0  0  3  0  0  0  0  0  0
    7.0150   -6.4980    7.4810 C   0  0  0  0  0  3  0  0  0  0  0  0
    6.6500   -5.1600    7.3800 C   0  0  0  0  0  0  0  0  0  0  0  0
    6.4220   -4.6400    6.1660 F   0  0  0  0  0  0  0  0  0  0  0  0
    6.5240   -4.3580    8.5150 C   0  0  0  0  0  0  0  0  0  0  0  0
    6.1250   -2.9200    8.3780 C   0  0  0  0  0  1  0  0  0  0  0  0
    6.7410   -4.9340    9.7780 C   0  0  0  0  0  3  0  0  0  0  0  0
    8.0830  -12.0870   14.9690 N   0  0  0  0  0  0  0  0  0  0  0  0
    8.8190  -11.8930   13.7220 C   0  0  0  0  0  2  0  0  0  0  0  0
    8.7780  -10.4400   13.2560 C   0  0  0  0  0  2  0  0  0  0  0  0
    7.3430   -9.8690   13.2530 C   0  0  1  0  0  3  0  0  0  0  0  0
    6.6860  -10.1020   14.6120 C   0  0  0  0  0  2  0  0  0  0  0  0
    6.7190  -11.5850   14.9970 C   0  0  0  0  0  2  0  0  0  0  0  0
    9.8620  -12.7850   16.4620 C   0  0  0  0  0  0  0  0  0  0  0  0
   10.5080  -12.5410   17.6680 C   0  0  0  0  0  0  0  0  0  0  0  0
   11.5680  -13.3130   18.1110 N   0  0  0  0  0  0  0  0  0  0  0  0
   10.1310  -11.5780   18.5150 N   0  0  0  0  0  0  0  0  0  0  0  0
    9.1180  -10.8080   18.1160 C   0  0  0  0  0  3  0  0  0  0  0  0
    8.4300  -10.9350   16.9780 N   0  0  0  0  0  0  0  0  0  0  0  0
    8.8060  -11.9270   16.1520 C   0  0  0  0  0  0  0  0  0  0  0  0
   11.9050  -13.0060   19.0160 H   0  0  0  0  0  0  0  0  0  0  0  0
   12.2800  -13.5570   17.4380 H   0  0  0  0  0  0  0  0  0  0  0  0
    9.5980  -15.1760   15.7420 C   0  0  0  0  0  1  0  0  0  0  0  0
   10.3300  -13.8610   15.5140 C   0  0  0  0  0  2  0  0  0  0  0  0
    8.1440   -6.9370   14.6680 C   0  0  0  0  0  2  0  0  0  0  0  0
    9.6220   -6.7850   15.0170 C   0  0  0  0  0  3  0  0  0  0  0  0
   10.0150   -6.2570   16.4170 C   0  0  0  0  0  2  0  0  0  0  0  0
   11.1580   -7.1910   16.3990 N   0  0  0  0  0  4  0  0  0  0  0  0
   11.2770   -7.9230   17.6860 C   0  0  0  0  0  1  0  0  0  0  0  0
   10.4880   -8.0140   15.3740 C   0  0  0  0  0  2  0  0  0  0  0  0
   12.0430   -6.7670   16.0870 H   0  0  0  0  0  0  0  0  0  0  0  0
  1  2  1  6  0  0  0
  1 17  1  0  0  0  0
  1  5  1  0  0  0  0
  3  6  1  1  0  0  0
  3  2  1  0  0  0  0
  3  4  1  0  0  0  0
  4  5  1  0  0  0  0
  5 31  1  0  0  0  0
  7  6  2  0  0  0  0
  8  7  1  0  0  0  0
  9  8  2  0  0  0  0
  9 11  1  0  0  0  0
 10  9  1  0  0  0  0
 11 13  2  0  0  0  0
 12 11  1  0  0  0  0
 13  6  1  0  0  0  0
 14 19  1  0  0  0  0
 14 26  1  0  0  0  0
 15 14  1  0  0  0  0
 16 15  1  0  0  0  0
 17 16  1  1  0  0  0
 17 18  1  0  0  0  0
 18 19  1  0  0  0  0
 20 21  1  0  0  0  0
 21 22  1  0  0  0  0
 21 23  2  0  0  0  0
 22 27  1  0  0  0  0
 24 23  1  0  0  0  0
 25 24  2  0  0  0  0
 26 20  2  0  0  0  0
 26 25  1  0  0  0  0
 28 22  1  0  0  0  0
 30 29  1  0  0  0  0
 30 20  1  0  0  0  0
 31 32  1  0  0  0  0
 32 36  1  0  0  0  0
 32 33  1  0  0  0  0
 34 33  1  0  0  0  0
 34 35  1  0  0  0  0
 36 34  1  0  0  0  0
 37 34  1  0  0  0  0
M  END
>  <minimizedAffinity>
-10.742239

$$$$
