
 OpenBabel11232418513D

 37 41  0  0  1  0  0  0  0  0999 V2000
    6.8570   -5.4700    9.8550 C   0  0  2  0  0  3  0  0  0  0  0  0
    6.5660   -4.1800    9.7830 N   0  0  0  0  0  2  0  0  0  0  0  0
    7.2750   -3.5440   10.7660 C   0  0  2  0  0  3  0  0  0  0  0  0
    7.8900   -4.4810   11.5580 C   0  0  0  0  0  2  0  0  0  0  0  0
    7.5040   -5.7040   11.0520 N   0  0  0  0  0  0  0  0  0  0  0  0
    7.3070   -2.0990   10.9240 C   0  0  0  0  0  0  0  0  0  0  0  0
    6.9210   -1.2830    9.8490 C   0  0  0  0  0  3  0  0  0  0  0  0
    6.9310    0.1070    9.9700 C   0  0  0  0  0  3  0  0  0  0  0  0
    7.3400    0.6900   11.1640 C   0  0  0  0  0  0  0  0  0  0  0  0
    7.3350    2.0260   11.2680 F   0  0  0  0  0  0  0  0  0  0  0  0
    7.7550   -0.0900   12.2440 C   0  0  0  0  0  0  0  0  0  0  0  0
    8.1870    0.5640   13.5220 C   0  0  0  0  0  1  0  0  0  0  0  0
    7.7240   -1.4890   12.1200 C   0  0  0  0  0  3  0  0  0  0  0  0
    6.7700   -7.7170    6.1530 N   0  0  0  0  0  0  0  0  0  0  0  0
    6.0210   -6.4650    6.2200 C   0  0  0  0  0  2  0  0  0  0  0  0
    6.4490   -5.6080    7.4080 C   0  0  0  0  0  2  0  0  0  0  0  0
    6.4790   -6.4120    8.7260 C   0  0  1  0  0  3  0  0  0  0  0  0
    7.3130   -7.6790    8.5450 C   0  0  0  0  0  2  0  0  0  0  0  0
    6.8020   -8.5150    7.3680 C   0  0  0  0  0  2  0  0  0  0  0  0
    8.5250   -8.8830    4.9500 C   0  0  0  0  0  0  0  0  0  0  0  0
    9.7090   -8.7480    4.2350 C   0  0  0  0  0  0  0  0  0  0  0  0
   10.3900   -9.8350    3.7170 N   0  0  0  0  0  0  0  0  0  0  0  0
   10.3080   -7.5690    4.0320 N   0  0  0  0  0  0  0  0  0  0  0  0
    9.6740   -6.4980    4.5110 C   0  0  0  0  0  3  0  0  0  0  0  0
    8.5290   -6.5000    5.1990 N   0  0  0  0  0  0  0  0  0  0  0  0
    7.9570   -7.6970    5.4170 C   0  0  0  0  0  0  0  0  0  0  0  0
   11.2400   -9.5550    3.2430 H   0  0  0  0  0  0  0  0  0  0  0  0
    9.8450  -10.5490    3.2550 H   0  0  0  0  0  0  0  0  0  0  0  0
    6.8910  -10.5390    4.0060 C   0  0  0  0  0  1  0  0  0  0  0  0
    7.8580  -10.2230    5.1370 C   0  0  0  0  0  2  0  0  0  0  0  0
    7.6510   -6.9240   11.8260 C   0  0  0  0  0  2  0  0  0  0  0  0
    9.0120   -7.0730   12.4990 C   0  0  0  0  0  3  0  0  0  0  0  0
    9.0960   -7.0480   14.0430 C   0  0  0  0  0  2  0  0  0  0  0  0
   10.1580   -8.0700   13.9580 N   0  0  0  0  0  4  0  0  0  0  0  0
    9.9330   -9.1660   14.9340 C   0  0  0  0  0  1  0  0  0  0  0  0
    9.7020   -8.4520   12.6080 C   0  0  0  0  0  2  0  0  0  0  0  0
   11.1130   -7.6860   13.9870 H   0  0  0  0  0  0  0  0  0  0  0  0
  1  2  1  6  0  0  0
  1  5  1  0  0  0  0
  2  3  1  0  0  0  0
  3  6  1  1  0  0  0
  3  4  1  0  0  0  0
  5  4  1  0  0  0  0
  5 31  1  0  0  0  0
  6 13  1  0  0  0  0
  7  8  1  0  0  0  0
  7  6  2  0  0  0  0
  8  9  2  0  0  0  0
  9 10  1  0  0  0  0
  9 11  1  0  0  0  0
 11 12  1  0  0  0  0
 13 11  2  0  0  0  0
 14 15  1  0  0  0  0
 14 19  1  0  0  0  0
 15 16  1  0  0  0  0
 17 16  1  6  0  0  0
 17  1  1  0  0  0  0
 18 17  1  0  0  0  0
 19 18  1  0  0  0  0
 20 30  1  0  0  0  0
 20 26  1  0  0  0  0
 21 20  2  0  0  0  0
 22 21  1  0  0  0  0
 23 21  1  0  0  0  0
 23 24  2  0  0  0  0
 24 25  1  0  0  0  0
 25 26  2  0  0  0  0
 26 14  1  0  0  0  0
 27 22  1  0  0  0  0
 28 22  1  0  0  0  0
 29 30  1  0  0  0  0
 31 32  1  0  0  0  0
 32 36  1  0  0  0  0
 32 33  1  0  0  0  0
 34 37  1  0  0  0  0
 34 33  1  0  0  0  0
 34 35  1  0  0  0  0
 36 34  1  0  0  0  0
M  END
>  <minimizedAffinity>
-11.2653456

$$$$
