
 OpenBabel11232418513D

 37 41  0  0  1  0  0  0  0  0999 V2000
    6.9610   -6.0450    9.6930 C   0  0  2  0  0  3  0  0  0  0  0  0
    7.1590   -7.2300    9.1370 N   0  0  0  0  0  2  0  0  0  0  0  0
    7.1840   -7.0470    7.7790 C   0  0  2  0  0  3  0  0  0  0  0  0
    6.8370   -5.7510    7.4930 C   0  0  0  0  0  2  0  0  0  0  0  0
    6.5630   -5.1630    8.7090 N   0  0  0  0  0  0  0  0  0  0  0  0
    7.4990   -8.1050    6.8340 C   0  0  0  0  0  0  0  0  0  0  0  0
    6.9570   -9.3850    7.0310 C   0  0  0  0  0  3  0  0  0  0  0  0
    7.2330  -10.4210    6.1370 C   0  0  0  0  0  3  0  0  0  0  0  0
    8.0620  -10.1860    5.0470 C   0  0  0  0  0  0  0  0  0  0  0  0
    8.3100  -11.1870    4.1930 F   0  0  0  0  0  0  0  0  0  0  0  0
    8.6390   -8.9320    4.8350 C   0  0  0  0  0  0  0  0  0  0  0  0
    9.5260   -8.7050    3.6480 C   0  0  0  0  0  1  0  0  0  0  0  0
    8.3410   -7.8900    5.7300 C   0  0  0  0  0  3  0  0  0  0  0  0
    7.9930   -6.5830   13.8650 N   0  0  0  0  0  0  0  0  0  0  0  0
    6.6180   -6.8550   13.4520 C   0  0  0  0  0  2  0  0  0  0  0  0
    6.4980   -7.0040   11.9390 C   0  0  0  0  0  2  0  0  0  0  0  0
    7.1810   -5.8440   11.1810 C   0  0  1  0  0  3  0  0  0  0  0  0
    8.6170   -5.6740   11.6740 C   0  0  0  0  0  2  0  0  0  0  0  0
    8.6630   -5.4810   13.1930 C   0  0  0  0  0  2  0  0  0  0  0  0
    9.3960   -7.8430   15.3920 C   0  0  0  0  0  0  0  0  0  0  0  0
   10.1770   -8.9800   15.5570 C   0  0  0  0  0  0  0  0  0  0  0  0
   10.8410   -9.2590   16.7380 N   0  0  0  0  0  0  0  0  0  0  0  0
   10.3880   -9.8680   14.5790 N   0  0  0  0  0  0  0  0  0  0  0  0
    9.7560   -9.6350   13.4280 C   0  0  0  0  0  3  0  0  0  0  0  0
    8.9710   -8.5890   13.1560 N   0  0  0  0  0  0  0  0  0  0  0  0
    8.7930   -7.6930   14.1420 C   0  0  0  0  0  0  0  0  0  0  0  0
   11.3760  -10.1160   16.6770 H   0  0  0  0  0  0  0  0  0  0  0  0
   10.3340   -9.1200   17.6010 H   0  0  0  0  0  0  0  0  0  0  0  0
   10.2480   -5.8230   16.6170 C   0  0  0  0  0  1  0  0  0  0  0  0
    9.1530   -6.8750   16.5230 C   0  0  0  0  0  2  0  0  0  0  0  0
    5.8210   -3.9170    8.7990 C   0  0  0  0  0  2  0  0  0  0  0  0
    6.7020   -2.6710    8.8330 C   0  0  0  0  0  3  0  0  0  0  0  0
    6.1830   -1.3640    8.1900 C   0  0  0  0  0  2  0  0  0  0  0  0
    6.8360   -0.6180    9.2840 N   0  0  0  0  0  4  0  0  0  0  0  0
    5.9320    0.4170    9.8470 C   0  0  0  0  0  1  0  0  0  0  0  0
    6.8470   -1.8320   10.1220 C   0  0  0  0  0  2  0  0  0  0  0  0
    7.7720   -0.2600    9.0490 H   0  0  0  0  0  0  0  0  0  0  0  0
  1  2  1  6  0  0  0
  1 17  1  0  0  0  0
  3  6  1  6  0  0  0
  3  2  1  0  0  0  0
  4  3  1  0  0  0  0
  4  5  1  0  0  0  0
  5 31  1  0  0  0  0
  5  1  1  0  0  0  0
  6  7  1  0  0  0  0
  8  7  2  0  0  0  0
  9  8  1  0  0  0  0
 10  9  1  0  0  0  0
 11  9  2  0  0  0  0
 11 13  1  0  0  0  0
 12 11  1  0  0  0  0
 13  6  2  0  0  0  0
 14 26  1  0  0  0  0
 15 14  1  0  0  0  0
 16 15  1  0  0  0  0
 17 18  1  6  0  0  0
 17 16  1  0  0  0  0
 18 19  1  0  0  0  0
 19 14  1  0  0  0  0
 20 21  1  0  0  0  0
 20 30  1  0  0  0  0
 21 22  1  0  0  0  0
 22 28  1  0  0  0  0
 23 21  2  0  0  0  0
 24 23  1  0  0  0  0
 25 24  2  0  0  0  0
 25 26  1  0  0  0  0
 26 20  2  0  0  0  0
 27 22  1  0  0  0  0
 30 29  1  0  0  0  0
 31 32  1  0  0  0  0
 32 36  1  0  0  0  0
 33 32  1  0  0  0  0
 33 34  1  0  0  0  0
 34 35  1  0  0  0  0
 34 36  1  0  0  0  0
 37 34  1  0  0  0  0
M  END
>  <minimizedAffinity>
-11.4368162

$$$$
