
 OpenBabel11232418513D

 37 41  0  0  1  0  0  0  0  0999 V2000
    6.6430   -3.3830   10.4820 C   0  0  2  0  0  3  0  0  0  0  0  0
    6.2880   -4.1750    9.4820 N   0  0  0  0  0  2  0  0  0  0  0  0
    6.3850   -3.4460    8.3260 C   0  0  2  0  0  3  0  0  0  0  0  0
    6.6520   -2.1370    8.6400 C   0  0  0  0  0  2  0  0  0  0  0  0
    6.6760   -2.0830   10.0170 N   0  0  0  0  0  0  0  0  0  0  0  0
    6.1900   -4.0130    7.0020 C   0  0  0  0  0  0  0  0  0  0  0  0
    6.2790   -5.4030    6.8310 C   0  0  0  0  0  3  0  0  0  0  0  0
    6.0890   -5.9800    5.5750 C   0  0  0  0  0  3  0  0  0  0  0  0
    5.8190   -5.1690    4.4790 C   0  0  0  0  0  0  0  0  0  0  0  0
    5.6290   -5.7380    3.2820 F   0  0  0  0  0  0  0  0  0  0  0  0
    5.7500   -3.7800    4.6080 C   0  0  0  0  0  0  0  0  0  0  0  0
    5.4540   -2.9290    3.4110 C   0  0  0  0  0  1  0  0  0  0  0  0
    5.9250   -3.2090    5.8800 C   0  0  0  0  0  3  0  0  0  0  0  0
    7.7740   -5.9770   13.7610 N   0  0  0  0  0  0  0  0  0  0  0  0
    6.3650   -5.9190   13.3800 C   0  0  0  0  0  2  0  0  0  0  0  0
    6.1740   -5.2930   12.0010 C   0  0  0  0  0  2  0  0  0  0  0  0
    6.9370   -3.9580   11.8560 C   0  0  1  0  0  3  0  0  0  0  0  0
    8.4000   -4.1480   12.2520 C   0  0  0  0  0  2  0  0  0  0  0  0
    8.5210   -4.7340   13.6620 C   0  0  0  0  0  2  0  0  0  0  0  0
    9.0970   -7.9200   14.3610 C   0  0  0  0  0  0  0  0  0  0  0  0
    9.7700   -9.0390   13.8860 C   0  0  0  0  0  0  0  0  0  0  0  0
   10.4410   -9.9120   14.7230 N   0  0  0  0  0  0  0  0  0  0  0  0
    9.8660   -9.3350   12.5850 N   0  0  0  0  0  0  0  0  0  0  0  0
    9.2240   -8.5190   11.7480 C   0  0  0  0  0  3  0  0  0  0  0  0
    8.5340   -7.4260   12.0850 N   0  0  0  0  0  0  0  0  0  0  0  0
    8.4730   -7.1290   13.3950 C   0  0  0  0  0  0  0  0  0  0  0  0
   10.8910  -10.6590   14.2080 H   0  0  0  0  0  0  0  0  0  0  0  0
    9.9770  -10.1860   15.5780 H   0  0  0  0  0  0  0  0  0  0  0  0
   10.1330   -6.7690   16.3370 C   0  0  0  0  0  1  0  0  0  0  0  0
    8.9820   -7.6290   15.8360 C   0  0  0  0  0  2  0  0  0  0  0  0
    6.5690   -0.8220   10.7290 C   0  0  0  0  0  2  0  0  0  0  0  0
    7.9020   -0.2790   11.2350 C   0  0  0  0  0  3  0  0  0  0  0  0
    7.9210    1.0320   12.0540 C   0  0  0  0  0  2  0  0  0  0  0  0
    9.0000    0.4520   12.8770 N   0  0  0  0  0  4  0  0  0  0  0  0
    8.7490    0.6650   14.3250 C   0  0  0  0  0  1  0  0  0  0  0  0
    8.6070   -0.9070   12.4590 C   0  0  0  0  0  2  0  0  0  0  0  0
    9.9470    0.7260   12.5810 H   0  0  0  0  0  0  0  0  0  0  0  0
  1  2  1  6  0  0  0
  1 17  1  0  0  0  0
  3  6  1  1  0  0  0
  3  4  1  0  0  0  0
  3  2  1  0  0  0  0
  4  5  1  0  0  0  0
  5  1  1  0  0  0  0
  5 31  1  0  0  0  0
  7  6  1  0  0  0  0
  8  7  2  0  0  0  0
  9 11  2  0  0  0  0
  9  8  1  0  0  0  0
 10  9  1  0  0  0  0
 11 13  1  0  0  0  0
 12 11  1  0  0  0  0
 13  6  2  0  0  0  0
 15 14  1  0  0  0  0
 16 15  1  0  0  0  0
 17 16  1  6  0  0  0
 17 18  1  0  0  0  0
 18 19  1  0  0  0  0
 19 14  1  0  0  0  0
 20 30  1  0  0  0  0
 21 20  1  0  0  0  0
 21 22  1  0  0  0  0
 22 28  1  0  0  0  0
 23 21  2  0  0  0  0
 24 25  2  0  0  0  0
 24 23  1  0  0  0  0
 25 26  1  0  0  0  0
 26 14  1  0  0  0  0
 26 20  2  0  0  0  0
 27 22  1  0  0  0  0
 30 29  1  0  0  0  0
 31 32  1  0  0  0  0
 32 33  1  0  0  0  0
 32 36  1  0  0  0  0
 33 34  1  0  0  0  0
 34 35  1  0  0  0  0
 36 34  1  0  0  0  0
 37 34  1  0  0  0  0
M  END
>  <minimizedAffinity>
-10.9477434

$$$$
