
 OpenBabel11232418513D

 37 41  0  0  1  0  0  0  0  0999 V2000
    7.6500   -5.9940   11.5570 C   0  0  2  0  0  3  0  0  0  0  0  0
    8.1090   -4.9730   12.2640 N   0  0  0  0  0  2  0  0  0  0  0  0
    7.5290   -3.8360   11.7660 C   0  0  2  0  0  3  0  0  0  0  0  0
    6.8240   -4.1490   10.6310 C   0  0  0  0  0  2  0  0  0  0  0  0
    7.0230   -5.4980   10.4320 N   0  0  0  0  0  0  0  0  0  0  0  0
    7.6980   -2.5220   12.3650 C   0  0  0  0  0  0  0  0  0  0  0  0
    7.9460   -2.4230   13.7430 C   0  0  0  0  0  3  0  0  0  0  0  0
    8.1210   -1.1780   14.3480 C   0  0  0  0  0  3  0  0  0  0  0  0
    8.0380   -0.0230   13.5790 C   0  0  0  0  0  0  0  0  0  0  0  0
    8.2180    1.1650   14.1720 F   0  0  0  0  0  0  0  0  0  0  0  0
    7.7670   -0.0830   12.2110 C   0  0  0  0  0  0  0  0  0  0  0  0
    7.6870    1.1780   11.4050 C   0  0  0  0  0  1  0  0  0  0  0  0
    7.6100   -1.3420   11.6070 C   0  0  0  0  0  3  0  0  0  0  0  0
    8.9620   -9.5260   13.6940 N   0  0  0  0  0  0  0  0  0  0  0  0
    9.6700   -9.1550   12.4720 C   0  0  0  0  0  2  0  0  0  0  0  0
    9.3700   -7.7180   12.0550 C   0  0  0  0  0  2  0  0  0  0  0  0
    7.8540   -7.4200   12.0370 C   0  0  1  0  0  3  0  0  0  0  0  0
    7.2290   -7.8200   13.3730 C   0  0  0  0  0  2  0  0  0  0  0  0
    7.5280   -9.2840   13.7080 C   0  0  0  0  0  2  0  0  0  0  0  0
    9.4280  -10.1150   16.0010 C   0  0  0  0  0  0  0  0  0  0  0  0
   10.1300   -9.7760   17.1510 C   0  0  0  0  0  0  0  0  0  0  0  0
   10.0310  -10.5050   18.3230 N   0  0  0  0  0  0  0  0  0  0  0  0
   10.9160   -8.6970   17.2340 N   0  0  0  0  0  0  0  0  0  0  0  0
   11.0410   -7.9750   16.1200 C   0  0  0  0  0  3  0  0  0  0  0  0
   10.4310   -8.2080   14.9540 N   0  0  0  0  0  0  0  0  0  0  0  0
    9.6230   -9.2810   14.8990 C   0  0  0  0  0  0  0  0  0  0  0  0
   10.5950  -10.1060   19.0640 H   0  0  0  0  0  0  0  0  0  0  0  0
   10.0550  -11.5120   18.2480 H   0  0  0  0  0  0  0  0  0  0  0  0
    9.3870  -12.5880   15.5670 C   0  0  0  0  0  1  0  0  0  0  0  0
    8.5720  -11.3550   15.9300 C   0  0  0  0  0  2  0  0  0  0  0  0
    6.7430   -6.1250    9.1520 C   0  0  0  0  0  2  0  0  0  0  0  0
    6.8520   -5.1780    7.9600 C   0  0  0  0  0  3  0  0  0  0  0  0
    7.3190   -5.7340    6.5950 C   0  0  0  0  0  2  0  0  0  0  0  0
    6.3630   -4.8180    5.9430 N   0  0  0  0  0  4  0  0  0  0  0  0
    5.5820   -5.5130    4.8890 C   0  0  0  0  0  1  0  0  0  0  0  0
    5.5930   -4.7080    7.1960 C   0  0  0  0  0  2  0  0  0  0  0  0
    6.7800   -3.9320    5.6250 H   0  0  0  0  0  0  0  0  0  0  0  0
  1 17  1  0  0  0  0
  1  2  1  1  0  0  0
  3  2  1  0  0  0  0
  3  6  1  6  0  0  0
  4  3  1  0  0  0  0
  5  4  1  0  0  0  0
  5  1  1  0  0  0  0
  6  7  1  0  0  0  0
  7  8  2  0  0  0  0
  9 10  1  0  0  0  0
  9  8  1  0  0  0  0
 11  9  2  0  0  0  0
 12 11  1  0  0  0  0
 13 11  1  0  0  0  0
 13  6  2  0  0  0  0
 14 19  1  0  0  0  0
 14 26  1  0  0  0  0
 15 14  1  0  0  0  0
 16 15  1  0  0  0  0
 17 16  1  1  0  0  0
 17 18  1  0  0  0  0
 18 19  1  0  0  0  0
 20 21  1  0  0  0  0
 21 23  2  0  0  0  0
 21 22  1  0  0  0  0
 22 27  1  0  0  0  0
 24 23  1  0  0  0  0
 25 24  2  0  0  0  0
 26 25  1  0  0  0  0
 26 20  2  0  0  0  0
 28 22  1  0  0  0  0
 29 30  1  0  0  0  0
 30 20  1  0  0  0  0
 31  5  1  0  0  0  0
 32 31  1  0  0  0  0
 33 32  1  0  0  0  0
 34 33  1  0  0  0  0
 34 36  1  0  0  0  0
 35 34  1  0  0  0  0
 36 32  1  0  0  0  0
 37 34  1  0  0  0  0
M  END
>  <minimizedAffinity>
-11.4156389

$$$$
