
 OpenBabel11232418513D

 37 41  0  0  1  0  0  0  0  0999 V2000
    7.3920   -8.4480   12.7230 C   0  0  2  0  0  3  0  0  0  0  0  0
    6.8960   -8.1550   11.5310 N   0  0  0  0  0  2  0  0  0  0  0  0
    7.3430   -6.9030   11.1970 C   0  0  2  0  0  3  0  0  0  0  0  0
    7.9940   -6.3550   12.2720 C   0  0  0  0  0  2  0  0  0  0  0  0
    7.8980   -7.2900   13.2800 N   0  0  0  0  0  0  0  0  0  0  0  0
    7.1030   -6.2860    9.9030 C   0  0  0  0  0  0  0  0  0  0  0  0
    7.2460   -7.0570    8.7380 C   0  0  0  0  0  3  0  0  0  0  0  0
    7.0150   -6.4980    7.4810 C   0  0  0  0  0  3  0  0  0  0  0  0
    6.6500   -5.1600    7.3800 C   0  0  0  0  0  0  0  0  0  0  0  0
    6.4220   -4.6400    6.1660 F   0  0  0  0  0  0  0  0  0  0  0  0
    6.5240   -4.3580    8.5150 C   0  0  0  0  0  0  0  0  0  0  0  0
    6.1250   -2.9200    8.3780 C   0  0  0  0  0  1  0  0  0  0  0  0
    6.7410   -4.9340    9.7780 C   0  0  0  0  0  3  0  0  0  0  0  0
    8.0830  -12.0870   14.9690 N   0  0  0  0  0  0  0  0  0  0  0  0
    8.8190  -11.8930   13.7220 C   0  0  0  0  0  2  0  0  0  0  0  0
    8.7780  -10.4400   13.2560 C   0  0  0  0  0  2  0  0  0  0  0  0
    7.3430   -9.8690   13.2530 C   0  0  1  0  0  3  0  0  0  0  0  0
    6.6860  -10.1020   14.6120 C   0  0  0  0  0  2  0  0  0  0  0  0
    6.7190  -11.5850   14.9970 C   0  0  0  0  0  2  0  0  0  0  0  0
    9.8620  -12.7850   16.4620 C   0  0  0  0  0  0  0  0  0  0  0  0
   10.5080  -12.5410   17.6680 C   0  0  0  0  0  0  0  0  0  0  0  0
   11.5680  -13.3130   18.1110 N   0  0  0  0  0  0  0  0  0  0  0  0
   10.1310  -11.5780   18.5150 N   0  0  0  0  0  0  0  0  0  0  0  0
    9.1180  -10.8080   18.1160 C   0  0  0  0  0  3  0  0  0  0  0  0
    8.4300  -10.9350   16.9780 N   0  0  0  0  0  0  0  0  0  0  0  0
    8.8060  -11.9270   16.1520 C   0  0  0  0  0  0  0  0  0  0  0  0
   11.9050  -13.0060   19.0160 H   0  0  0  0  0  0  0  0  0  0  0  0
   12.2800  -13.5570   17.4380 H   0  0  0  0  0  0  0  0  0  0  0  0
    9.5980  -15.1760   15.7420 C   0  0  0  0  0  1  0  0  0  0  0  0
   10.3300  -13.8610   15.5140 C   0  0  0  0  0  2  0  0  0  0  0  0
    8.1440   -6.9370   14.6680 C   0  0  0  0  0  2  0  0  0  0  0  0
    9.6220   -6.7850   15.0170 C   0  0  0  0  0  3  0  0  0  0  0  0
   10.0150   -6.2570   16.4170 C   0  0  0  0  0  2  0  0  0  0  0  0
   11.1580   -7.1910   16.3990 N   0  0  0  0  0  4  0  0  0  0  0  0
   11.2770   -7.9230   17.6860 C   0  0  0  0  0  1  0  0  0  0  0  0
   10.4880   -8.0140   15.3740 C   0  0  0  0  0  2  0  0  0  0  0  0
   12.0430   -6.7670   16.0870 H   0  0  0  0  0  0  0  0  0  0  0  0
  1  2  1  6  0  0  0
  1 17  1  0  0  0  0
  1  5  1  0  0  0  0
  3  6  1  1  0  0  0
  3  2  1  0  0  0  0
  3  4  1  0  0  0  0
  4  5  1  0  0  0  0
  5 31  1  0  0  0  0
  7  6  2  0  0  0  0
  8  7  1  0  0  0  0
  9  8  2  0  0  0  0
  9 11  1  0  0  0  0
 10  9  1  0  0  0  0
 11 13  2  0  0  0  0
 12 11  1  0  0  0  0
 13  6  1  0  0  0  0
 14 19  1  0  0  0  0
 14 26  1  0  0  0  0
 15 14  1  0  0  0  0
 16 15  1  0  0  0  0
 17 16  1  1  0  0  0
 17 18  1  0  0  0  0
 18 19  1  0  0  0  0
 20 21  1  0  0  0  0
 21 22  1  0  0  0  0
 21 23  2  0  0  0  0
 22 27  1  0  0  0  0
 24 23  1  0  0  0  0
 25 24  2  0  0  0  0
 26 20  2  0  0  0  0
 26 25  1  0  0  0  0
 28 22  1  0  0  0  0
 30 29  1  0  0  0  0
 30 20  1  0  0  0  0
 31 32  1  0  0  0  0
 32 36  1  0  0  0  0
 32 33  1  0  0  0  0
 34 33  1  0  0  0  0
 34 35  1  0  0  0  0
 36 34  1  0  0  0  0
 37 34  1  0  0  0  0
M  END
>  <minimizedAffinity>
-10.742239

$$$$
