
 OpenBabel11232418513D

 37 41  0  0  1  0  0  0  0  0999 V2000
    7.2040   -6.5830   11.3690 C   0  0  2  0  0  3  0  0  0  0  0  0
    7.4760   -6.5270   10.0740 N   0  0  0  0  0  2  0  0  0  0  0  0
    7.0820   -7.7160    9.5200 C   0  0  2  0  0  3  0  0  0  0  0  0
    6.7070   -8.5770   10.5200 C   0  0  0  0  0  2  0  0  0  0  0  0
    6.9210   -7.8940   11.6980 N   0  0  0  0  0  0  0  0  0  0  0  0
    7.1120   -7.9830    8.0920 C   0  0  0  0  0  0  0  0  0  0  0  0
    6.7890   -9.2680    7.6270 C   0  0  0  0  0  3  0  0  0  0  0  0
    6.8010   -9.5560    6.2620 C   0  0  0  0  0  3  0  0  0  0  0  0
    7.1460   -8.5620    5.3530 C   0  0  0  0  0  0  0  0  0  0  0  0
    7.1420   -8.8510    4.0450 F   0  0  0  0  0  0  0  0  0  0  0  0
    7.4980   -7.2810    5.7820 C   0  0  0  0  0  0  0  0  0  0  0  0
    7.8620   -6.2270    4.7800 C   0  0  0  0  0  1  0  0  0  0  0  0
    7.4660   -6.9960    7.1570 C   0  0  0  0  0  3  0  0  0  0  0  0
    7.5110   -2.4890   12.7490 N   0  0  0  0  0  0  0  0  0  0  0  0
    8.7050   -3.3290   12.8050 C   0  0  0  0  0  2  0  0  0  0  0  0
    8.5600   -4.5820   11.9460 C   0  0  0  0  0  2  0  0  0  0  0  0
    7.2340   -5.3260   12.2200 C   0  0  1  0  0  3  0  0  0  0  0  0
    6.0590   -4.3570   12.1050 C   0  0  0  0  0  2  0  0  0  0  0  0
    6.2450   -3.1480   13.0260 C   0  0  0  0  0  2  0  0  0  0  0  0
    8.1100   -0.2880   11.9240 C   0  0  0  0  0  0  0  0  0  0  0  0
    8.0060    0.6070   10.8650 C   0  0  0  0  0  0  0  0  0  0  0  0
    8.5770    1.8670   10.9000 N   0  0  0  0  0  0  0  0  0  0  0  0
    7.3110    0.3430    9.7540 N   0  0  0  0  0  0  0  0  0  0  0  0
    6.7540   -0.8660    9.6820 C   0  0  0  0  0  3  0  0  0  0  0  0
    6.7970   -1.8120   10.6240 N   0  0  0  0  0  0  0  0  0  0  0  0
    7.4760   -1.5180   11.7460 C   0  0  0  0  0  0  0  0  0  0  0  0
    8.3870    2.3900   10.0540 H   0  0  0  0  0  0  0  0  0  0  0  0
    9.5170    1.9420   11.2610 H   0  0  0  0  0  0  0  0  0  0  0  0
    8.0680    0.5890   14.2760 C   0  0  0  0  0  1  0  0  0  0  0  0
    8.9260    0.0270   13.1520 C   0  0  0  0  0  2  0  0  0  0  0  0
    6.9870   -8.5830   12.9740 C   0  0  0  0  0  2  0  0  0  0  0  0
    8.3470   -9.2080   13.2730 C   0  0  0  0  0  3  0  0  0  0  0  0
    9.5930   -8.2960   13.3620 C   0  0  0  0  0  2  0  0  0  0  0  0
   10.0910   -9.1560   14.4530 N   0  0  0  0  0  4  0  0  0  0  0  0
   10.5890   -8.3470   15.5940 C   0  0  0  0  0  1  0  0  0  0  0  0
    8.7240   -9.6520   14.7040 C   0  0  0  0  0  2  0  0  0  0  0  0
   10.7530   -9.8820   14.1470 H   0  0  0  0  0  0  0  0  0  0  0  0
  1  2  1  6  0  0  0
  1  5  1  0  0  0  0
  1 17  1  0  0  0  0
  3  6  1  1  0  0  0
  3  2  1  0  0  0  0
  3  4  1  0  0  0  0
  4  5  1  0  0  0  0
  5 31  1  0  0  0  0
  7  6  1  0  0  0  0
  8  7  2  0  0  0  0
  9 11  2  0  0  0  0
  9  8  1  0  0  0  0
 10  9  1  0  0  0  0
 11 13  1  0  0  0  0
 12 11  1  0  0  0  0
 13  6  2  0  0  0  0
 14 15  1  0  0  0  0
 14 19  1  0  0  0  0
 16 15  1  0  0  0  0
 17 16  1  6  0  0  0
 18 17  1  0  0  0  0
 18 19  1  0  0  0  0
 20 30  1  0  0  0  0
 21 22  1  0  0  0  0
 21 20  2  0  0  0  0
 22 28  1  0  0  0  0
 23 21  1  0  0  0  0
 24 23  2  0  0  0  0
 24 25  1  0  0  0  0
 25 26  2  0  0  0  0
 26 20  1  0  0  0  0
 26 14  1  0  0  0  0
 27 22  1  0  0  0  0
 30 29  1  0  0  0  0
 31 32  1  0  0  0  0
 32 33  1  0  0  0  0
 32 36  1  0  0  0  0
 33 34  1  0  0  0  0
 34 36  1  0  0  0  0
 34 35  1  0  0  0  0
 37 34  1  0  0  0  0
M  END
>  <minimizedAffinity>
-11.1761961

$$$$
