
 OpenBabel11232418513D

 37 41  0  0  1  0  0  0  0  0999 V2000
    7.5170   -6.6910   10.7570 C   0  0  2  0  0  3  0  0  0  0  0  0
    7.6670   -5.4230   11.1090 N   0  0  0  0  0  2  0  0  0  0  0  0
    7.0800   -4.6550   10.1390 C   0  0  2  0  0  3  0  0  0  0  0  0
    6.7010   -5.4600    9.0940 C   0  0  0  0  0  2  0  0  0  0  0  0
    7.1090   -6.7310    9.4390 N   0  0  0  0  0  0  0  0  0  0  0  0
    6.9390   -3.2120   10.2350 C   0  0  0  0  0  0  0  0  0  0  0  0
    6.6220   -2.4750    9.0840 C   0  0  0  0  0  3  0  0  0  0  0  0
    6.4710   -1.0890    9.1440 C   0  0  0  0  0  3  0  0  0  0  0  0
    6.6480   -0.4300   10.3540 C   0  0  0  0  0  0  0  0  0  0  0  0
    6.4910    0.9000   10.3980 F   0  0  0  0  0  0  0  0  0  0  0  0
    6.9890   -1.1280   11.5140 C   0  0  0  0  0  0  0  0  0  0  0  0
    7.1700   -0.3930   12.8080 C   0  0  0  0  0  1  0  0  0  0  0  0
    7.1210   -2.5260   11.4480 C   0  0  0  0  0  3  0  0  0  0  0  0
    8.9430   -9.0370   14.1070 N   0  0  0  0  0  0  0  0  0  0  0  0
    9.6740   -9.1190   12.8450 C   0  0  0  0  0  2  0  0  0  0  0  0
    9.3100   -7.9750   11.9020 C   0  0  0  0  0  2  0  0  0  0  0  0
    7.7820   -7.8060   11.7530 C   0  0  1  0  0  3  0  0  0  0  0  0
    7.1320   -7.7020   13.1310 C   0  0  0  0  0  2  0  0  0  0  0  0
    7.4990   -8.9020   14.0090 C   0  0  0  0  0  2  0  0  0  0  0  0
   10.1540   -8.9550   16.2070 C   0  0  0  0  0  0  0  0  0  0  0  0
   10.7170   -8.1310   17.1740 C   0  0  0  0  0  0  0  0  0  0  0  0
   11.3470   -8.6310   18.3000 N   0  0  0  0  0  0  0  0  0  0  0  0
   10.6530   -6.7960   17.1220 N   0  0  0  0  0  0  0  0  0  0  0  0
   10.0600   -6.2790   16.0460 C   0  0  0  0  0  3  0  0  0  0  0  0
    9.4970   -6.9650   15.0470 N   0  0  0  0  0  0  0  0  0  0  0  0
    9.5460   -8.3060   15.1320 C   0  0  0  0  0  0  0  0  0  0  0  0
   11.6810   -7.8910   18.9050 H   0  0  0  0  0  0  0  0  0  0  0  0
   11.9760   -9.4120   18.1730 H   0  0  0  0  0  0  0  0  0  0  0  0
    9.0610  -11.0860   16.9620 C   0  0  0  0  0  1  0  0  0  0  0  0
   10.2680  -10.4570   16.2800 C   0  0  0  0  0  2  0  0  0  0  0  0
    7.2140   -7.7880    8.4490 C   0  0  0  0  0  2  0  0  0  0  0  0
    6.7980   -7.3660    7.0420 C   0  0  0  0  0  3  0  0  0  0  0  0
    7.8190   -6.6310    6.1420 C   0  0  0  0  0  2  0  0  0  0  0  0
    7.2670   -7.3680    4.9890 N   0  0  0  0  0  4  0  0  0  0  0  0
    8.3480   -7.9250    4.1370 C   0  0  0  0  0  1  0  0  0  0  0  0
    6.7140   -8.3950    5.8920 C   0  0  0  0  0  2  0  0  0  0  0  0
    6.5560   -6.8460    4.4580 H   0  0  0  0  0  0  0  0  0  0  0  0
  1  2  1  1  0  0  0
  1 17  1  0  0  0  0
  3  6  1  6  0  0  0
  3  2  1  0  0  0  0
  4  5  1  0  0  0  0
  4  3  1  0  0  0  0
  5  1  1  0  0  0  0
  6 13  1  0  0  0  0
  7  8  1  0  0  0  0
  7  6  2  0  0  0  0
  8  9  2  0  0  0  0
  9 10  1  0  0  0  0
  9 11  1  0  0  0  0
 11 12  1  0  0  0  0
 13 11  2  0  0  0  0
 14 26  1  0  0  0  0
 15 14  1  0  0  0  0
 16 15  1  0  0  0  0
 17 16  1  1  0  0  0
 17 18  1  0  0  0  0
 18 19  1  0  0  0  0
 19 14  1  0  0  0  0
 20 30  1  0  0  0  0
 20 21  1  0  0  0  0
 21 22  1  0  0  0  0
 22 27  1  0  0  0  0
 23 21  2  0  0  0  0
 24 23  1  0  0  0  0
 25 26  1  0  0  0  0
 25 24  2  0  0  0  0
 26 20  2  0  0  0  0
 28 22  1  0  0  0  0
 30 29  1  0  0  0  0
 31  5  1  0  0  0  0
 32 31  1  0  0  0  0
 33 32  1  0  0  0  0
 34 36  1  0  0  0  0
 34 33  1  0  0  0  0
 35 34  1  0  0  0  0
 36 32  1  0  0  0  0
 37 34  1  0  0  0  0
M  END
>  <minimizedAffinity>
-11.4284058

$$$$
