
 OpenBabel11232418473D

 36 40  0  0  1  0  0  0  0  0999 V2000
    7.1720   -6.5770    9.2330 C   0  0  0  0  0  0  0  0  0  0  0  0
    6.5450   -5.3770    9.4790 C   0  0  0  0  0  3  0  0  0  0  0  0
    6.9250   -5.0170   10.7490 N   0  0  0  0  0  0  0  0  0  0  0  0
    7.8340   -5.9530   11.1960 C   0  0  0  0  0  0  0  0  0  0  0  0
    7.9150   -6.9390   10.3280 N   0  0  0  0  0  0  0  0  0  0  0  0
    7.3250   -7.0290    4.2270 C   0  0  0  0  0  1  0  0  0  0  0  0
    7.1410   -7.6210    5.5920 C   0  0  0  0  0  0  0  0  0  0  0  0
    7.2160   -6.8190    6.7430 C   0  0  0  0  0  3  0  0  0  0  0  0
    7.0900   -7.3830    8.0240 C   0  0  0  0  0  0  0  0  0  0  0  0
    6.9070   -8.7690    8.1380 C   0  0  0  0  0  3  0  0  0  0  0  0
    6.8410   -9.5750    6.9990 C   0  0  0  0  0  3  0  0  0  0  0  0
    6.9620   -8.9970    5.7410 C   0  0  0  0  0  0  0  0  0  0  0  0
    6.9110   -9.7850    4.6590 F   0  0  0  0  0  0  0  0  0  0  0  0
    8.6100   -5.8730   12.4870 C   0  0  2  0  0  3  0  0  0  0  0  0
    9.9000   -6.7040   12.4090 C   0  0  0  0  0  2  0  0  0  0  0  0
    9.6500   -8.1990   12.6120 C   0  0  0  0  0  2  0  0  0  0  0  0
    8.8620   -8.4380   13.8170 N   0  0  0  0  0  0  0  0  0  0  0  0
    7.5630   -7.7710   13.8650 C   0  0  0  0  0  2  0  0  0  0  0  0
    7.7510   -6.2600   13.7060 C   0  0  0  0  0  2  0  0  0  0  0  0
    9.5350   -8.6300   15.0210 C   0  0  0  0  0  0  0  0  0  0  0  0
   10.5970   -7.8320   15.2610 N   0  0  0  0  0  0  0  0  0  0  0  0
   11.2280   -7.9920   16.4320 C   0  0  0  0  0  3  0  0  0  0  0  0
   10.9080   -8.8630   17.3920 N   0  0  0  0  0  0  0  0  0  0  0  0
    9.8770   -9.6780   17.1290 C   0  0  0  0  0  0  0  0  0  0  0  0
    9.5590  -10.5580   18.1500 N   0  0  0  0  0  0  0  0  0  0  0  0
    9.1430   -9.5990   15.9490 C   0  0  0  0  0  0  0  0  0  0  0  0
    7.7520  -10.8530   15.6040 Br  0  0  0  0  0  0  0  0  0  0  0  0
   10.1910  -10.5100   18.9390 H   0  0  0  0  0  0  0  0  0  0  0  0
    9.2040  -11.4690   17.8900 H   0  0  0  0  0  0  0  0  0  0  0  0
    6.4470   -3.8360   11.4330 C   0  0  0  0  0  2  0  0  0  0  0  0
    7.2960   -2.5680   11.2140 C   0  0  0  0  0  2  0  0  0  0  0  0
    7.6870   -1.6960   12.3590 N   0  0  0  0  0  4  0  0  0  0  0  0
    6.5850   -1.0160   13.0640 C   0  0  0  0  0  2  0  0  0  0  0  0
    7.3440   -1.2820   14.3740 C   0  0  0  0  0  2  0  0  0  0  0  0
    8.0840   -2.3820   13.5970 C   0  0  0  0  0  2  0  0  0  0  0  0
    8.4010   -1.0140   12.0590 H   0  0  0  0  0  0  0  0  0  0  0  0
  1  2  2  0  0  0  0
  1  5  1  0  0  0  0
  2  3  1  0  0  0  0
  3  4  1  0  0  0  0
  3 30  1  0  0  0  0
  5  4  2  0  0  0  0
  6  7  1  0  0  0  0
  7 12  2  0  0  0  0
  7  8  1  0  0  0  0
  8  9  2  0  0  0  0
  9 10  1  0  0  0  0
  9  1  1  0  0  0  0
 11 10  2  0  0  0  0
 12 11  1  0  0  0  0
 13 12  1  0  0  0  0
 14  4  1  6  0  0  0
 14 19  1  0  0  0  0
 15 14  1  0  0  0  0
 15 16  1  0  0  0  0
 16 17  1  0  0  0  0
 17 18  1  0  0  0  0
 17 20  1  0  0  0  0
 19 18  1  0  0  0  0
 20 21  2  0  0  0  0
 20 26  1  0  0  0  0
 21 22  1  0  0  0  0
 22 23  2  0  0  0  0
 24 23  1  0  0  0  0
 24 25  1  0  0  0  0
 25 28  1  0  0  0  0
 26 24  2  0  0  0  0
 27 26  1  0  0  0  0
 29 25  1  0  0  0  0
 31 30  1  0  0  0  0
 31 32  1  0  0  0  0
 32 33  1  0  0  0  0
 32 35  1  0  0  0  0
 33 34  1  0  0  0  0
 35 34  1  0  0  0  0
 36 32  1  0  0  0  0
M  END
>  <minimizedAffinity>
-11.0867672

$$$$
