
 OpenBabel11232418473D

 36 40  0  0  1  0  0  0  0  0999 V2000
    7.4060   -6.0490   10.3910 C   0  0  0  0  0  0  0  0  0  0  0  0
    7.5700   -4.8060   10.9560 C   0  0  0  0  0  3  0  0  0  0  0  0
    7.7870   -5.0350   12.2920 N   0  0  0  0  0  0  0  0  0  0  0  0
    7.8390   -6.4000   12.4810 C   0  0  0  0  0  0  0  0  0  0  0  0
    7.5190   -7.0120   11.3610 N   0  0  0  0  0  0  0  0  0  0  0  0
    7.1360   -9.3160    6.5770 C   0  0  0  0  0  1  0  0  0  0  0  0
    7.0270   -7.9230    7.1210 C   0  0  0  0  0  0  0  0  0  0  0  0
    7.2930   -7.6530    8.4730 C   0  0  0  0  0  3  0  0  0  0  0  0
    7.1440   -6.3550    8.9930 C   0  0  0  0  0  0  0  0  0  0  0  0
    6.7050   -5.3320    8.1390 C   0  0  0  0  0  3  0  0  0  0  0  0
    6.4280   -5.5950    6.7950 C   0  0  0  0  0  3  0  0  0  0  0  0
    6.5870   -6.8830    6.3000 C   0  0  0  0  0  0  0  0  0  0  0  0
    6.3040   -7.1220    5.0130 F   0  0  0  0  0  0  0  0  0  0  0  0
    8.1930   -7.0920   13.7730 C   0  0  2  0  0  3  0  0  0  0  0  0
    9.5930   -7.7200   13.6990 C   0  0  0  0  0  2  0  0  0  0  0  0
    9.6020   -9.0510   12.9450 C   0  0  0  0  0  2  0  0  0  0  0  0
    8.5750   -9.9500   13.4590 N   0  0  0  0  0  0  0  0  0  0  0  0
    7.2080   -9.4380   13.4180 C   0  0  0  0  0  2  0  0  0  0  0  0
    7.1250   -8.1200   14.1940 C   0  0  0  0  0  2  0  0  0  0  0  0
    8.9110  -10.8110   14.5010 C   0  0  0  0  0  0  0  0  0  0  0  0
    9.6070  -10.2830   15.5300 N   0  0  0  0  0  0  0  0  0  0  0  0
    9.9050  -11.1010   16.5490 C   0  0  0  0  0  3  0  0  0  0  0  0
    9.5780  -12.3920   16.6500 N   0  0  0  0  0  0  0  0  0  0  0  0
    8.9220  -12.9180   15.6070 C   0  0  0  0  0  0  0  0  0  0  0  0
    8.5820  -14.2530   15.7490 N   0  0  0  0  0  0  0  0  0  0  0  0
    8.5530  -12.1630   14.4970 C   0  0  0  0  0  0  0  0  0  0  0  0
    7.7070  -13.0000   13.0110 Br  0  0  0  0  0  0  0  0  0  0  0  0
    8.9310  -14.6720   16.6020 H   0  0  0  0  0  0  0  0  0  0  0  0
    8.5740  -14.8250   14.9160 H   0  0  0  0  0  0  0  0  0  0  0  0
    7.9560   -3.9880   13.2770 C   0  0  0  0  0  2  0  0  0  0  0  0
    6.8700   -2.8940   13.2560 C   0  0  0  0  0  2  0  0  0  0  0  0
    7.2260   -1.4610   13.0500 N   0  0  0  0  0  4  0  0  0  0  0  0
    8.6410   -1.1790   12.7510 C   0  0  0  0  0  2  0  0  0  0  0  0
    8.1530   -0.1080   11.7630 C   0  0  0  0  0  2  0  0  0  0  0  0
    6.8140   -0.8610   11.7730 C   0  0  0  0  0  2  0  0  0  0  0  0
    6.9070   -0.8970   13.8530 H   0  0  0  0  0  0  0  0  0  0  0  0
  1  2  2  0  0  0  0
  1  5  1  0  0  0  0
  2  3  1  0  0  0  0
  3  4  1  0  0  0  0
  3 30  1  0  0  0  0
  5  4  2  0  0  0  0
  6  7  1  0  0  0  0
  7  8  1  0  0  0  0
  8  9  2  0  0  0  0
  9  1  1  0  0  0  0
 10  9  1  0  0  0  0
 11 10  2  0  0  0  0
 12 11  1  0  0  0  0
 12  7  2  0  0  0  0
 13 12  1  0  0  0  0
 14  4  1  6  0  0  0
 14 19  1  0  0  0  0
 15 14  1  0  0  0  0
 16 17  1  0  0  0  0
 16 15  1  0  0  0  0
 17 20  1  0  0  0  0
 18 17  1  0  0  0  0
 18 19  1  0  0  0  0
 20 21  1  0  0  0  0
 21 22  2  0  0  0  0
 22 23  1  0  0  0  0
 24 25  1  0  0  0  0
 24 23  2  0  0  0  0
 25 28  1  0  0  0  0
 26 20  2  0  0  0  0
 26 24  1  0  0  0  0
 27 26  1  0  0  0  0
 29 25  1  0  0  0  0
 31 30  1  0  0  0  0
 32 31  1  0  0  0  0
 32 36  1  0  0  0  0
 33 32  1  0  0  0  0
 34 35  1  0  0  0  0
 34 33  1  0  0  0  0
 35 32  1  0  0  0  0
M  END
>  <minimizedAffinity>
-10.204772

$$$$
