
 OpenBabel11232418473D

 36 40  0  0  1  0  0  0  0  0999 V2000
    7.3070   -4.8130   10.5540 C   0  0  0  0  0  0  0  0  0  0  0  0
    6.9480   -5.5020    9.4180 C   0  0  0  0  0  3  0  0  0  0  0  0
    7.2150   -6.8220    9.6880 N   0  0  0  0  0  0  0  0  0  0  0  0
    7.6390   -6.9040   10.9980 C   0  0  0  0  0  0  0  0  0  0  0  0
    7.7840   -5.6930   11.4920 N   0  0  0  0  0  0  0  0  0  0  0  0
    6.0900   -0.1820    9.0170 C   0  0  0  0  0  1  0  0  0  0  0  0
    6.6580   -1.1170   10.0420 C   0  0  0  0  0  0  0  0  0  0  0  0
    6.7350   -2.4980    9.7980 C   0  0  0  0  0  3  0  0  0  0  0  0
    7.2240   -3.3780   10.7780 C   0  0  0  0  0  0  0  0  0  0  0  0
    7.6200   -2.8560   12.0190 C   0  0  0  0  0  3  0  0  0  0  0  0
    7.5380   -1.4850   12.2740 C   0  0  0  0  0  3  0  0  0  0  0  0
    7.0560   -0.6310   11.2890 C   0  0  0  0  0  0  0  0  0  0  0  0
    6.9700    0.6790   11.5550 F   0  0  0  0  0  0  0  0  0  0  0  0
    7.9110   -8.1820   11.7510 C   0  0  2  0  0  3  0  0  0  0  0  0
    7.0230   -8.2870   13.0000 C   0  0  0  0  0  2  0  0  0  0  0  0
    7.5470   -7.4490   14.1670 C   0  0  0  0  0  2  0  0  0  0  0  0
    8.9580   -7.7250   14.4170 N   0  0  0  0  0  0  0  0  0  0  0  0
    9.8550   -7.5030   13.2860 C   0  0  0  0  0  2  0  0  0  0  0  0
    9.4030   -8.3500   12.0930 C   0  0  0  0  0  2  0  0  0  0  0  0
    9.2850   -8.7410   15.3120 C   0  0  0  0  0  0  0  0  0  0  0  0
    8.7520   -9.9590   15.0750 N   0  0  0  0  0  0  0  0  0  0  0  0
    9.0900  -10.9460   15.9150 C   0  0  0  0  0  3  0  0  0  0  0  0
    9.9070  -10.8470   16.9670 N   0  0  0  0  0  0  0  0  0  0  0  0
   10.4000   -9.6270   17.2180 C   0  0  0  0  0  0  0  0  0  0  0  0
   11.2580   -9.5600   18.3040 N   0  0  0  0  0  0  0  0  0  0  0  0
   10.1240   -8.5280   16.4090 C   0  0  0  0  0  0  0  0  0  0  0  0
   10.7830   -6.8050   16.8830 Br  0  0  0  0  0  0  0  0  0  0  0  0
   11.3490  -10.4360   18.8030 H   0  0  0  0  0  0  0  0  0  0  0  0
   11.2570   -8.7080   18.8480 H   0  0  0  0  0  0  0  0  0  0  0  0
    7.0360   -7.8960    8.7360 C   0  0  0  0  0  2  0  0  0  0  0  0
    6.9760   -7.4540    7.2610 C   0  0  0  0  0  2  0  0  0  0  0  0
    7.0360   -8.4540    6.1560 N   0  0  0  0  0  4  0  0  0  0  0  0
    8.3450   -8.6190    5.4990 C   0  0  0  0  0  2  0  0  0  0  0  0
    8.0480  -10.1260    5.4300 C   0  0  0  0  0  2  0  0  0  0  0  0
    7.0320   -9.8690    6.5530 C   0  0  0  0  0  2  0  0  0  0  0  0
    6.3030   -8.2560    5.4570 H   0  0  0  0  0  0  0  0  0  0  0  0
  1  9  1  0  0  0  0
  1  5  1  0  0  0  0
  2  3  1  0  0  0  0
  2  1  2  0  0  0  0
  3  4  1  0  0  0  0
  4  5  2  0  0  0  0
  6  7  1  0  0  0  0
  7 12  1  0  0  0  0
  8  7  2  0  0  0  0
  8  9  1  0  0  0  0
  9 10  2  0  0  0  0
 10 11  1  0  0  0  0
 12 13  1  0  0  0  0
 12 11  2  0  0  0  0
 14  4  1  1  0  0  0
 14 19  1  0  0  0  0
 14 15  1  0  0  0  0
 15 16  1  0  0  0  0
 16 17  1  0  0  0  0
 17 20  1  0  0  0  0
 18 17  1  0  0  0  0
 19 18  1  0  0  0  0
 20 26  1  0  0  0  0
 21 20  2  0  0  0  0
 21 22  1  0  0  0  0
 22 23  2  0  0  0  0
 23 24  1  0  0  0  0
 24 25  1  0  0  0  0
 25 28  1  0  0  0  0
 25 29  1  0  0  0  0
 26 27  1  0  0  0  0
 26 24  2  0  0  0  0
 30  3  1  0  0  0  0
 31 30  1  0  0  0  0
 32 35  1  0  0  0  0
 32 31  1  0  0  0  0
 33 32  1  0  0  0  0
 34 33  1  0  0  0  0
 34 35  1  0  0  0  0
 36 32  1  0  0  0  0
M  END
>  <minimizedAffinity>
-10.6138525

$$$$
