
 OpenBabel11232418473D

 36 40  0  0  1  0  0  0  0  0999 V2000
    6.9340   -4.7160    9.8050 C   0  0  0  0  0  0  0  0  0  0  0  0
    6.6150   -3.5260   10.4150 C   0  0  0  0  0  3  0  0  0  0  0  0
    7.1620   -3.5990   11.6730 N   0  0  0  0  0  0  0  0  0  0  0  0
    7.8670   -4.7810   11.7560 C   0  0  0  0  0  0  0  0  0  0  0  0
    7.6570   -5.4970   10.6720 N   0  0  0  0  0  0  0  0  0  0  0  0
    7.0190   -8.1110    6.0950 C   0  0  0  0  0  1  0  0  0  0  0  0
    6.6300   -6.7670    6.6350 C   0  0  0  0  0  0  0  0  0  0  0  0
    6.9890   -6.3800    7.9360 C   0  0  0  0  0  3  0  0  0  0  0  0
    6.5830   -5.1390    8.4580 C   0  0  0  0  0  0  0  0  0  0  0  0
    5.7930   -4.2970    7.6610 C   0  0  0  0  0  3  0  0  0  0  0  0
    5.4230   -4.6790    6.3690 C   0  0  0  0  0  3  0  0  0  0  0  0
    5.8390   -5.9080    5.8710 C   0  0  0  0  0  0  0  0  0  0  0  0
    5.4640   -6.2660    4.6350 F   0  0  0  0  0  0  0  0  0  0  0  0
    8.7350   -5.2040   12.9150 C   0  0  2  0  0  3  0  0  0  0  0  0
    9.9170   -6.0610   12.4360 C   0  0  0  0  0  2  0  0  0  0  0  0
    9.5180   -7.5120   12.1630 C   0  0  0  0  0  2  0  0  0  0  0  0
    8.7950   -8.0780   13.2960 N   0  0  0  0  0  0  0  0  0  0  0  0
    7.5850   -7.3640   13.6940 C   0  0  0  0  0  2  0  0  0  0  0  0
    7.9270   -5.9070   14.0210 C   0  0  0  0  0  2  0  0  0  0  0  0
    9.5260   -8.7180   14.2950 C   0  0  0  0  0  0  0  0  0  0  0  0
   10.4420   -7.9750   14.9530 N   0  0  0  0  0  0  0  0  0  0  0  0
   11.1250   -8.5780   15.9350 C   0  0  0  0  0  3  0  0  0  0  0  0
   10.9880   -9.8450   16.3330 N   0  0  0  0  0  0  0  0  0  0  0  0
   10.1040  -10.5860   15.6490 C   0  0  0  0  0  0  0  0  0  0  0  0
    9.9720  -11.8900   16.0970 N   0  0  0  0  0  0  0  0  0  0  0  0
    9.3340  -10.0650   14.6140 C   0  0  0  0  0  0  0  0  0  0  0  0
    8.1700  -11.2020   13.6250 Br  0  0  0  0  0  0  0  0  0  0  0  0
   10.6090  -12.1280   16.8460 H   0  0  0  0  0  0  0  0  0  0  0  0
    9.7720  -12.6030   15.4090 H   0  0  0  0  0  0  0  0  0  0  0  0
    7.0160   -2.5720   12.6810 C   0  0  0  0  0  2  0  0  0  0  0  0
    6.7700   -1.1520   12.1320 C   0  0  0  0  0  2  0  0  0  0  0  0
    7.7410   -0.5090   11.2020 N   0  0  0  0  0  4  0  0  0  0  0  0
    7.1670    0.1390   10.0090 C   0  0  0  0  0  2  0  0  0  0  0  0
    8.2130    1.2520   10.1880 C   0  0  0  0  0  2  0  0  0  0  0  0
    8.3220    0.7680   11.6420 C   0  0  0  0  0  2  0  0  0  0  0  0
    8.4740   -1.1830   10.9300 H   0  0  0  0  0  0  0  0  0  0  0  0
  1  2  2  0  0  0  0
  1  5  1  0  0  0  0
  2  3  1  0  0  0  0
  3  4  1  0  0  0  0
  3 30  1  0  0  0  0
  5  4  2  0  0  0  0
  6  7  1  0  0  0  0
  7  8  1  0  0  0  0
  8  9  2  0  0  0  0
  9  1  1  0  0  0  0
 10  9  1  0  0  0  0
 11 10  2  0  0  0  0
 12 11  1  0  0  0  0
 12  7  2  0  0  0  0
 13 12  1  0  0  0  0
 14  4  1  6  0  0  0
 14 19  1  0  0  0  0
 15 14  1  0  0  0  0
 16 15  1  0  0  0  0
 16 17  1  0  0  0  0
 17 18  1  0  0  0  0
 17 20  1  0  0  0  0
 18 19  1  0  0  0  0
 20 26  2  0  0  0  0
 20 21  1  0  0  0  0
 21 22  2  0  0  0  0
 22 23  1  0  0  0  0
 24 25  1  0  0  0  0
 24 23  2  0  0  0  0
 25 28  1  0  0  0  0
 26 24  1  0  0  0  0
 27 26  1  0  0  0  0
 29 25  1  0  0  0  0
 31 30  1  0  0  0  0
 32 35  1  0  0  0  0
 32 31  1  0  0  0  0
 33 34  1  0  0  0  0
 33 32  1  0  0  0  0
 34 35  1  0  0  0  0
 36 32  1  0  0  0  0
M  END
>  <minimizedAffinity>
-10.8152828

$$$$
