
 OpenBabel11232418473D

 36 40  0  0  1  0  0  0  0  0999 V2000
    7.0420   -4.3210   10.3710 C   0  0  0  0  0  0  0  0  0  0  0  0
    6.8250   -5.1280    9.2780 C   0  0  0  0  0  3  0  0  0  0  0  0
    7.0190   -6.4120    9.7250 N   0  0  0  0  0  0  0  0  0  0  0  0
    7.2550   -6.3530   11.0830 C   0  0  0  0  0  0  0  0  0  0  0  0
    7.3610   -5.0960   11.4580 N   0  0  0  0  0  0  0  0  0  0  0  0
    7.4770    0.0190   12.8740 C   0  0  0  0  0  1  0  0  0  0  0  0
    7.1510   -0.7500   11.6290 C   0  0  0  0  0  0  0  0  0  0  0  0
    7.2250   -2.1520   11.6060 C   0  0  0  0  0  3  0  0  0  0  0  0
    6.9660   -2.8690   10.4250 C   0  0  0  0  0  0  0  0  0  0  0  0
    6.6490   -2.1570    9.2580 C   0  0  0  0  0  3  0  0  0  0  0  0
    6.5830   -0.7620    9.2700 C   0  0  0  0  0  3  0  0  0  0  0  0
    6.8380   -0.0730   10.4490 C   0  0  0  0  0  0  0  0  0  0  0  0
    6.7850    1.2660   10.4410 F   0  0  0  0  0  0  0  0  0  0  0  0
    7.3860   -7.5420   12.0010 C   0  0  2  0  0  3  0  0  0  0  0  0
    7.0100   -7.1710   13.4430 C   0  0  0  0  0  2  0  0  0  0  0  0
    8.1360   -6.4390   14.1760 C   0  0  0  0  0  2  0  0  0  0  0  0
    9.3950   -7.1670   14.0590 N   0  0  0  0  0  0  0  0  0  0  0  0
    9.8560   -7.4180   12.6970 C   0  0  0  0  0  2  0  0  0  0  0  0
    8.7820   -8.1870   11.9210 C   0  0  0  0  0  2  0  0  0  0  0  0
    9.7030   -8.1150   15.0310 C   0  0  0  0  0  0  0  0  0  0  0  0
    9.3550   -9.3930   14.7690 N   0  0  0  0  0  0  0  0  0  0  0  0
    9.6780  -10.3140   15.6880 C   0  0  0  0  0  3  0  0  0  0  0  0
   10.3150  -10.0940   16.8400 N   0  0  0  0  0  0  0  0  0  0  0  0
   10.6220   -8.8170   17.1100 C   0  0  0  0  0  0  0  0  0  0  0  0
   11.2970   -8.6240   18.3040 N   0  0  0  0  0  0  0  0  0  0  0  0
   10.3410   -7.7780   16.2280 C   0  0  0  0  0  0  0  0  0  0  0  0
   10.7200   -5.9780   16.7220 Br  0  0  0  0  0  0  0  0  0  0  0  0
   11.4150   -9.4700   18.8460 H   0  0  0  0  0  0  0  0  0  0  0  0
   11.1180   -7.7660   18.8090 H   0  0  0  0  0  0  0  0  0  0  0  0
    6.9450   -7.5830    8.8800 C   0  0  0  0  0  3  0  0  0  0  0  0
    7.3510   -7.3530    7.4110 C   0  0  0  0  0  3  0  0  0  0  0  0
    7.0820   -8.3830    6.3670 N   0  0  0  0  0  4  0  0  0  0  0  0
    8.2230   -8.7550    5.5110 C   0  0  0  0  0  2  0  0  0  0  0  0
    7.7150  -10.2050    5.5740 C   0  0  0  0  0  2  0  0  0  0  0  0
    6.9530   -9.7700    6.8360 C   0  0  0  0  0  2  0  0  0  0  0  0
    6.2730   -8.1030    5.7910 H   0  0  0  0  0  0  0  0  0  0  0  0
  1  9  1  0  0  0  0
  1  5  1  0  0  0  0
  2  3  1  0  0  0  0
  2  1  2  0  0  0  0
  3  4  1  0  0  0  0
  4  5  2  0  0  0  0
  7  6  1  0  0  0  0
  8  7  1  0  0  0  0
  9  8  2  0  0  0  0
 10 11  2  0  0  0  0
 10  9  1  0  0  0  0
 11 12  1  0  0  0  0
 12  7  2  0  0  0  0
 13 12  1  0  0  0  0
 14  4  1  6  0  0  0
 14 15  1  0  0  0  0
 15 16  1  0  0  0  0
 17 16  1  0  0  0  0
 17 20  1  0  0  0  0
 18 17  1  0  0  0  0
 19 14  1  0  0  0  0
 19 18  1  0  0  0  0
 20 26  1  0  0  0  0
 21 20  2  0  0  0  0
 21 22  1  0  0  0  0
 22 23  2  0  0  0  0
 23 24  1  0  0  0  0
 24 25  1  0  0  0  0
 25 29  1  0  0  0  0
 25 28  1  0  0  0  0
 26 27  1  0  0  0  0
 26 24  2  0  0  0  0
 30  3  1  0  0  0  0
 31 30  2  0  0  0  0
 32 35  1  0  0  0  0
 32 31  1  0  0  0  0
 33 34  1  0  0  0  0
 33 32  1  0  0  0  0
 34 35  1  0  0  0  0
 36 32  1  0  0  0  0
M  END
>  <minimizedAffinity>
-11.3967667

$$$$

 OpenBabel11232418473D

 36 40  0  0  1  0  0  0  0  0999 V2000
    7.1720   -6.5770    9.2330 C   0  0  0  0  0  0  0  0  0  0  0  0
    6.5450   -5.3770    9.4790 C   0  0  0  0  0  3  0  0  0  0  0  0
    6.9250   -5.0170   10.7490 N   0  0  0  0  0  0  0  0  0  0  0  0
    7.8340   -5.9530   11.1960 C   0  0  0  0  0  0  0  0  0  0  0  0
    7.9150   -6.9390   10.3280 N   0  0  0  0  0  0  0  0  0  0  0  0
    7.3250   -7.0290    4.2270 C   0  0  0  0  0  1  0  0  0  0  0  0
    7.1410   -7.6210    5.5920 C   0  0  0  0  0  0  0  0  0  0  0  0
    7.2160   -6.8190    6.7430 C   0  0  0  0  0  3  0  0  0  0  0  0
    7.0900   -7.3830    8.0240 C   0  0  0  0  0  0  0  0  0  0  0  0
    6.9070   -8.7690    8.1380 C   0  0  0  0  0  3  0  0  0  0  0  0
    6.8410   -9.5750    6.9990 C   0  0  0  0  0  3  0  0  0  0  0  0
    6.9620   -8.9970    5.7410 C   0  0  0  0  0  0  0  0  0  0  0  0
    6.9110   -9.7850    4.6590 F   0  0  0  0  0  0  0  0  0  0  0  0
    8.6100   -5.8730   12.4870 C   0  0  2  0  0  3  0  0  0  0  0  0
    9.9000   -6.7040   12.4090 C   0  0  0  0  0  2  0  0  0  0  0  0
    9.6500   -8.1990   12.6120 C   0  0  0  0  0  2  0  0  0  0  0  0
    8.8620   -8.4380   13.8170 N   0  0  0  0  0  0  0  0  0  0  0  0
    7.5630   -7.7710   13.8650 C   0  0  0  0  0  2  0  0  0  0  0  0
    7.7510   -6.2600   13.7060 C   0  0  0  0  0  2  0  0  0  0  0  0
    9.5350   -8.6300   15.0210 C   0  0  0  0  0  0  0  0  0  0  0  0
   10.5970   -7.8320   15.2610 N   0  0  0  0  0  0  0  0  0  0  0  0
   11.2280   -7.9920   16.4320 C   0  0  0  0  0  3  0  0  0  0  0  0
   10.9080   -8.8630   17.3920 N   0  0  0  0  0  0  0  0  0  0  0  0
    9.8770   -9.6780   17.1290 C   0  0  0  0  0  0  0  0  0  0  0  0
    9.5590  -10.5580   18.1500 N   0  0  0  0  0  0  0  0  0  0  0  0
    9.1430   -9.5990   15.9490 C   0  0  0  0  0  0  0  0  0  0  0  0
    7.7520  -10.8530   15.6040 Br  0  0  0  0  0  0  0  0  0  0  0  0
   10.1910  -10.5100   18.9390 H   0  0  0  0  0  0  0  0  0  0  0  0
    9.2040  -11.4690   17.8900 H   0  0  0  0  0  0  0  0  0  0  0  0
    6.4470   -3.8360   11.4330 C   0  0  0  0  0  2  0  0  0  0  0  0
    7.2960   -2.5680   11.2140 C   0  0  0  0  0  2  0  0  0  0  0  0
    7.6870   -1.6960   12.3590 N   0  0  0  0  0  4  0  0  0  0  0  0
    6.5850   -1.0160   13.0640 C   0  0  0  0  0  2  0  0  0  0  0  0
    7.3440   -1.2820   14.3740 C   0  0  0  0  0  2  0  0  0  0  0  0
    8.0840   -2.3820   13.5970 C   0  0  0  0  0  2  0  0  0  0  0  0
    8.4010   -1.0140   12.0590 H   0  0  0  0  0  0  0  0  0  0  0  0
  1  2  2  0  0  0  0
  1  5  1  0  0  0  0
  2  3  1  0  0  0  0
  3  4  1  0  0  0  0
  3 30  1  0  0  0  0
  5  4  2  0  0  0  0
  6  7  1  0  0  0  0
  7 12  2  0  0  0  0
  7  8  1  0  0  0  0
  8  9  2  0  0  0  0
  9 10  1  0  0  0  0
  9  1  1  0  0  0  0
 11 10  2  0  0  0  0
 12 11  1  0  0  0  0
 13 12  1  0  0  0  0
 14  4  1  6  0  0  0
 14 19  1  0  0  0  0
 15 14  1  0  0  0  0
 15 16  1  0  0  0  0
 16 17  1  0  0  0  0
 17 18  1  0  0  0  0
 17 20  1  0  0  0  0
 19 18  1  0  0  0  0
 20 21  2  0  0  0  0
 20 26  1  0  0  0  0
 21 22  1  0  0  0  0
 22 23  2  0  0  0  0
 24 23  1  0  0  0  0
 24 25  1  0  0  0  0
 25 28  1  0  0  0  0
 26 24  2  0  0  0  0
 27 26  1  0  0  0  0
 29 25  1  0  0  0  0
 31 30  1  0  0  0  0
 31 32  1  0  0  0  0
 32 33  1  0  0  0  0
 32 35  1  0  0  0  0
 33 34  1  0  0  0  0
 35 34  1  0  0  0  0
 36 32  1  0  0  0  0
M  END
>  <minimizedAffinity>
-11.0867672

$$$$

 OpenBabel11232418473D

 36 40  0  0  1  0  0  0  0  0999 V2000
    7.0820   -3.3930   10.2830 C   0  0  0  0  0  0  0  0  0  0  0  0
    6.7290   -3.9910    9.0960 C   0  0  0  0  0  3  0  0  0  0  0  0
    6.8500   -5.3420    9.3140 N   0  0  0  0  0  0  0  0  0  0  0  0
    7.1830   -5.5250   10.6400 C   0  0  0  0  0  0  0  0  0  0  0  0
    7.4130   -4.3570   11.2020 N   0  0  0  0  0  0  0  0  0  0  0  0
    8.0720    0.4350   13.3910 C   0  0  0  0  0  1  0  0  0  0  0  0
    7.5790   -0.0950   12.0770 C   0  0  0  0  0  0  0  0  0  0  0  0
    7.5410   -1.4750   11.8240 C   0  0  0  0  0  3  0  0  0  0  0  0
    7.1250   -1.9680   10.5750 C   0  0  0  0  0  0  0  0  0  0  0  0
    6.7640   -1.0540    9.5740 C   0  0  0  0  0  3  0  0  0  0  0  0
    6.8080    0.3210    9.8150 C   0  0  0  0  0  3  0  0  0  0  0  0
    7.2180    0.7880   11.0580 C   0  0  0  0  0  0  0  0  0  0  0  0
    7.2690    2.1100   11.2680 F   0  0  0  0  0  0  0  0  0  0  0  0
    7.2830   -6.8560   11.3420 C   0  0  2  0  0  3  0  0  0  0  0  0
    6.8400   -6.7410   12.8080 C   0  0  0  0  0  2  0  0  0  0  0  0
    7.9270   -6.1480   13.7070 C   0  0  0  0  0  2  0  0  0  0  0  0
    9.1960   -6.8450   13.5220 N   0  0  0  0  0  0  0  0  0  0  0  0
    9.7180   -6.8560   12.1580 C   0  0  0  0  0  2  0  0  0  0  0  0
    8.6860   -7.4770   11.2130 C   0  0  0  0  0  2  0  0  0  0  0  0
    9.4680   -7.9490   14.3260 C   0  0  0  0  0  0  0  0  0  0  0  0
    9.2090   -9.1660   13.8020 N   0  0  0  0  0  0  0  0  0  0  0  0
    9.4990  -10.2310   14.5600 C   0  0  0  0  0  3  0  0  0  0  0  0
   10.0240  -10.2110   15.7880 N   0  0  0  0  0  0  0  0  0  0  0  0
   10.2410   -8.9980   16.3170 C   0  0  0  0  0  0  0  0  0  0  0  0
   10.8020   -9.0100   17.5830 N   0  0  0  0  0  0  0  0  0  0  0  0
    9.9840   -7.8220   15.6190 C   0  0  0  0  0  0  0  0  0  0  0  0
   10.2270   -6.1350   16.4700 Br  0  0  0  0  0  0  0  0  0  0  0  0
   10.9160   -9.9390   17.9680 H   0  0  0  0  0  0  0  0  0  0  0  0
   10.5370   -8.2700   18.2190 H   0  0  0  0  0  0  0  0  0  0  0  0
    6.6270   -6.3490    8.3000 C   0  0  0  0  0  2  0  0  0  0  0  0
    7.1730   -5.9980    6.9020 C   0  0  0  0  0  2  0  0  0  0  0  0
    6.2530   -5.7950    5.7460 N   0  0  0  0  0  4  0  0  0  0  0  0
    4.9500   -5.1790    6.0520 C   0  0  0  0  0  2  0  0  0  0  0  0
    5.0790   -4.4010    4.7330 C   0  0  0  0  0  2  0  0  0  0  0  0
    6.5840   -4.6910    4.8330 C   0  0  0  0  0  2  0  0  0  0  0  0
    6.1230   -6.6810    5.2350 H   0  0  0  0  0  0  0  0  0  0  0  0
  1  9  1  0  0  0  0
  1  5  1  0  0  0  0
  2  3  1  0  0  0  0
  2  1  2  0  0  0  0
  3  4  1  0  0  0  0
  4  5  2  0  0  0  0
  7  6  1  0  0  0  0
  8  7  1  0  0  0  0
  9  8  2  0  0  0  0
 10 11  2  0  0  0  0
 10  9  1  0  0  0  0
 11 12  1  0  0  0  0
 12 13  1  0  0  0  0
 12  7  2  0  0  0  0
 14  4  1  1  0  0  0
 14 15  1  0  0  0  0
 15 16  1  0  0  0  0
 17 16  1  0  0  0  0
 17 20  1  0  0  0  0
 18 17  1  0  0  0  0
 19 14  1  0  0  0  0
 19 18  1  0  0  0  0
 20 26  1  0  0  0  0
 21 20  2  0  0  0  0
 21 22  1  0  0  0  0
 22 23  2  0  0  0  0
 23 24  1  0  0  0  0
 24 25  1  0  0  0  0
 25 28  1  0  0  0  0
 25 29  1  0  0  0  0
 26 24  2  0  0  0  0
 26 27  1  0  0  0  0
 30  3  1  0  0  0  0
 31 30  1  0  0  0  0
 32 33  1  0  0  0  0
 32 31  1  0  0  0  0
 34 35  1  0  0  0  0
 34 33  1  0  0  0  0
 35 32  1  0  0  0  0
 36 32  1  0  0  0  0
M  END
>  <minimizedAffinity>
-11.0076361

$$$$

 OpenBabel11232418473D

 36 40  0  0  1  0  0  0  0  0999 V2000
    7.1830   -3.4810   10.9020 C   0  0  0  0  0  0  0  0  0  0  0  0
    6.7040   -3.6090    9.6190 C   0  0  0  0  0  3  0  0  0  0  0  0
    6.6480   -4.9610    9.3800 N   0  0  0  0  0  0  0  0  0  0  0  0
    7.0040   -5.6080   10.5440 C   0  0  0  0  0  0  0  0  0  0  0  0
    7.4150   -4.7260   11.4310 N   0  0  0  0  0  0  0  0  0  0  0  0
    7.5390    1.5320   11.0790 C   0  0  0  0  0  1  0  0  0  0  0  0
    7.6300    0.1860   11.7340 C   0  0  0  0  0  0  0  0  0  0  0  0
    7.3930   -0.9900   11.0050 C   0  0  0  0  0  3  0  0  0  0  0  0
    7.4320   -2.2480   11.6320 C   0  0  0  0  0  0  0  0  0  0  0  0
    7.6950   -2.3090   13.0090 C   0  0  0  0  0  3  0  0  0  0  0  0
    7.9220   -1.1430   13.7440 C   0  0  0  0  0  3  0  0  0  0  0  0
    7.8840    0.0900   13.1040 C   0  0  0  0  0  0  0  0  0  0  0  0
    8.0900    1.2000   13.8250 F   0  0  0  0  0  0  0  0  0  0  0  0
    6.9490   -7.0980   10.7700 C   0  0  2  0  0  3  0  0  0  0  0  0
    6.1170   -7.4370   12.0160 C   0  0  0  0  0  2  0  0  0  0  0  0
    6.8980   -7.2360   13.3160 C   0  0  0  0  0  2  0  0  0  0  0  0
    8.1890   -7.9130   13.2610 N   0  0  0  0  0  0  0  0  0  0  0  0
    9.0650   -7.5140   12.1630 C   0  0  0  0  0  2  0  0  0  0  0  0
    8.3510   -7.7310   10.8260 C   0  0  0  0  0  2  0  0  0  0  0  0
    8.2640   -9.2330   13.7000 C   0  0  0  0  0  0  0  0  0  0  0  0
    7.3630  -10.0990   13.1890 N   0  0  0  0  0  0  0  0  0  0  0  0
    7.4510  -11.3760   13.5850 C   0  0  0  0  0  3  0  0  0  0  0  0
    8.3470  -11.8810   14.4360 N   0  0  0  0  0  0  0  0  0  0  0  0
    9.2120  -11.0070   14.9700 C   0  0  0  0  0  0  0  0  0  0  0  0
   10.1390  -11.5650   15.8360 N   0  0  0  0  0  0  0  0  0  0  0  0
    9.2190   -9.6580   14.6280 C   0  0  0  0  0  0  0  0  0  0  0  0
   10.4150   -8.4590   15.4990 Br  0  0  0  0  0  0  0  0  0  0  0  0
    9.9990  -12.5530   15.9980 H   0  0  0  0  0  0  0  0  0  0  0  0
   10.4480  -11.0010   16.6160 H   0  0  0  0  0  0  0  0  0  0  0  0
    6.2490   -5.5440    8.1180 C   0  0  0  0  0  2  0  0  0  0  0  0
    7.2760   -6.5080    7.4920 C   0  0  0  0  0  2  0  0  0  0  0  0
    6.8370   -7.7390    6.7740 N   0  0  0  0  0  4  0  0  0  0  0  0
    7.8390   -8.3720    5.8970 C   0  0  0  0  0  2  0  0  0  0  0  0
    7.3050   -9.7320    6.3750 C   0  0  0  0  0  2  0  0  0  0  0  0
    6.7360   -8.9650    7.5790 C   0  0  0  0  0  2  0  0  0  0  0  0
    5.9650   -7.5560    6.2540 H   0  0  0  0  0  0  0  0  0  0  0  0
  1  5  1  0  0  0  0
  1  9  1  0  0  0  0
  2  1  2  0  0  0  0
  3  2  1  0  0  0  0
  3  4  1  0  0  0  0
  4  5  2  0  0  0  0
  6  7  1  0  0  0  0
  7 12  1  0  0  0  0
  8  9  1  0  0  0  0
  8  7  2  0  0  0  0
  9 10  2  0  0  0  0
 10 11  1  0  0  0  0
 12 11  2  0  0  0  0
 12 13  1  0  0  0  0
 14  4  1  1  0  0  0
 14 19  1  0  0  0  0
 14 15  1  0  0  0  0
 15 16  1  0  0  0  0
 17 16  1  0  0  0  0
 17 20  1  0  0  0  0
 18 17  1  0  0  0  0
 19 18  1  0  0  0  0
 20 26  1  0  0  0  0
 21 22  1  0  0  0  0
 21 20  2  0  0  0  0
 22 23  2  0  0  0  0
 23 24  1  0  0  0  0
 24 25  1  0  0  0  0
 25 28  1  0  0  0  0
 25 29  1  0  0  0  0
 26 24  2  0  0  0  0
 26 27  1  0  0  0  0
 30  3  1  0  0  0  0
 31 30  1  0  0  0  0
 32 31  1  0  0  0  0
 32 35  1  0  0  0  0
 33 34  1  0  0  0  0
 33 32  1  0  0  0  0
 34 35  1  0  0  0  0
 36 32  1  0  0  0  0
M  END
>  <minimizedAffinity>
-10.8974819

$$$$

 OpenBabel11232418473D

 36 40  0  0  1  0  0  0  0  0999 V2000
    6.9340   -4.7160    9.8050 C   0  0  0  0  0  0  0  0  0  0  0  0
    6.6150   -3.5260   10.4150 C   0  0  0  0  0  3  0  0  0  0  0  0
    7.1620   -3.5990   11.6730 N   0  0  0  0  0  0  0  0  0  0  0  0
    7.8670   -4.7810   11.7560 C   0  0  0  0  0  0  0  0  0  0  0  0
    7.6570   -5.4970   10.6720 N   0  0  0  0  0  0  0  0  0  0  0  0
    7.0190   -8.1110    6.0950 C   0  0  0  0  0  1  0  0  0  0  0  0
    6.6300   -6.7670    6.6350 C   0  0  0  0  0  0  0  0  0  0  0  0
    6.9890   -6.3800    7.9360 C   0  0  0  0  0  3  0  0  0  0  0  0
    6.5830   -5.1390    8.4580 C   0  0  0  0  0  0  0  0  0  0  0  0
    5.7930   -4.2970    7.6610 C   0  0  0  0  0  3  0  0  0  0  0  0
    5.4230   -4.6790    6.3690 C   0  0  0  0  0  3  0  0  0  0  0  0
    5.8390   -5.9080    5.8710 C   0  0  0  0  0  0  0  0  0  0  0  0
    5.4640   -6.2660    4.6350 F   0  0  0  0  0  0  0  0  0  0  0  0
    8.7350   -5.2040   12.9150 C   0  0  2  0  0  3  0  0  0  0  0  0
    9.9170   -6.0610   12.4360 C   0  0  0  0  0  2  0  0  0  0  0  0
    9.5180   -7.5120   12.1630 C   0  0  0  0  0  2  0  0  0  0  0  0
    8.7950   -8.0780   13.2960 N   0  0  0  0  0  0  0  0  0  0  0  0
    7.5850   -7.3640   13.6940 C   0  0  0  0  0  2  0  0  0  0  0  0
    7.9270   -5.9070   14.0210 C   0  0  0  0  0  2  0  0  0  0  0  0
    9.5260   -8.7180   14.2950 C   0  0  0  0  0  0  0  0  0  0  0  0
   10.4420   -7.9750   14.9530 N   0  0  0  0  0  0  0  0  0  0  0  0
   11.1250   -8.5780   15.9350 C   0  0  0  0  0  3  0  0  0  0  0  0
   10.9880   -9.8450   16.3330 N   0  0  0  0  0  0  0  0  0  0  0  0
   10.1040  -10.5860   15.6490 C   0  0  0  0  0  0  0  0  0  0  0  0
    9.9720  -11.8900   16.0970 N   0  0  0  0  0  0  0  0  0  0  0  0
    9.3340  -10.0650   14.6140 C   0  0  0  0  0  0  0  0  0  0  0  0
    8.1700  -11.2020   13.6250 Br  0  0  0  0  0  0  0  0  0  0  0  0
   10.6090  -12.1280   16.8460 H   0  0  0  0  0  0  0  0  0  0  0  0
    9.7720  -12.6030   15.4090 H   0  0  0  0  0  0  0  0  0  0  0  0
    7.0160   -2.5720   12.6810 C   0  0  0  0  0  2  0  0  0  0  0  0
    6.7700   -1.1520   12.1320 C   0  0  0  0  0  2  0  0  0  0  0  0
    7.7410   -0.5090   11.2020 N   0  0  0  0  0  4  0  0  0  0  0  0
    7.1670    0.1390   10.0090 C   0  0  0  0  0  2  0  0  0  0  0  0
    8.2130    1.2520   10.1880 C   0  0  0  0  0  2  0  0  0  0  0  0
    8.3220    0.7680   11.6420 C   0  0  0  0  0  2  0  0  0  0  0  0
    8.4740   -1.1830   10.9300 H   0  0  0  0  0  0  0  0  0  0  0  0
  1  2  2  0  0  0  0
  1  5  1  0  0  0  0
  2  3  1  0  0  0  0
  3  4  1  0  0  0  0
  3 30  1  0  0  0  0
  5  4  2  0  0  0  0
  6  7  1  0  0  0  0
  7  8  1  0  0  0  0
  8  9  2  0  0  0  0
  9  1  1  0  0  0  0
 10  9  1  0  0  0  0
 11 10  2  0  0  0  0
 12 11  1  0  0  0  0
 12  7  2  0  0  0  0
 13 12  1  0  0  0  0
 14  4  1  6  0  0  0
 14 19  1  0  0  0  0
 15 14  1  0  0  0  0
 16 15  1  0  0  0  0
 16 17  1  0  0  0  0
 17 18  1  0  0  0  0
 17 20  1  0  0  0  0
 18 19  1  0  0  0  0
 20 26  2  0  0  0  0
 20 21  1  0  0  0  0
 21 22  2  0  0  0  0
 22 23  1  0  0  0  0
 24 25  1  0  0  0  0
 24 23  2  0  0  0  0
 25 28  1  0  0  0  0
 26 24  1  0  0  0  0
 27 26  1  0  0  0  0
 29 25  1  0  0  0  0
 31 30  1  0  0  0  0
 32 35  1  0  0  0  0
 32 31  1  0  0  0  0
 33 34  1  0  0  0  0
 33 32  1  0  0  0  0
 34 35  1  0  0  0  0
 36 32  1  0  0  0  0
M  END
>  <minimizedAffinity>
-10.8152828

$$$$

 OpenBabel11232418473D

 36 40  0  0  1  0  0  0  0  0999 V2000
    7.3070   -4.8130   10.5540 C   0  0  0  0  0  0  0  0  0  0  0  0
    6.9480   -5.5020    9.4180 C   0  0  0  0  0  3  0  0  0  0  0  0
    7.2150   -6.8220    9.6880 N   0  0  0  0  0  0  0  0  0  0  0  0
    7.6390   -6.9040   10.9980 C   0  0  0  0  0  0  0  0  0  0  0  0
    7.7840   -5.6930   11.4920 N   0  0  0  0  0  0  0  0  0  0  0  0
    6.0900   -0.1820    9.0170 C   0  0  0  0  0  1  0  0  0  0  0  0
    6.6580   -1.1170   10.0420 C   0  0  0  0  0  0  0  0  0  0  0  0
    6.7350   -2.4980    9.7980 C   0  0  0  0  0  3  0  0  0  0  0  0
    7.2240   -3.3780   10.7780 C   0  0  0  0  0  0  0  0  0  0  0  0
    7.6200   -2.8560   12.0190 C   0  0  0  0  0  3  0  0  0  0  0  0
    7.5380   -1.4850   12.2740 C   0  0  0  0  0  3  0  0  0  0  0  0
    7.0560   -0.6310   11.2890 C   0  0  0  0  0  0  0  0  0  0  0  0
    6.9700    0.6790   11.5550 F   0  0  0  0  0  0  0  0  0  0  0  0
    7.9110   -8.1820   11.7510 C   0  0  2  0  0  3  0  0  0  0  0  0
    7.0230   -8.2870   13.0000 C   0  0  0  0  0  2  0  0  0  0  0  0
    7.5470   -7.4490   14.1670 C   0  0  0  0  0  2  0  0  0  0  0  0
    8.9580   -7.7250   14.4170 N   0  0  0  0  0  0  0  0  0  0  0  0
    9.8550   -7.5030   13.2860 C   0  0  0  0  0  2  0  0  0  0  0  0
    9.4030   -8.3500   12.0930 C   0  0  0  0  0  2  0  0  0  0  0  0
    9.2850   -8.7410   15.3120 C   0  0  0  0  0  0  0  0  0  0  0  0
    8.7520   -9.9590   15.0750 N   0  0  0  0  0  0  0  0  0  0  0  0
    9.0900  -10.9460   15.9150 C   0  0  0  0  0  3  0  0  0  0  0  0
    9.9070  -10.8470   16.9670 N   0  0  0  0  0  0  0  0  0  0  0  0
   10.4000   -9.6270   17.2180 C   0  0  0  0  0  0  0  0  0  0  0  0
   11.2580   -9.5600   18.3040 N   0  0  0  0  0  0  0  0  0  0  0  0
   10.1240   -8.5280   16.4090 C   0  0  0  0  0  0  0  0  0  0  0  0
   10.7830   -6.8050   16.8830 Br  0  0  0  0  0  0  0  0  0  0  0  0
   11.3490  -10.4360   18.8030 H   0  0  0  0  0  0  0  0  0  0  0  0
   11.2570   -8.7080   18.8480 H   0  0  0  0  0  0  0  0  0  0  0  0
    7.0360   -7.8960    8.7360 C   0  0  0  0  0  2  0  0  0  0  0  0
    6.9760   -7.4540    7.2610 C   0  0  0  0  0  2  0  0  0  0  0  0
    7.0360   -8.4540    6.1560 N   0  0  0  0  0  4  0  0  0  0  0  0
    8.3450   -8.6190    5.4990 C   0  0  0  0  0  2  0  0  0  0  0  0
    8.0480  -10.1260    5.4300 C   0  0  0  0  0  2  0  0  0  0  0  0
    7.0320   -9.8690    6.5530 C   0  0  0  0  0  2  0  0  0  0  0  0
    6.3030   -8.2560    5.4570 H   0  0  0  0  0  0  0  0  0  0  0  0
  1  9  1  0  0  0  0
  1  5  1  0  0  0  0
  2  3  1  0  0  0  0
  2  1  2  0  0  0  0
  3  4  1  0  0  0  0
  4  5  2  0  0  0  0
  6  7  1  0  0  0  0
  7 12  1  0  0  0  0
  8  7  2  0  0  0  0
  8  9  1  0  0  0  0
  9 10  2  0  0  0  0
 10 11  1  0  0  0  0
 12 13  1  0  0  0  0
 12 11  2  0  0  0  0
 14  4  1  1  0  0  0
 14 19  1  0  0  0  0
 14 15  1  0  0  0  0
 15 16  1  0  0  0  0
 16 17  1  0  0  0  0
 17 20  1  0  0  0  0
 18 17  1  0  0  0  0
 19 18  1  0  0  0  0
 20 26  1  0  0  0  0
 21 20  2  0  0  0  0
 21 22  1  0  0  0  0
 22 23  2  0  0  0  0
 23 24  1  0  0  0  0
 24 25  1  0  0  0  0
 25 28  1  0  0  0  0
 25 29  1  0  0  0  0
 26 27  1  0  0  0  0
 26 24  2  0  0  0  0
 30  3  1  0  0  0  0
 31 30  1  0  0  0  0
 32 35  1  0  0  0  0
 32 31  1  0  0  0  0
 33 32  1  0  0  0  0
 34 33  1  0  0  0  0
 34 35  1  0  0  0  0
 36 32  1  0  0  0  0
M  END
>  <minimizedAffinity>
-10.6138525

$$$$

 OpenBabel11232418473D

 36 40  0  0  1  0  0  0  0  0999 V2000
    8.1850  -11.6920   14.1830 C   0  0  0  0  0  0  0  0  0  0  0  0
    8.7960  -11.2640   15.3390 C   0  0  0  0  0  3  0  0  0  0  0  0
    8.8150   -9.8930   15.2590 N   0  0  0  0  0  0  0  0  0  0  0  0
    8.1410   -9.5300   14.1120 C   0  0  0  0  0  0  0  0  0  0  0  0
    7.8420  -10.6060   13.4160 N   0  0  0  0  0  0  0  0  0  0  0  0
    9.0320  -16.6330   14.5820 C   0  0  0  0  0  1  0  0  0  0  0  0
    8.3360  -15.4680   13.9430 C   0  0  0  0  0  0  0  0  0  0  0  0
    8.6120  -14.1520   14.3450 C   0  0  0  0  0  3  0  0  0  0  0  0
    7.9240  -13.0650   13.7790 C   0  0  0  0  0  0  0  0  0  0  0  0
    6.9390  -13.3180   12.8130 C   0  0  0  0  0  3  0  0  0  0  0  0
    6.6510  -14.6250   12.4140 C   0  0  0  0  0  3  0  0  0  0  0  0
    7.3460  -15.6860   12.9830 C   0  0  0  0  0  0  0  0  0  0  0  0
    7.0480  -16.9340   12.6000 F   0  0  0  0  0  0  0  0  0  0  0  0
    7.8070   -8.1170   13.7040 C   0  0  2  0  0  3  0  0  0  0  0  0
    6.4290   -8.0490   13.0260 C   0  0  0  0  0  2  0  0  0  0  0  0
    6.4700   -8.4980   11.5640 C   0  0  0  0  0  2  0  0  0  0  0  0
    7.5260   -7.8040   10.8340 N   0  0  0  0  0  0  0  0  0  0  0  0
    8.8750   -7.9600   11.3730 C   0  0  0  0  0  2  0  0  0  0  0  0
    8.9080   -7.4880   12.8300 C   0  0  0  0  0  2  0  0  0  0  0  0
    7.2170   -6.6000   10.2070 C   0  0  0  0  0  0  0  0  0  0  0  0
    7.0550   -5.5210   11.0020 N   0  0  0  0  0  0  0  0  0  0  0  0
    6.7870   -4.3540   10.4000 C   0  0  0  0  0  3  0  0  0  0  0  0
    6.6680   -4.1490    9.0860 N   0  0  0  0  0  0  0  0  0  0  0  0
    6.7910   -5.2330    8.3070 C   0  0  0  0  0  0  0  0  0  0  0  0
    6.6800   -4.9850    6.9480 N   0  0  0  0  0  0  0  0  0  0  0  0
    7.0760   -6.4950    8.8200 C   0  0  0  0  0  0  0  0  0  0  0  0
    7.1410   -8.0040    7.6610 Br  0  0  0  0  0  0  0  0  0  0  0  0
    6.4570   -4.0230    6.7280 H   0  0  0  0  0  0  0  0  0  0  0  0
    6.2630   -5.7050    6.3740 H   0  0  0  0  0  0  0  0  0  0  0  0
    9.4240   -9.0330   16.2500 C   0  0  0  0  0  2  0  0  0  0  0  0
   10.7870   -8.4370   15.8460 C   0  0  0  0  0  2  0  0  0  0  0  0
   11.1310   -7.0200   16.1610 N   0  0  0  0  0  4  0  0  0  0  0  0
   10.0470   -6.0350   15.9920 C   0  0  0  0  0  2  0  0  0  0  0  0
   10.5690   -5.3390   17.2590 C   0  0  0  0  0  2  0  0  0  0  0  0
   11.2500   -6.6770   17.5850 C   0  0  0  0  0  2  0  0  0  0  0  0
   11.9680   -6.7310   15.6310 H   0  0  0  0  0  0  0  0  0  0  0  0
  1  2  2  0  0  0  0
  3  2  1  0  0  0  0
  3 30  1  0  0  0  0
  4  3  1  0  0  0  0
  5  4  2  0  0  0  0
  5  1  1  0  0  0  0
  7  8  1  0  0  0  0
  7  6  1  0  0  0  0
  9  1  1  0  0  0  0
  9  8  2  0  0  0  0
 10  9  1  0  0  0  0
 11 10  2  0  0  0  0
 11 12  1  0  0  0  0
 12  7  2  0  0  0  0
 13 12  1  0  0  0  0
 14  4  1  6  0  0  0
 15 14  1  0  0  0  0
 16 15  1  0  0  0  0
 17 18  1  0  0  0  0
 17 16  1  0  0  0  0
 18 19  1  0  0  0  0
 19 14  1  0  0  0  0
 20 17  1  0  0  0  0
 20 21  1  0  0  0  0
 22 21  2  0  0  0  0
 23 22  1  0  0  0  0
 24 26  1  0  0  0  0
 24 23  2  0  0  0  0
 25 24  1  0  0  0  0
 26 20  2  0  0  0  0
 27 26  1  0  0  0  0
 28 25  1  0  0  0  0
 29 25  1  0  0  0  0
 31 32  1  0  0  0  0
 31 30  1  0  0  0  0
 32 35  1  0  0  0  0
 33 32  1  0  0  0  0
 33 34  1  0  0  0  0
 34 35  1  0  0  0  0
 36 32  1  0  0  0  0
M  END
>  <minimizedAffinity>
-10.2464285

$$$$

 OpenBabel11232418473D

 36 40  0  0  1  0  0  0  0  0999 V2000
    7.4060   -6.0490   10.3910 C   0  0  0  0  0  0  0  0  0  0  0  0
    7.5700   -4.8060   10.9560 C   0  0  0  0  0  3  0  0  0  0  0  0
    7.7870   -5.0350   12.2920 N   0  0  0  0  0  0  0  0  0  0  0  0
    7.8390   -6.4000   12.4810 C   0  0  0  0  0  0  0  0  0  0  0  0
    7.5190   -7.0120   11.3610 N   0  0  0  0  0  0  0  0  0  0  0  0
    7.1360   -9.3160    6.5770 C   0  0  0  0  0  1  0  0  0  0  0  0
    7.0270   -7.9230    7.1210 C   0  0  0  0  0  0  0  0  0  0  0  0
    7.2930   -7.6530    8.4730 C   0  0  0  0  0  3  0  0  0  0  0  0
    7.1440   -6.3550    8.9930 C   0  0  0  0  0  0  0  0  0  0  0  0
    6.7050   -5.3320    8.1390 C   0  0  0  0  0  3  0  0  0  0  0  0
    6.4280   -5.5950    6.7950 C   0  0  0  0  0  3  0  0  0  0  0  0
    6.5870   -6.8830    6.3000 C   0  0  0  0  0  0  0  0  0  0  0  0
    6.3040   -7.1220    5.0130 F   0  0  0  0  0  0  0  0  0  0  0  0
    8.1930   -7.0920   13.7730 C   0  0  2  0  0  3  0  0  0  0  0  0
    9.5930   -7.7200   13.6990 C   0  0  0  0  0  2  0  0  0  0  0  0
    9.6020   -9.0510   12.9450 C   0  0  0  0  0  2  0  0  0  0  0  0
    8.5750   -9.9500   13.4590 N   0  0  0  0  0  0  0  0  0  0  0  0
    7.2080   -9.4380   13.4180 C   0  0  0  0  0  2  0  0  0  0  0  0
    7.1250   -8.1200   14.1940 C   0  0  0  0  0  2  0  0  0  0  0  0
    8.9110  -10.8110   14.5010 C   0  0  0  0  0  0  0  0  0  0  0  0
    9.6070  -10.2830   15.5300 N   0  0  0  0  0  0  0  0  0  0  0  0
    9.9050  -11.1010   16.5490 C   0  0  0  0  0  3  0  0  0  0  0  0
    9.5780  -12.3920   16.6500 N   0  0  0  0  0  0  0  0  0  0  0  0
    8.9220  -12.9180   15.6070 C   0  0  0  0  0  0  0  0  0  0  0  0
    8.5820  -14.2530   15.7490 N   0  0  0  0  0  0  0  0  0  0  0  0
    8.5530  -12.1630   14.4970 C   0  0  0  0  0  0  0  0  0  0  0  0
    7.7070  -13.0000   13.0110 Br  0  0  0  0  0  0  0  0  0  0  0  0
    8.9310  -14.6720   16.6020 H   0  0  0  0  0  0  0  0  0  0  0  0
    8.5740  -14.8250   14.9160 H   0  0  0  0  0  0  0  0  0  0  0  0
    7.9560   -3.9880   13.2770 C   0  0  0  0  0  2  0  0  0  0  0  0
    6.8700   -2.8940   13.2560 C   0  0  0  0  0  2  0  0  0  0  0  0
    7.2260   -1.4610   13.0500 N   0  0  0  0  0  4  0  0  0  0  0  0
    8.6410   -1.1790   12.7510 C   0  0  0  0  0  2  0  0  0  0  0  0
    8.1530   -0.1080   11.7630 C   0  0  0  0  0  2  0  0  0  0  0  0
    6.8140   -0.8610   11.7730 C   0  0  0  0  0  2  0  0  0  0  0  0
    6.9070   -0.8970   13.8530 H   0  0  0  0  0  0  0  0  0  0  0  0
  1  2  2  0  0  0  0
  1  5  1  0  0  0  0
  2  3  1  0  0  0  0
  3  4  1  0  0  0  0
  3 30  1  0  0  0  0
  5  4  2  0  0  0  0
  6  7  1  0  0  0  0
  7  8  1  0  0  0  0
  8  9  2  0  0  0  0
  9  1  1  0  0  0  0
 10  9  1  0  0  0  0
 11 10  2  0  0  0  0
 12 11  1  0  0  0  0
 12  7  2  0  0  0  0
 13 12  1  0  0  0  0
 14  4  1  6  0  0  0
 14 19  1  0  0  0  0
 15 14  1  0  0  0  0
 16 17  1  0  0  0  0
 16 15  1  0  0  0  0
 17 20  1  0  0  0  0
 18 17  1  0  0  0  0
 18 19  1  0  0  0  0
 20 21  1  0  0  0  0
 21 22  2  0  0  0  0
 22 23  1  0  0  0  0
 24 25  1  0  0  0  0
 24 23  2  0  0  0  0
 25 28  1  0  0  0  0
 26 20  2  0  0  0  0
 26 24  1  0  0  0  0
 27 26  1  0  0  0  0
 29 25  1  0  0  0  0
 31 30  1  0  0  0  0
 32 31  1  0  0  0  0
 32 36  1  0  0  0  0
 33 32  1  0  0  0  0
 34 35  1  0  0  0  0
 34 33  1  0  0  0  0
 35 32  1  0  0  0  0
M  END
>  <minimizedAffinity>
-10.204772

$$$$

 OpenBabel11232418473D

 36 40  0  0  1  0  0  0  0  0999 V2000
    8.1680   -7.3300   14.2740 C   0  0  0  0  0  0  0  0  0  0  0  0
    7.8180   -8.2560   13.3190 C   0  0  0  0  0  3  0  0  0  0  0  0
    6.8940   -7.6290   12.5190 N   0  0  0  0  0  0  0  0  0  0  0  0
    6.7800   -6.3250   12.9530 C   0  0  0  0  0  0  0  0  0  0  0  0
    7.4730   -6.1670   14.0610 N   0  0  0  0  0  0  0  0  0  0  0  0
   11.0570   -5.4440   17.9330 C   0  0  0  0  0  1  0  0  0  0  0  0
   10.5420   -6.6040   17.1350 C   0  0  0  0  0  0  0  0  0  0  0  0
    9.6340   -6.4100   16.0810 C   0  0  0  0  0  3  0  0  0  0  0  0
    9.1150   -7.5030   15.3650 C   0  0  0  0  0  0  0  0  0  0  0  0
    9.5060   -8.7990   15.7330 C   0  0  0  0  0  3  0  0  0  0  0  0
   10.4010   -9.0010   16.7860 C   0  0  0  0  0  3  0  0  0  0  0  0
   10.9060   -7.9070   17.4780 C   0  0  0  0  0  0  0  0  0  0  0  0
   11.7520   -8.1190   18.4950 F   0  0  0  0  0  0  0  0  0  0  0  0
    5.9760   -5.2440   12.2760 C   0  0  2  0  0  3  0  0  0  0  0  0
    6.3620   -5.1150   10.7940 C   0  0  0  0  0  2  0  0  0  0  0  0
    7.6560   -4.3260   10.5900 C   0  0  0  0  0  2  0  0  0  0  0  0
    7.6130   -3.0550   11.3050 N   0  0  0  0  0  0  0  0  0  0  0  0
    7.3840   -3.1470   12.7450 C   0  0  0  0  0  2  0  0  0  0  0  0
    6.0750   -3.8960   13.0140 C   0  0  0  0  0  2  0  0  0  0  0  0
    7.1090   -1.9390   10.6420 C   0  0  0  0  0  0  0  0  0  0  0  0
    6.2980   -2.1690    9.5870 N   0  0  0  0  0  0  0  0  0  0  0  0
    5.7860   -1.0990    8.9650 C   0  0  0  0  0  3  0  0  0  0  0  0
    5.9960    0.1800    9.2870 N   0  0  0  0  0  0  0  0  0  0  0  0
    6.8330    0.4010   10.3110 C   0  0  0  0  0  0  0  0  0  0  0  0
    7.0160    1.7360   10.6320 N   0  0  0  0  0  0  0  0  0  0  0  0
    7.4180   -0.6340   11.0350 C   0  0  0  0  0  0  0  0  0  0  0  0
    8.6720   -0.2430   12.4150 Br  0  0  0  0  0  0  0  0  0  0  0  0
    6.5390    2.3730   10.0070 H   0  0  0  0  0  0  0  0  0  0  0  0
    7.9240    2.0130   10.9790 H   0  0  0  0  0  0  0  0  0  0  0  0
    6.2150   -8.2670   11.4130 C   0  0  0  0  0  2  0  0  0  0  0  0
    7.0830   -8.4880   10.1580 C   0  0  0  0  0  2  0  0  0  0  0  0
    6.5530   -8.1940    8.7950 N   0  0  0  0  0  4  0  0  0  0  0  0
    7.4150   -7.3740    7.9260 C   0  0  0  0  0  2  0  0  0  0  0  0
    6.9770   -8.2680    6.7550 C   0  0  0  0  0  2  0  0  0  0  0  0
    6.5910   -9.2990    7.8260 C   0  0  0  0  0  2  0  0  0  0  0  0
    5.6090   -7.7820    8.8610 H   0  0  0  0  0  0  0  0  0  0  0  0
  1  9  1  0  0  0  0
  2  1  2  0  0  0  0
  3  4  1  0  0  0  0
  3  2  1  0  0  0  0
  4  5  2  0  0  0  0
  5  1  1  0  0  0  0
  7 12  1  0  0  0  0
  7  6  1  0  0  0  0
  8  7  2  0  0  0  0
  9 10  2  0  0  0  0
  9  8  1  0  0  0  0
 10 11  1  0  0  0  0
 11 12  2  0  0  0  0
 12 13  1  0  0  0  0
 14  4  1  1  0  0  0
 14 19  1  0  0  0  0
 15 14  1  0  0  0  0
 16 15  1  0  0  0  0
 16 17  1  0  0  0  0
 17 18  1  0  0  0  0
 18 19  1  0  0  0  0
 20 26  1  0  0  0  0
 20 17  1  0  0  0  0
 21 20  2  0  0  0  0
 22 23  2  0  0  0  0
 22 21  1  0  0  0  0
 23 24  1  0  0  0  0
 24 25  1  0  0  0  0
 24 26  2  0  0  0  0
 25 29  1  0  0  0  0
 26 27  1  0  0  0  0
 28 25  1  0  0  0  0
 30  3  1  0  0  0  0
 31 30  1  0  0  0  0
 32 36  1  0  0  0  0
 32 31  1  0  0  0  0
 33 32  1  0  0  0  0
 34 35  1  0  0  0  0
 34 33  1  0  0  0  0
 35 32  1  0  0  0  0
M  END
>  <minimizedAffinity>
-10.0392923

$$$$
