
 OpenBabel11232418473D

 36 40  0  0  1  0  0  0  0  0999 V2000
    7.0820   -3.3930   10.2830 C   0  0  0  0  0  0  0  0  0  0  0  0
    6.7290   -3.9910    9.0960 C   0  0  0  0  0  3  0  0  0  0  0  0
    6.8500   -5.3420    9.3140 N   0  0  0  0  0  0  0  0  0  0  0  0
    7.1830   -5.5250   10.6400 C   0  0  0  0  0  0  0  0  0  0  0  0
    7.4130   -4.3570   11.2020 N   0  0  0  0  0  0  0  0  0  0  0  0
    8.0720    0.4350   13.3910 C   0  0  0  0  0  1  0  0  0  0  0  0
    7.5790   -0.0950   12.0770 C   0  0  0  0  0  0  0  0  0  0  0  0
    7.5410   -1.4750   11.8240 C   0  0  0  0  0  3  0  0  0  0  0  0
    7.1250   -1.9680   10.5750 C   0  0  0  0  0  0  0  0  0  0  0  0
    6.7640   -1.0540    9.5740 C   0  0  0  0  0  3  0  0  0  0  0  0
    6.8080    0.3210    9.8150 C   0  0  0  0  0  3  0  0  0  0  0  0
    7.2180    0.7880   11.0580 C   0  0  0  0  0  0  0  0  0  0  0  0
    7.2690    2.1100   11.2680 F   0  0  0  0  0  0  0  0  0  0  0  0
    7.2830   -6.8560   11.3420 C   0  0  2  0  0  3  0  0  0  0  0  0
    6.8400   -6.7410   12.8080 C   0  0  0  0  0  2  0  0  0  0  0  0
    7.9270   -6.1480   13.7070 C   0  0  0  0  0  2  0  0  0  0  0  0
    9.1960   -6.8450   13.5220 N   0  0  0  0  0  0  0  0  0  0  0  0
    9.7180   -6.8560   12.1580 C   0  0  0  0  0  2  0  0  0  0  0  0
    8.6860   -7.4770   11.2130 C   0  0  0  0  0  2  0  0  0  0  0  0
    9.4680   -7.9490   14.3260 C   0  0  0  0  0  0  0  0  0  0  0  0
    9.2090   -9.1660   13.8020 N   0  0  0  0  0  0  0  0  0  0  0  0
    9.4990  -10.2310   14.5600 C   0  0  0  0  0  3  0  0  0  0  0  0
   10.0240  -10.2110   15.7880 N   0  0  0  0  0  0  0  0  0  0  0  0
   10.2410   -8.9980   16.3170 C   0  0  0  0  0  0  0  0  0  0  0  0
   10.8020   -9.0100   17.5830 N   0  0  0  0  0  0  0  0  0  0  0  0
    9.9840   -7.8220   15.6190 C   0  0  0  0  0  0  0  0  0  0  0  0
   10.2270   -6.1350   16.4700 Br  0  0  0  0  0  0  0  0  0  0  0  0
   10.9160   -9.9390   17.9680 H   0  0  0  0  0  0  0  0  0  0  0  0
   10.5370   -8.2700   18.2190 H   0  0  0  0  0  0  0  0  0  0  0  0
    6.6270   -6.3490    8.3000 C   0  0  0  0  0  2  0  0  0  0  0  0
    7.1730   -5.9980    6.9020 C   0  0  0  0  0  2  0  0  0  0  0  0
    6.2530   -5.7950    5.7460 N   0  0  0  0  0  4  0  0  0  0  0  0
    4.9500   -5.1790    6.0520 C   0  0  0  0  0  2  0  0  0  0  0  0
    5.0790   -4.4010    4.7330 C   0  0  0  0  0  2  0  0  0  0  0  0
    6.5840   -4.6910    4.8330 C   0  0  0  0  0  2  0  0  0  0  0  0
    6.1230   -6.6810    5.2350 H   0  0  0  0  0  0  0  0  0  0  0  0
  1  9  1  0  0  0  0
  1  5  1  0  0  0  0
  2  3  1  0  0  0  0
  2  1  2  0  0  0  0
  3  4  1  0  0  0  0
  4  5  2  0  0  0  0
  7  6  1  0  0  0  0
  8  7  1  0  0  0  0
  9  8  2  0  0  0  0
 10 11  2  0  0  0  0
 10  9  1  0  0  0  0
 11 12  1  0  0  0  0
 12 13  1  0  0  0  0
 12  7  2  0  0  0  0
 14  4  1  1  0  0  0
 14 15  1  0  0  0  0
 15 16  1  0  0  0  0
 17 16  1  0  0  0  0
 17 20  1  0  0  0  0
 18 17  1  0  0  0  0
 19 14  1  0  0  0  0
 19 18  1  0  0  0  0
 20 26  1  0  0  0  0
 21 20  2  0  0  0  0
 21 22  1  0  0  0  0
 22 23  2  0  0  0  0
 23 24  1  0  0  0  0
 24 25  1  0  0  0  0
 25 28  1  0  0  0  0
 25 29  1  0  0  0  0
 26 24  2  0  0  0  0
 26 27  1  0  0  0  0
 30  3  1  0  0  0  0
 31 30  1  0  0  0  0
 32 33  1  0  0  0  0
 32 31  1  0  0  0  0
 34 35  1  0  0  0  0
 34 33  1  0  0  0  0
 35 32  1  0  0  0  0
 36 32  1  0  0  0  0
M  END
>  <minimizedAffinity>
-11.0076361

$$$$
