
 OpenBabel11232418473D

 36 40  0  0  1  0  0  0  0  0999 V2000
    7.1830   -3.4810   10.9020 C   0  0  0  0  0  0  0  0  0  0  0  0
    6.7040   -3.6090    9.6190 C   0  0  0  0  0  3  0  0  0  0  0  0
    6.6480   -4.9610    9.3800 N   0  0  0  0  0  0  0  0  0  0  0  0
    7.0040   -5.6080   10.5440 C   0  0  0  0  0  0  0  0  0  0  0  0
    7.4150   -4.7260   11.4310 N   0  0  0  0  0  0  0  0  0  0  0  0
    7.5390    1.5320   11.0790 C   0  0  0  0  0  1  0  0  0  0  0  0
    7.6300    0.1860   11.7340 C   0  0  0  0  0  0  0  0  0  0  0  0
    7.3930   -0.9900   11.0050 C   0  0  0  0  0  3  0  0  0  0  0  0
    7.4320   -2.2480   11.6320 C   0  0  0  0  0  0  0  0  0  0  0  0
    7.6950   -2.3090   13.0090 C   0  0  0  0  0  3  0  0  0  0  0  0
    7.9220   -1.1430   13.7440 C   0  0  0  0  0  3  0  0  0  0  0  0
    7.8840    0.0900   13.1040 C   0  0  0  0  0  0  0  0  0  0  0  0
    8.0900    1.2000   13.8250 F   0  0  0  0  0  0  0  0  0  0  0  0
    6.9490   -7.0980   10.7700 C   0  0  2  0  0  3  0  0  0  0  0  0
    6.1170   -7.4370   12.0160 C   0  0  0  0  0  2  0  0  0  0  0  0
    6.8980   -7.2360   13.3160 C   0  0  0  0  0  2  0  0  0  0  0  0
    8.1890   -7.9130   13.2610 N   0  0  0  0  0  0  0  0  0  0  0  0
    9.0650   -7.5140   12.1630 C   0  0  0  0  0  2  0  0  0  0  0  0
    8.3510   -7.7310   10.8260 C   0  0  0  0  0  2  0  0  0  0  0  0
    8.2640   -9.2330   13.7000 C   0  0  0  0  0  0  0  0  0  0  0  0
    7.3630  -10.0990   13.1890 N   0  0  0  0  0  0  0  0  0  0  0  0
    7.4510  -11.3760   13.5850 C   0  0  0  0  0  3  0  0  0  0  0  0
    8.3470  -11.8810   14.4360 N   0  0  0  0  0  0  0  0  0  0  0  0
    9.2120  -11.0070   14.9700 C   0  0  0  0  0  0  0  0  0  0  0  0
   10.1390  -11.5650   15.8360 N   0  0  0  0  0  0  0  0  0  0  0  0
    9.2190   -9.6580   14.6280 C   0  0  0  0  0  0  0  0  0  0  0  0
   10.4150   -8.4590   15.4990 Br  0  0  0  0  0  0  0  0  0  0  0  0
    9.9990  -12.5530   15.9980 H   0  0  0  0  0  0  0  0  0  0  0  0
   10.4480  -11.0010   16.6160 H   0  0  0  0  0  0  0  0  0  0  0  0
    6.2490   -5.5440    8.1180 C   0  0  0  0  0  2  0  0  0  0  0  0
    7.2760   -6.5080    7.4920 C   0  0  0  0  0  2  0  0  0  0  0  0
    6.8370   -7.7390    6.7740 N   0  0  0  0  0  4  0  0  0  0  0  0
    7.8390   -8.3720    5.8970 C   0  0  0  0  0  2  0  0  0  0  0  0
    7.3050   -9.7320    6.3750 C   0  0  0  0  0  2  0  0  0  0  0  0
    6.7360   -8.9650    7.5790 C   0  0  0  0  0  2  0  0  0  0  0  0
    5.9650   -7.5560    6.2540 H   0  0  0  0  0  0  0  0  0  0  0  0
  1  5  1  0  0  0  0
  1  9  1  0  0  0  0
  2  1  2  0  0  0  0
  3  2  1  0  0  0  0
  3  4  1  0  0  0  0
  4  5  2  0  0  0  0
  6  7  1  0  0  0  0
  7 12  1  0  0  0  0
  8  9  1  0  0  0  0
  8  7  2  0  0  0  0
  9 10  2  0  0  0  0
 10 11  1  0  0  0  0
 12 11  2  0  0  0  0
 12 13  1  0  0  0  0
 14  4  1  1  0  0  0
 14 19  1  0  0  0  0
 14 15  1  0  0  0  0
 15 16  1  0  0  0  0
 17 16  1  0  0  0  0
 17 20  1  0  0  0  0
 18 17  1  0  0  0  0
 19 18  1  0  0  0  0
 20 26  1  0  0  0  0
 21 22  1  0  0  0  0
 21 20  2  0  0  0  0
 22 23  2  0  0  0  0
 23 24  1  0  0  0  0
 24 25  1  0  0  0  0
 25 28  1  0  0  0  0
 25 29  1  0  0  0  0
 26 24  2  0  0  0  0
 26 27  1  0  0  0  0
 30  3  1  0  0  0  0
 31 30  1  0  0  0  0
 32 31  1  0  0  0  0
 32 35  1  0  0  0  0
 33 34  1  0  0  0  0
 33 32  1  0  0  0  0
 34 35  1  0  0  0  0
 36 32  1  0  0  0  0
M  END
>  <minimizedAffinity>
-10.8974819

$$$$
