
 OpenBabel11232418473D

 36 40  0  0  1  0  0  0  0  0999 V2000
    8.1850  -11.6920   14.1830 C   0  0  0  0  0  0  0  0  0  0  0  0
    8.7960  -11.2640   15.3390 C   0  0  0  0  0  3  0  0  0  0  0  0
    8.8150   -9.8930   15.2590 N   0  0  0  0  0  0  0  0  0  0  0  0
    8.1410   -9.5300   14.1120 C   0  0  0  0  0  0  0  0  0  0  0  0
    7.8420  -10.6060   13.4160 N   0  0  0  0  0  0  0  0  0  0  0  0
    9.0320  -16.6330   14.5820 C   0  0  0  0  0  1  0  0  0  0  0  0
    8.3360  -15.4680   13.9430 C   0  0  0  0  0  0  0  0  0  0  0  0
    8.6120  -14.1520   14.3450 C   0  0  0  0  0  3  0  0  0  0  0  0
    7.9240  -13.0650   13.7790 C   0  0  0  0  0  0  0  0  0  0  0  0
    6.9390  -13.3180   12.8130 C   0  0  0  0  0  3  0  0  0  0  0  0
    6.6510  -14.6250   12.4140 C   0  0  0  0  0  3  0  0  0  0  0  0
    7.3460  -15.6860   12.9830 C   0  0  0  0  0  0  0  0  0  0  0  0
    7.0480  -16.9340   12.6000 F   0  0  0  0  0  0  0  0  0  0  0  0
    7.8070   -8.1170   13.7040 C   0  0  2  0  0  3  0  0  0  0  0  0
    6.4290   -8.0490   13.0260 C   0  0  0  0  0  2  0  0  0  0  0  0
    6.4700   -8.4980   11.5640 C   0  0  0  0  0  2  0  0  0  0  0  0
    7.5260   -7.8040   10.8340 N   0  0  0  0  0  0  0  0  0  0  0  0
    8.8750   -7.9600   11.3730 C   0  0  0  0  0  2  0  0  0  0  0  0
    8.9080   -7.4880   12.8300 C   0  0  0  0  0  2  0  0  0  0  0  0
    7.2170   -6.6000   10.2070 C   0  0  0  0  0  0  0  0  0  0  0  0
    7.0550   -5.5210   11.0020 N   0  0  0  0  0  0  0  0  0  0  0  0
    6.7870   -4.3540   10.4000 C   0  0  0  0  0  3  0  0  0  0  0  0
    6.6680   -4.1490    9.0860 N   0  0  0  0  0  0  0  0  0  0  0  0
    6.7910   -5.2330    8.3070 C   0  0  0  0  0  0  0  0  0  0  0  0
    6.6800   -4.9850    6.9480 N   0  0  0  0  0  0  0  0  0  0  0  0
    7.0760   -6.4950    8.8200 C   0  0  0  0  0  0  0  0  0  0  0  0
    7.1410   -8.0040    7.6610 Br  0  0  0  0  0  0  0  0  0  0  0  0
    6.4570   -4.0230    6.7280 H   0  0  0  0  0  0  0  0  0  0  0  0
    6.2630   -5.7050    6.3740 H   0  0  0  0  0  0  0  0  0  0  0  0
    9.4240   -9.0330   16.2500 C   0  0  0  0  0  2  0  0  0  0  0  0
   10.7870   -8.4370   15.8460 C   0  0  0  0  0  2  0  0  0  0  0  0
   11.1310   -7.0200   16.1610 N   0  0  0  0  0  4  0  0  0  0  0  0
   10.0470   -6.0350   15.9920 C   0  0  0  0  0  2  0  0  0  0  0  0
   10.5690   -5.3390   17.2590 C   0  0  0  0  0  2  0  0  0  0  0  0
   11.2500   -6.6770   17.5850 C   0  0  0  0  0  2  0  0  0  0  0  0
   11.9680   -6.7310   15.6310 H   0  0  0  0  0  0  0  0  0  0  0  0
  1  2  2  0  0  0  0
  3  2  1  0  0  0  0
  3 30  1  0  0  0  0
  4  3  1  0  0  0  0
  5  4  2  0  0  0  0
  5  1  1  0  0  0  0
  7  8  1  0  0  0  0
  7  6  1  0  0  0  0
  9  1  1  0  0  0  0
  9  8  2  0  0  0  0
 10  9  1  0  0  0  0
 11 10  2  0  0  0  0
 11 12  1  0  0  0  0
 12  7  2  0  0  0  0
 13 12  1  0  0  0  0
 14  4  1  6  0  0  0
 15 14  1  0  0  0  0
 16 15  1  0  0  0  0
 17 18  1  0  0  0  0
 17 16  1  0  0  0  0
 18 19  1  0  0  0  0
 19 14  1  0  0  0  0
 20 17  1  0  0  0  0
 20 21  1  0  0  0  0
 22 21  2  0  0  0  0
 23 22  1  0  0  0  0
 24 26  1  0  0  0  0
 24 23  2  0  0  0  0
 25 24  1  0  0  0  0
 26 20  2  0  0  0  0
 27 26  1  0  0  0  0
 28 25  1  0  0  0  0
 29 25  1  0  0  0  0
 31 32  1  0  0  0  0
 31 30  1  0  0  0  0
 32 35  1  0  0  0  0
 33 32  1  0  0  0  0
 33 34  1  0  0  0  0
 34 35  1  0  0  0  0
 36 32  1  0  0  0  0
M  END
>  <minimizedAffinity>
-10.2464285

$$$$
