
 OpenBabel11232418473D

 36 40  0  0  1  0  0  0  0  0999 V2000
    7.0420   -4.3210   10.3710 C   0  0  0  0  0  0  0  0  0  0  0  0
    6.8250   -5.1280    9.2780 C   0  0  0  0  0  3  0  0  0  0  0  0
    7.0190   -6.4120    9.7250 N   0  0  0  0  0  0  0  0  0  0  0  0
    7.2550   -6.3530   11.0830 C   0  0  0  0  0  0  0  0  0  0  0  0
    7.3610   -5.0960   11.4580 N   0  0  0  0  0  0  0  0  0  0  0  0
    7.4770    0.0190   12.8740 C   0  0  0  0  0  1  0  0  0  0  0  0
    7.1510   -0.7500   11.6290 C   0  0  0  0  0  0  0  0  0  0  0  0
    7.2250   -2.1520   11.6060 C   0  0  0  0  0  3  0  0  0  0  0  0
    6.9660   -2.8690   10.4250 C   0  0  0  0  0  0  0  0  0  0  0  0
    6.6490   -2.1570    9.2580 C   0  0  0  0  0  3  0  0  0  0  0  0
    6.5830   -0.7620    9.2700 C   0  0  0  0  0  3  0  0  0  0  0  0
    6.8380   -0.0730   10.4490 C   0  0  0  0  0  0  0  0  0  0  0  0
    6.7850    1.2660   10.4410 F   0  0  0  0  0  0  0  0  0  0  0  0
    7.3860   -7.5420   12.0010 C   0  0  2  0  0  3  0  0  0  0  0  0
    7.0100   -7.1710   13.4430 C   0  0  0  0  0  2  0  0  0  0  0  0
    8.1360   -6.4390   14.1760 C   0  0  0  0  0  2  0  0  0  0  0  0
    9.3950   -7.1670   14.0590 N   0  0  0  0  0  0  0  0  0  0  0  0
    9.8560   -7.4180   12.6970 C   0  0  0  0  0  2  0  0  0  0  0  0
    8.7820   -8.1870   11.9210 C   0  0  0  0  0  2  0  0  0  0  0  0
    9.7030   -8.1150   15.0310 C   0  0  0  0  0  0  0  0  0  0  0  0
    9.3550   -9.3930   14.7690 N   0  0  0  0  0  0  0  0  0  0  0  0
    9.6780  -10.3140   15.6880 C   0  0  0  0  0  3  0  0  0  0  0  0
   10.3150  -10.0940   16.8400 N   0  0  0  0  0  0  0  0  0  0  0  0
   10.6220   -8.8170   17.1100 C   0  0  0  0  0  0  0  0  0  0  0  0
   11.2970   -8.6240   18.3040 N   0  0  0  0  0  0  0  0  0  0  0  0
   10.3410   -7.7780   16.2280 C   0  0  0  0  0  0  0  0  0  0  0  0
   10.7200   -5.9780   16.7220 Br  0  0  0  0  0  0  0  0  0  0  0  0
   11.4150   -9.4700   18.8460 H   0  0  0  0  0  0  0  0  0  0  0  0
   11.1180   -7.7660   18.8090 H   0  0  0  0  0  0  0  0  0  0  0  0
    6.9450   -7.5830    8.8800 C   0  0  0  0  0  3  0  0  0  0  0  0
    7.3510   -7.3530    7.4110 C   0  0  0  0  0  3  0  0  0  0  0  0
    7.0820   -8.3830    6.3670 N   0  0  0  0  0  4  0  0  0  0  0  0
    8.2230   -8.7550    5.5110 C   0  0  0  0  0  2  0  0  0  0  0  0
    7.7150  -10.2050    5.5740 C   0  0  0  0  0  2  0  0  0  0  0  0
    6.9530   -9.7700    6.8360 C   0  0  0  0  0  2  0  0  0  0  0  0
    6.2730   -8.1030    5.7910 H   0  0  0  0  0  0  0  0  0  0  0  0
  1  9  1  0  0  0  0
  1  5  1  0  0  0  0
  2  3  1  0  0  0  0
  2  1  2  0  0  0  0
  3  4  1  0  0  0  0
  4  5  2  0  0  0  0
  7  6  1  0  0  0  0
  8  7  1  0  0  0  0
  9  8  2  0  0  0  0
 10 11  2  0  0  0  0
 10  9  1  0  0  0  0
 11 12  1  0  0  0  0
 12  7  2  0  0  0  0
 13 12  1  0  0  0  0
 14  4  1  6  0  0  0
 14 15  1  0  0  0  0
 15 16  1  0  0  0  0
 17 16  1  0  0  0  0
 17 20  1  0  0  0  0
 18 17  1  0  0  0  0
 19 14  1  0  0  0  0
 19 18  1  0  0  0  0
 20 26  1  0  0  0  0
 21 20  2  0  0  0  0
 21 22  1  0  0  0  0
 22 23  2  0  0  0  0
 23 24  1  0  0  0  0
 24 25  1  0  0  0  0
 25 29  1  0  0  0  0
 25 28  1  0  0  0  0
 26 27  1  0  0  0  0
 26 24  2  0  0  0  0
 30  3  1  0  0  0  0
 31 30  2  0  0  0  0
 32 35  1  0  0  0  0
 32 31  1  0  0  0  0
 33 34  1  0  0  0  0
 33 32  1  0  0  0  0
 34 35  1  0  0  0  0
 36 32  1  0  0  0  0
M  END
>  <minimizedAffinity>
-11.3967667

$$$$
