
 OpenBabel11232419023D

 35 39  0  0  1  0  0  0  0  0999 V2000
   36.1090   42.1480   21.9070 O   0  0  0  0  0  0  0  0  0  0  0  0
   37.2930   44.2990   19.1100 C   0  0  0  0  0  0  0  0  0  0  0  0
   36.2550   43.9780   18.2390 C   0  0  0  0  0  3  0  0  0  0  0  0
   35.2360   43.1480   18.5560 N   0  0  0  0  0  0  0  0  0  0  0  0
   35.2370   42.6240   19.8000 C   0  0  0  0  0  3  0  0  0  0  0  0
   36.2290   42.8540   20.7470 C   0  0  0  0  0  0  0  0  0  0  0  0
   37.2590   43.7230   20.3920 C   0  0  0  0  0  3  0  0  0  0  0  0
   38.7000   48.0740   14.9670 C   0  0  0  0  0  1  0  0  0  0  0  0
   39.6000   47.7020   16.0850 C   0  0  0  0  0  0  0  0  0  0  0  0
   40.8240   48.2340   16.1680 N   0  0  0  0  0  0  0  0  0  0  0  0
   41.3380   47.6960   17.2880 N   0  0  0  0  0  0  0  0  0  0  0  0
   40.4990   46.8150   17.9190 C   0  0  0  0  0  0  0  0  0  0  0  0
   40.6540   46.0550   19.0800 C   0  0  0  0  0  3  0  0  0  0  0  0
   39.5780   45.2380   19.4560 C   0  0  0  0  0  3  0  0  0  0  0  0
   38.3930   45.1790   18.7060 C   0  0  0  0  0  0  0  0  0  0  0  0
   38.2730   45.9730   17.5470 C   0  0  0  0  0  3  0  0  0  0  0  0
   39.3440   46.7970   17.1500 C   0  0  0  0  0  0  0  0  0  0  0  0
   42.2730   47.9720   17.5670 H   0  0  0  0  0  0  0  0  0  0  0  0
   37.2560   41.8880   22.7240 C   0  0  0  0  0  2  0  0  0  0  0  0
   37.1430   42.6590   24.0570 C   0  0  1  0  0  3  0  0  0  0  0  0
   36.4220   41.8170   25.0770 N   0  0  0  0  0  4  0  0  0  0  0  0
   36.9250   40.9530   25.3120 H   0  0  0  0  0  0  0  0  0  0  0  0
   36.2500   42.3390   25.9450 H   0  0  0  0  0  0  0  0  0  0  0  0
   35.4980   41.5440   24.7060 H   0  0  0  0  0  0  0  0  0  0  0  0
   38.5090   43.0690   24.6250 C   0  0  0  0  0  2  0  0  0  0  0  0
   38.9240   44.4250   24.1640 C   0  0  0  0  0  0  0  0  0  0  0  0
   39.7940   44.6910   23.1240 C   0  0  0  0  0  3  0  0  0  0  0  0
   39.9220   46.0490   23.0050 N   0  0  0  0  0  0  0  0  0  0  0  0
   39.1570   46.6800   23.9560 C   0  0  0  0  0  0  0  0  0  0  0  0
   38.9880   48.0470   24.2040 C   0  0  0  0  0  3  0  0  0  0  0  0
   38.1240   48.4150   25.2370 C   0  0  0  0  0  3  0  0  0  0  0  0
   37.4550   47.4530   25.9870 C   0  0  0  0  0  3  0  0  0  0  0  0
   37.6330   46.0890   25.7260 C   0  0  0  0  0  3  0  0  0  0  0  0
   38.5060   45.6890   24.6920 C   0  0  0  0  0  0  0  0  0  0  0  0
   40.4870   46.5300   22.3150 H   0  0  0  0  0  0  0  0  0  0  0  0
  1 19  1  0  0  0  0
  2  7  1  0  0  0  0
  3  4  1  0  0  0  0
  3  2  2  0  0  0  0
  4  5  2  0  0  0  0
  5  6  1  0  0  0  0
  6  1  1  0  0  0  0
  7  6  2  0  0  0  0
  8  9  1  0  0  0  0
  9 10  2  0  0  0  0
  9 17  1  0  0  0  0
 10 11  1  0  0  0  0
 11 18  1  0  0  0  0
 11 12  1  0  0  0  0
 12 13  1  0  0  0  0
 13 14  2  0  0  0  0
 15  2  1  0  0  0  0
 15 14  1  0  0  0  0
 16 15  2  0  0  0  0
 17 16  1  0  0  0  0
 17 12  2  0  0  0  0
 20 19  1  6  0  0  0
 20 25  1  0  0  0  0
 20 21  1  0  0  0  0
 21 22  1  0  0  0  0
 21 23  1  0  0  0  0
 24 21  1  0  0  0  0
 26 25  1  0  0  0  0
 26 34  1  0  0  0  0
 27 26  2  0  0  0  0
 28 27  1  0  0  0  0
 28 29  1  0  0  0  0
 29 30  2  0  0  0  0
 29 34  1  0  0  0  0
 30 31  1  0  0  0  0
 31 32  2  0  0  0  0
 33 32  1  0  0  0  0
 34 33  2  0  0  0  0
 35 28  1  0  0  0  0
M  END
>  <minimizedAffinity>
-10.4477081

$$$$
