
 OpenBabel11232419023D

 35 39  0  0  1  0  0  0  0  0999 V2000
   35.2690   44.4800   17.3730 O   0  0  0  0  0  0  0  0  0  0  0  0
   36.8920   43.6840   20.6270 C   0  0  0  0  0  0  0  0  0  0  0  0
   36.1490   42.5320   20.8730 C   0  0  0  0  0  3  0  0  0  0  0  0
   35.2160   42.0420   20.0280 N   0  0  0  0  0  0  0  0  0  0  0  0
   35.0190   42.7160   18.8740 C   0  0  0  0  0  3  0  0  0  0  0  0
   35.6840   43.8880   18.5290 C   0  0  0  0  0  0  0  0  0  0  0  0
   36.6480   44.3590   19.4170 C   0  0  0  0  0  3  0  0  0  0  0  0
   42.0990   46.1820   20.8150 C   0  0  0  0  0  1  0  0  0  0  0  0
   41.3100   45.8260   22.0190 C   0  0  0  0  0  0  0  0  0  0  0  0
   41.8020   46.0640   23.2400 N   0  0  0  0  0  0  0  0  0  0  0  0
   40.8330   45.6410   24.0700 N   0  0  0  0  0  0  0  0  0  0  0  0
   39.7410   45.1140   23.4310 C   0  0  0  0  0  0  0  0  0  0  0  0
   38.5510   44.5700   23.9190 C   0  0  0  0  0  3  0  0  0  0  0  0
   37.6240   44.1120   22.9720 C   0  0  0  0  0  3  0  0  0  0  0  0
   37.8700   44.1920   21.5930 C   0  0  0  0  0  0  0  0  0  0  0  0
   39.0780   44.7600   21.1420 C   0  0  0  0  0  3  0  0  0  0  0  0
   40.0250   45.2220   22.0760 C   0  0  0  0  0  0  0  0  0  0  0  0
   40.9810   45.7380   25.0680 H   0  0  0  0  0  0  0  0  0  0  0  0
   35.8770   44.1410   16.1220 C   0  0  0  0  0  2  0  0  0  0  0  0
   35.8050   45.3430   15.1560 C   0  0  1  0  0  3  0  0  0  0  0  0
   35.7440   46.6280   15.9390 N   0  0  0  0  0  4  0  0  0  0  0  0
   36.5850   46.7940   16.5050 H   0  0  0  0  0  0  0  0  0  0  0  0
   35.6020   47.4400   15.3240 H   0  0  0  0  0  0  0  0  0  0  0  0
   34.9390   46.6000   16.5840 H   0  0  0  0  0  0  0  0  0  0  0  0
   36.9980   45.4040   14.1910 C   0  0  0  0  0  2  0  0  0  0  0  0
   37.9540   46.4900   14.5510 C   0  0  0  0  0  0  0  0  0  0  0  0
   38.1730   47.6440   13.8240 C   0  0  0  0  0  3  0  0  0  0  0  0
   39.1190   48.3910   14.4750 N   0  0  0  0  0  0  0  0  0  0  0  0
   39.5310   47.7410   15.6130 C   0  0  0  0  0  0  0  0  0  0  0  0
   40.4760   48.1290   16.5710 C   0  0  0  0  0  3  0  0  0  0  0  0
   40.6900   47.2720   17.6520 C   0  0  0  0  0  3  0  0  0  0  0  0
   39.9830   46.0800   17.7710 C   0  0  0  0  0  3  0  0  0  0  0  0
   39.0400   45.7060   16.8050 C   0  0  0  0  0  3  0  0  0  0  0  0
   38.8100   46.5500   15.6980 C   0  0  0  0  0  0  0  0  0  0  0  0
   39.4640   49.2950   14.1770 H   0  0  0  0  0  0  0  0  0  0  0  0
  1  6  1  0  0  0  0
  2  3  1  0  0  0  0
  2 15  1  0  0  0  0
  4  3  2  0  0  0  0
  5  4  1  0  0  0  0
  6  5  2  0  0  0  0
  6  7  1  0  0  0  0
  7  2  2  0  0  0  0
  8  9  1  0  0  0  0
  9 17  1  0  0  0  0
  9 10  2  0  0  0  0
 10 11  1  0  0  0  0
 11 18  1  0  0  0  0
 12 13  1  0  0  0  0
 12 11  1  0  0  0  0
 14 13  2  0  0  0  0
 15 14  1  0  0  0  0
 16 15  2  0  0  0  0
 16 17  1  0  0  0  0
 17 12  2  0  0  0  0
 19  1  1  0  0  0  0
 20 25  1  6  0  0  0
 20 21  1  0  0  0  0
 20 19  1  0  0  0  0
 21 22  1  0  0  0  0
 21 24  1  0  0  0  0
 23 21  1  0  0  0  0
 25 26  1  0  0  0  0
 26 34  1  0  0  0  0
 27 28  1  0  0  0  0
 27 26  2  0  0  0  0
 28 29  1  0  0  0  0
 29 34  2  0  0  0  0
 29 30  1  0  0  0  0
 30 31  2  0  0  0  0
 31 32  1  0  0  0  0
 33 32  2  0  0  0  0
 34 33  1  0  0  0  0
 35 28  1  0  0  0  0
M  END
>  <minimizedAffinity>
-10.3804865

$$$$
