
 OpenBabel11232419023D

 35 39  0  0  1  0  0  0  0  0999 V2000
   35.4900   45.6920   16.1540 O   0  0  0  0  0  0  0  0  0  0  0  0
   35.5860   43.3650   19.0570 C   0  0  0  0  0  0  0  0  0  0  0  0
   34.5360   42.5600   18.6240 C   0  0  0  0  0  3  0  0  0  0  0  0
   33.8720   42.7490   17.4610 N   0  0  0  0  0  0  0  0  0  0  0  0
   34.2790   43.7740   16.6830 C   0  0  0  0  0  3  0  0  0  0  0  0
   35.3000   44.6560   17.0200 C   0  0  0  0  0  0  0  0  0  0  0  0
   35.9710   44.4260   18.2180 C   0  0  0  0  0  3  0  0  0  0  0  0
   39.0380   46.0480   22.8350 C   0  0  0  0  0  1  0  0  0  0  0  0
   38.5510   44.6580   23.0040 C   0  0  0  0  0  0  0  0  0  0  0  0
   38.9220   43.9410   24.0710 N   0  0  0  0  0  0  0  0  0  0  0  0
   38.2930   42.7640   23.9080 N   0  0  0  0  0  0  0  0  0  0  0  0
   37.5480   42.6840   22.7600 C   0  0  0  0  0  0  0  0  0  0  0  0
   36.7670   41.6560   22.2290 C   0  0  0  0  0  3  0  0  0  0  0  0
   36.1240   41.9080   21.0090 C   0  0  0  0  0  3  0  0  0  0  0  0
   36.2520   43.1370   20.3420 C   0  0  0  0  0  0  0  0  0  0  0  0
   37.0390   44.1530   20.9200 C   0  0  0  0  0  3  0  0  0  0  0  0
   37.6980   43.9180   22.1420 C   0  0  0  0  0  0  0  0  0  0  0  0
   38.4160   42.0520   24.6190 H   0  0  0  0  0  0  0  0  0  0  0  0
   36.4340   46.7270   16.4510 C   0  0  0  0  0  2  0  0  0  0  0  0
   37.1510   47.1760   15.1600 C   0  0  1  0  0  3  0  0  0  0  0  0
   37.3750   48.6650   15.1900 N   0  0  0  0  0  4  0  0  0  0  0  0
   37.9930   48.9640   15.9540 H   0  0  0  0  0  0  0  0  0  0  0  0
   37.7670   49.0070   14.3030 H   0  0  0  0  0  0  0  0  0  0  0  0
   36.4720   49.1460   15.3190 H   0  0  0  0  0  0  0  0  0  0  0  0
   38.5010   46.4740   14.9530 C   0  0  0  0  0  2  0  0  0  0  0  0
   39.5190   46.9130   15.9500 C   0  0  0  0  0  0  0  0  0  0  0  0
   40.3300   48.0270   15.8370 C   0  0  0  0  0  3  0  0  0  0  0  0
   41.1270   48.0950   16.9480 N   0  0  0  0  0  0  0  0  0  0  0  0
   40.8600   47.0390   17.7850 C   0  0  0  0  0  0  0  0  0  0  0  0
   41.4330   46.7100   19.0190 C   0  0  0  0  0  3  0  0  0  0  0  0
   40.9530   45.5750   19.6740 C   0  0  0  0  0  3  0  0  0  0  0  0
   39.9380   44.8030   19.1160 C   0  0  0  0  0  3  0  0  0  0  0  0
   39.3740   45.1450   17.8810 C   0  0  0  0  0  3  0  0  0  0  0  0
   39.8460   46.2850   17.1950 C   0  0  0  0  0  0  0  0  0  0  0  0
   41.8100   48.8180   17.1400 H   0  0  0  0  0  0  0  0  0  0  0  0
  1 19  1  0  0  0  0
  1  6  1  0  0  0  0
  2 15  1  0  0  0  0
  3  2  1  0  0  0  0
  4  3  2  0  0  0  0
  5  6  2  0  0  0  0
  5  4  1  0  0  0  0
  6  7  1  0  0  0  0
  7  2  2  0  0  0  0
  8  9  1  0  0  0  0
  9 10  2  0  0  0  0
 11 10  1  0  0  0  0
 11 18  1  0  0  0  0
 12 11  1  0  0  0  0
 13 12  1  0  0  0  0
 14 13  2  0  0  0  0
 15 16  2  0  0  0  0
 15 14  1  0  0  0  0
 16 17  1  0  0  0  0
 17 12  2  0  0  0  0
 17  9  1  0  0  0  0
 20 25  1  1  0  0  0
 20 21  1  0  0  0  0
 20 19  1  0  0  0  0
 21 24  1  0  0  0  0
 21 22  1  0  0  0  0
 23 21  1  0  0  0  0
 25 26  1  0  0  0  0
 26 34  1  0  0  0  0
 27 26  2  0  0  0  0
 27 28  1  0  0  0  0
 28 35  1  0  0  0  0
 28 29  1  0  0  0  0
 29 30  1  0  0  0  0
 30 31  2  0  0  0  0
 32 31  1  0  0  0  0
 33 32  2  0  0  0  0
 34 29  2  0  0  0  0
 34 33  1  0  0  0  0
M  END
>  <minimizedAffinity>
-11.2272701

$$$$
