
 OpenBabel11232419023D

 35 39  0  0  1  0  0  0  0  0999 V2000
   41.3900   45.2210   20.7720 O   0  0  0  0  0  0  0  0  0  0  0  0
   39.7190   46.5320   17.7170 C   0  0  0  0  0  0  0  0  0  0  0  0
   40.7420   47.4080   17.3650 C   0  0  0  0  0  3  0  0  0  0  0  0
   41.8960   47.5350   18.0560 N   0  0  0  0  0  0  0  0  0  0  0  0
   42.0520   46.7440   19.1400 C   0  0  0  0  0  3  0  0  0  0  0  0
   41.0920   45.8490   19.6000 C   0  0  0  0  0  0  0  0  0  0  0  0
   39.9190   45.7340   18.8570 C   0  0  0  0  0  3  0  0  0  0  0  0
   34.6440   43.7670   17.7080 C   0  0  0  0  0  1  0  0  0  0  0  0
   35.0450   44.7610   16.6830 C   0  0  0  0  0  0  0  0  0  0  0  0
   34.2210   45.0520   15.6700 N   0  0  0  0  0  0  0  0  0  0  0  0
   34.8870   45.9810   14.9640 N   0  0  0  0  0  0  0  0  0  0  0  0
   36.1250   46.2840   15.4690 C   0  0  0  0  0  0  0  0  0  0  0  0
   37.1130   47.1710   15.0380 C   0  0  0  0  0  3  0  0  0  0  0  0
   38.2870   47.2400   15.8010 C   0  0  0  0  0  3  0  0  0  0  0  0
   38.4710   46.4560   16.9500 C   0  0  0  0  0  0  0  0  0  0  0  0
   37.4430   45.5830   17.3590 C   0  0  0  0  0  3  0  0  0  0  0  0
   36.2580   45.4960   16.6030 C   0  0  0  0  0  0  0  0  0  0  0  0
   34.4410   46.3690   14.1410 H   0  0  0  0  0  0  0  0  0  0  0  0
   42.0210   45.9340   21.8410 C   0  0  0  0  0  2  0  0  0  0  0  0
   41.1330   45.8920   23.1030 C   0  0  1  0  0  3  0  0  0  0  0  0
   41.4840   47.0380   24.0160 N   0  0  0  0  0  4  0  0  0  0  0  0
   41.3030   47.9570   23.5950 H   0  0  0  0  0  0  0  0  0  0  0  0
   40.9730   46.9820   24.9060 H   0  0  0  0  0  0  0  0  0  0  0  0
   42.4880   46.9970   24.2480 H   0  0  0  0  0  0  0  0  0  0  0  0
   39.6340   45.9550   22.7780 C   0  0  0  0  0  2  0  0  0  0  0  0
   38.9220   44.7060   23.1720 C   0  0  0  0  0  0  0  0  0  0  0  0
   38.9790   44.1030   24.4140 C   0  0  0  0  0  3  0  0  0  0  0  0
   38.1930   42.9810   24.3870 N   0  0  0  0  0  0  0  0  0  0  0  0
   37.6280   42.8330   23.1430 C   0  0  0  0  0  0  0  0  0  0  0  0
   36.7660   41.8380   22.6670 C   0  0  0  0  0  3  0  0  0  0  0  0
   36.3230   41.9430   21.3480 C   0  0  0  0  0  3  0  0  0  0  0  0
   36.7230   43.0030   20.5410 C   0  0  0  0  0  3  0  0  0  0  0  0
   37.5850   43.9920   21.0320 C   0  0  0  0  0  3  0  0  0  0  0  0
   38.0540   43.9060   22.3600 C   0  0  0  0  0  0  0  0  0  0  0  0
   38.0370   42.3520   25.1640 H   0  0  0  0  0  0  0  0  0  0  0  0
  1 19  1  0  0  0  0
  2  7  1  0  0  0  0
  3  2  2  0  0  0  0
  3  4  1  0  0  0  0
  4  5  2  0  0  0  0
  5  6  1  0  0  0  0
  6  1  1  0  0  0  0
  7  6  2  0  0  0  0
  9  8  1  0  0  0  0
 10  9  2  0  0  0  0
 11 12  1  0  0  0  0
 11 10  1  0  0  0  0
 12 17  1  0  0  0  0
 13 12  2  0  0  0  0
 13 14  1  0  0  0  0
 14 15  2  0  0  0  0
 15 16  1  0  0  0  0
 15  2  1  0  0  0  0
 17  9  1  0  0  0  0
 17 16  2  0  0  0  0
 18 11  1  0  0  0  0
 20 19  1  6  0  0  0
 20 21  1  0  0  0  0
 21 24  1  0  0  0  0
 21 23  1  0  0  0  0
 22 21  1  0  0  0  0
 25 20  1  0  0  0  0
 25 26  1  0  0  0  0
 26 27  2  0  0  0  0
 28 27  1  0  0  0  0
 28 35  1  0  0  0  0
 29 28  1  0  0  0  0
 30 29  1  0  0  0  0
 31 30  2  0  0  0  0
 32 33  2  0  0  0  0
 32 31  1  0  0  0  0
 33 34  1  0  0  0  0
 34 29  2  0  0  0  0
 34 26  1  0  0  0  0
M  END
>  <minimizedAffinity>
-10.7720938

$$$$
