
 OpenBabel11232419023D

 35 39  0  0  1  0  0  0  0  0999 V2000
   35.4900   45.6920   16.1540 O   0  0  0  0  0  0  0  0  0  0  0  0
   35.5860   43.3650   19.0570 C   0  0  0  0  0  0  0  0  0  0  0  0
   34.5360   42.5600   18.6240 C   0  0  0  0  0  3  0  0  0  0  0  0
   33.8720   42.7490   17.4610 N   0  0  0  0  0  0  0  0  0  0  0  0
   34.2790   43.7740   16.6830 C   0  0  0  0  0  3  0  0  0  0  0  0
   35.3000   44.6560   17.0200 C   0  0  0  0  0  0  0  0  0  0  0  0
   35.9710   44.4260   18.2180 C   0  0  0  0  0  3  0  0  0  0  0  0
   39.0380   46.0480   22.8350 C   0  0  0  0  0  1  0  0  0  0  0  0
   38.5510   44.6580   23.0040 C   0  0  0  0  0  0  0  0  0  0  0  0
   38.9220   43.9410   24.0710 N   0  0  0  0  0  0  0  0  0  0  0  0
   38.2930   42.7640   23.9080 N   0  0  0  0  0  0  0  0  0  0  0  0
   37.5480   42.6840   22.7600 C   0  0  0  0  0  0  0  0  0  0  0  0
   36.7670   41.6560   22.2290 C   0  0  0  0  0  3  0  0  0  0  0  0
   36.1240   41.9080   21.0090 C   0  0  0  0  0  3  0  0  0  0  0  0
   36.2520   43.1370   20.3420 C   0  0  0  0  0  0  0  0  0  0  0  0
   37.0390   44.1530   20.9200 C   0  0  0  0  0  3  0  0  0  0  0  0
   37.6980   43.9180   22.1420 C   0  0  0  0  0  0  0  0  0  0  0  0
   38.4160   42.0520   24.6190 H   0  0  0  0  0  0  0  0  0  0  0  0
   36.4340   46.7270   16.4510 C   0  0  0  0  0  2  0  0  0  0  0  0
   37.1510   47.1760   15.1600 C   0  0  1  0  0  3  0  0  0  0  0  0
   37.3750   48.6650   15.1900 N   0  0  0  0  0  4  0  0  0  0  0  0
   37.9930   48.9640   15.9540 H   0  0  0  0  0  0  0  0  0  0  0  0
   37.7670   49.0070   14.3030 H   0  0  0  0  0  0  0  0  0  0  0  0
   36.4720   49.1460   15.3190 H   0  0  0  0  0  0  0  0  0  0  0  0
   38.5010   46.4740   14.9530 C   0  0  0  0  0  2  0  0  0  0  0  0
   39.5190   46.9130   15.9500 C   0  0  0  0  0  0  0  0  0  0  0  0
   40.3300   48.0270   15.8370 C   0  0  0  0  0  3  0  0  0  0  0  0
   41.1270   48.0950   16.9480 N   0  0  0  0  0  0  0  0  0  0  0  0
   40.8600   47.0390   17.7850 C   0  0  0  0  0  0  0  0  0  0  0  0
   41.4330   46.7100   19.0190 C   0  0  0  0  0  3  0  0  0  0  0  0
   40.9530   45.5750   19.6740 C   0  0  0  0  0  3  0  0  0  0  0  0
   39.9380   44.8030   19.1160 C   0  0  0  0  0  3  0  0  0  0  0  0
   39.3740   45.1450   17.8810 C   0  0  0  0  0  3  0  0  0  0  0  0
   39.8460   46.2850   17.1950 C   0  0  0  0  0  0  0  0  0  0  0  0
   41.8100   48.8180   17.1400 H   0  0  0  0  0  0  0  0  0  0  0  0
  1 19  1  0  0  0  0
  1  6  1  0  0  0  0
  2 15  1  0  0  0  0
  3  2  1  0  0  0  0
  4  3  2  0  0  0  0
  5  6  2  0  0  0  0
  5  4  1  0  0  0  0
  6  7  1  0  0  0  0
  7  2  2  0  0  0  0
  8  9  1  0  0  0  0
  9 10  2  0  0  0  0
 11 10  1  0  0  0  0
 11 18  1  0  0  0  0
 12 11  1  0  0  0  0
 13 12  1  0  0  0  0
 14 13  2  0  0  0  0
 15 16  2  0  0  0  0
 15 14  1  0  0  0  0
 16 17  1  0  0  0  0
 17 12  2  0  0  0  0
 17  9  1  0  0  0  0
 20 25  1  1  0  0  0
 20 21  1  0  0  0  0
 20 19  1  0  0  0  0
 21 24  1  0  0  0  0
 21 22  1  0  0  0  0
 23 21  1  0  0  0  0
 25 26  1  0  0  0  0
 26 34  1  0  0  0  0
 27 26  2  0  0  0  0
 27 28  1  0  0  0  0
 28 35  1  0  0  0  0
 28 29  1  0  0  0  0
 29 30  1  0  0  0  0
 30 31  2  0  0  0  0
 32 31  1  0  0  0  0
 33 32  2  0  0  0  0
 34 29  2  0  0  0  0
 34 33  1  0  0  0  0
M  END
>  <minimizedAffinity>
-11.2272701

$$$$

 OpenBabel11232419023D

 35 39  0  0  1  0  0  0  0  0999 V2000
   33.3260   43.3900   17.1820 O   0  0  0  0  0  0  0  0  0  0  0  0
   36.6090   44.0590   18.8040 C   0  0  0  0  0  0  0  0  0  0  0  0
   36.3700   43.2730   19.9280 C   0  0  0  0  0  3  0  0  0  0  0  0
   35.2380   42.5600   20.1220 N   0  0  0  0  0  0  0  0  0  0  0  0
   34.3050   42.6140   19.1480 C   0  0  0  0  0  3  0  0  0  0  0  0
   34.4220   43.3810   17.9930 C   0  0  0  0  0  0  0  0  0  0  0  0
   35.6050   44.0940   17.8190 C   0  0  0  0  0  3  0  0  0  0  0  0
   39.0200   47.9800   15.3100 C   0  0  0  0  0  1  0  0  0  0  0  0
   39.6900   47.4160   16.5080 C   0  0  0  0  0  0  0  0  0  0  0  0
   40.9330   47.7980   16.8240 N   0  0  0  0  0  0  0  0  0  0  0  0
   41.2070   47.1160   17.9490 N   0  0  0  0  0  0  0  0  0  0  0  0
   40.1960   46.2860   18.3590 C   0  0  0  0  0  0  0  0  0  0  0  0
   40.0880   45.4200   19.4490 C   0  0  0  0  0  3  0  0  0  0  0  0
   38.8910   44.7020   19.5770 C   0  0  0  0  0  3  0  0  0  0  0  0
   37.8400   44.8390   18.6570 C   0  0  0  0  0  0  0  0  0  0  0  0
   37.9850   45.7350   17.5780 C   0  0  0  0  0  3  0  0  0  0  0  0
   39.1810   46.4610   17.4280 C   0  0  0  0  0  0  0  0  0  0  0  0
   42.1090   47.2600   18.3900 H   0  0  0  0  0  0  0  0  0  0  0  0
   32.5770   44.5940   16.9840 C   0  0  0  0  0  2  0  0  0  0  0  0
   31.0940   44.2570   16.7160 C   0  0  1  0  0  3  0  0  0  0  0  0
   30.4050   45.4390   16.0850 N   0  0  0  0  0  4  0  0  0  0  0  0
   30.7910   45.6860   15.1660 H   0  0  0  0  0  0  0  0  0  0  0  0
   29.3950   45.2760   15.9800 H   0  0  0  0  0  0  0  0  0  0  0  0
   30.5110   46.2640   16.6960 H   0  0  0  0  0  0  0  0  0  0  0  0
   30.9170   43.0330   15.8050 C   0  0  0  0  0  2  0  0  0  0  0  0
   29.9590   42.0440   16.3770 C   0  0  0  0  0  0  0  0  0  0  0  0
   28.6190   41.9430   16.0580 C   0  0  0  0  0  3  0  0  0  0  0  0
   28.0780   40.9160   16.7860 N   0  0  0  0  0  0  0  0  0  0  0  0
   29.0400   40.3470   17.5840 C   0  0  0  0  0  0  0  0  0  0  0  0
   28.9360   39.2820   18.4870 C   0  0  0  0  0  3  0  0  0  0  0  0
   30.0930   38.8920   19.1630 C   0  0  0  0  0  3  0  0  0  0  0  0
   31.3050   39.5400   18.9410 C   0  0  0  0  0  3  0  0  0  0  0  0
   31.3930   40.6030   18.0340 C   0  0  0  0  0  3  0  0  0  0  0  0
   30.2360   41.0220   17.3420 C   0  0  0  0  0  0  0  0  0  0  0  0
   27.1150   40.6070   16.7430 H   0  0  0  0  0  0  0  0  0  0  0  0
  1  6  1  0  0  0  0
  2  3  1  0  0  0  0
  3  4  2  0  0  0  0
  5  4  1  0  0  0  0
  6  5  2  0  0  0  0
  7  6  1  0  0  0  0
  7  2  2  0  0  0  0
  8  9  1  0  0  0  0
  9 10  2  0  0  0  0
  9 17  1  0  0  0  0
 10 11  1  0  0  0  0
 11 12  1  0  0  0  0
 11 18  1  0  0  0  0
 12 13  1  0  0  0  0
 13 14  2  0  0  0  0
 15  2  1  0  0  0  0
 15 14  1  0  0  0  0
 16 15  2  0  0  0  0
 17 16  1  0  0  0  0
 17 12  2  0  0  0  0
 19  1  1  0  0  0  0
 20 25  1  6  0  0  0
 20 19  1  0  0  0  0
 21 24  1  0  0  0  0
 21 20  1  0  0  0  0
 22 21  1  0  0  0  0
 23 21  1  0  0  0  0
 25 26  1  0  0  0  0
 26 34  1  0  0  0  0
 27 26  2  0  0  0  0
 27 28  1  0  0  0  0
 28 29  1  0  0  0  0
 29 30  1  0  0  0  0
 30 31  2  0  0  0  0
 32 31  1  0  0  0  0
 33 32  2  0  0  0  0
 34 29  2  0  0  0  0
 34 33  1  0  0  0  0
 35 28  1  0  0  0  0
M  END
>  <minimizedAffinity>
-11.0408058

$$$$

 OpenBabel11232419023D

 35 39  0  0  1  0  0  0  0  0999 V2000
   36.1340   44.0910   16.9700 O   0  0  0  0  0  0  0  0  0  0  0  0
   32.5800   43.2000   17.6210 C   0  0  0  0  0  0  0  0  0  0  0  0
   32.8380   42.4030   18.7330 C   0  0  0  0  0  3  0  0  0  0  0  0
   34.0740   42.2010   19.2430 N   0  0  0  0  0  0  0  0  0  0  0  0
   35.1000   42.8310   18.6330 C   0  0  0  0  0  3  0  0  0  0  0  0
   34.9670   43.6320   17.5040 C   0  0  0  0  0  0  0  0  0  0  0  0
   33.6800   43.8290   17.0110 C   0  0  0  0  0  3  0  0  0  0  0  0
   27.5500   40.3740   17.2790 C   0  0  0  0  0  1  0  0  0  0  0  0
   27.7870   41.7130   16.6880 C   0  0  0  0  0  0  0  0  0  0  0  0
   26.8120   42.3310   16.0120 N   0  0  0  0  0  0  0  0  0  0  0  0
   27.3620   43.5010   15.6430 N   0  0  0  0  0  0  0  0  0  0  0  0
   28.6670   43.6510   16.0340 C   0  0  0  0  0  0  0  0  0  0  0  0
   29.5790   44.6920   15.8480 C   0  0  0  0  0  3  0  0  0  0  0  0
   30.8610   44.5220   16.3880 C   0  0  0  0  0  3  0  0  0  0  0  0
   31.2240   43.3600   17.0870 C   0  0  0  0  0  0  0  0  0  0  0  0
   30.2690   42.3390   17.2640 C   0  0  0  0  0  3  0  0  0  0  0  0
   28.9770   42.4880   16.7250 C   0  0  0  0  0  0  0  0  0  0  0  0
   26.7910   44.1560   15.1220 H   0  0  0  0  0  0  0  0  0  0  0  0
   36.1850   44.5440   15.6120 C   0  0  0  0  0  2  0  0  0  0  0  0
   37.4940   45.3250   15.3640 C   0  0  1  0  0  3  0  0  0  0  0  0
   37.6510   45.6080   13.8930 N   0  0  0  0  0  4  0  0  0  0  0  0
   36.9080   46.2090   13.5170 H   0  0  0  0  0  0  0  0  0  0  0  0
   38.5580   46.0460   13.6860 H   0  0  0  0  0  0  0  0  0  0  0  0
   37.6230   44.7200   13.3670 H   0  0  0  0  0  0  0  0  0  0  0  0
   37.5500   46.6520   16.1350 C   0  0  0  0  0  2  0  0  0  0  0  0
   38.9020   46.9070   16.7110 C   0  0  0  0  0  0  0  0  0  0  0  0
   39.8280   47.8090   16.2250 C   0  0  0  0  0  3  0  0  0  0  0  0
   40.9410   47.7570   17.0210 N   0  0  0  0  0  0  0  0  0  0  0  0
   40.7640   46.8280   18.0180 C   0  0  0  0  0  0  0  0  0  0  0  0
   41.6330   46.4440   19.0460 C   0  0  0  0  0  3  0  0  0  0  0  0
   41.1840   45.4750   19.9440 C   0  0  0  0  0  3  0  0  0  0  0  0
   39.9150   44.9170   19.8210 C   0  0  0  0  0  3  0  0  0  0  0  0
   39.0570   45.3120   18.7870 C   0  0  0  0  0  3  0  0  0  0  0  0
   39.4890   46.2860   17.8610 C   0  0  0  0  0  0  0  0  0  0  0  0
   41.7740   48.3210   16.9080 H   0  0  0  0  0  0  0  0  0  0  0  0
  1  6  1  0  0  0  0
  2  3  1  0  0  0  0
  3  4  2  0  0  0  0
  5  4  1  0  0  0  0
  6  5  2  0  0  0  0
  7  6  1  0  0  0  0
  7  2  2  0  0  0  0
  9 17  1  0  0  0  0
  9  8  1  0  0  0  0
 10  9  2  0  0  0  0
 11 10  1  0  0  0  0
 11 12  1  0  0  0  0
 12 17  1  0  0  0  0
 13 12  2  0  0  0  0
 13 14  1  0  0  0  0
 14 15  2  0  0  0  0
 15 16  1  0  0  0  0
 15  2  1  0  0  0  0
 17 16  2  0  0  0  0
 18 11  1  0  0  0  0
 19  1  1  0  0  0  0
 20 19  1  6  0  0  0
 20 25  1  0  0  0  0
 21 20  1  0  0  0  0
 22 21  1  0  0  0  0
 23 21  1  0  0  0  0
 24 21  1  0  0  0  0
 25 26  1  0  0  0  0
 26 34  1  0  0  0  0
 27 26  2  0  0  0  0
 27 28  1  0  0  0  0
 28 29  1  0  0  0  0
 29 30  1  0  0  0  0
 30 31  2  0  0  0  0
 32 31  1  0  0  0  0
 33 32  2  0  0  0  0
 34 29  2  0  0  0  0
 34 33  1  0  0  0  0
 35 28  1  0  0  0  0
M  END
>  <minimizedAffinity>
-10.8117857

$$$$

 OpenBabel11232419023D

 35 39  0  0  1  0  0  0  0  0999 V2000
   41.6250   45.3430   20.8410 O   0  0  0  0  0  0  0  0  0  0  0  0
   39.7070   46.3950   17.8310 C   0  0  0  0  0  0  0  0  0  0  0  0
   40.6400   47.3300   17.3920 C   0  0  0  0  0  3  0  0  0  0  0  0
   41.8140   47.5720   18.0160 N   0  0  0  0  0  0  0  0  0  0  0  0
   42.0840   46.8420   19.1190 C   0  0  0  0  0  3  0  0  0  0  0  0
   41.2210   45.8970   19.6630 C   0  0  0  0  0  0  0  0  0  0  0  0
   40.0250   45.6630   18.9890 C   0  0  0  0  0  3  0  0  0  0  0  0
   37.1390   47.5600   12.7870 C   0  0  0  0  0  1  0  0  0  0  0  0
   36.4770   46.8460   13.9060 C   0  0  0  0  0  0  0  0  0  0  0  0
   35.2050   46.4460   13.7890 N   0  0  0  0  0  0  0  0  0  0  0  0
   34.9470   45.8340   14.9570 N   0  0  0  0  0  0  0  0  0  0  0  0
   35.9980   45.8460   15.8370 C   0  0  0  0  0  0  0  0  0  0  0  0
   36.1340   45.3360   17.1300 C   0  0  0  0  0  3  0  0  0  0  0  0
   37.3700   45.5240   17.7640 C   0  0  0  0  0  3  0  0  0  0  0  0
   38.4320   46.1930   17.1360 C   0  0  0  0  0  0  0  0  0  0  0  0
   38.2580   46.6800   15.8250 C   0  0  0  0  0  3  0  0  0  0  0  0
   37.0220   46.5070   15.1730 C   0  0  0  0  0  0  0  0  0  0  0  0
   34.0280   45.4290   15.0940 H   0  0  0  0  0  0  0  0  0  0  0  0
   42.0080   46.1730   21.9440 C   0  0  0  0  0  2  0  0  0  0  0  0
   41.1840   45.8030   23.1960 C   0  0  1  0  0  3  0  0  0  0  0  0
   41.5790   46.6870   24.3500 N   0  0  0  0  0  4  0  0  0  0  0  0
   41.3770   47.6800   24.1840 H   0  0  0  0  0  0  0  0  0  0  0  0
   41.1130   46.4020   25.2210 H   0  0  0  0  0  0  0  0  0  0  0  0
   42.5940   46.6030   24.5150 H   0  0  0  0  0  0  0  0  0  0  0  0
   39.6700   45.9260   22.9700 C   0  0  0  0  0  2  0  0  0  0  0  0
   38.9520   44.6560   23.2780 C   0  0  0  0  0  0  0  0  0  0  0  0
   39.0120   43.9660   24.4730 C   0  0  0  0  0  3  0  0  0  0  0  0
   38.2190   42.8530   24.3700 N   0  0  0  0  0  0  0  0  0  0  0  0
   37.6470   42.7970   23.1220 C   0  0  0  0  0  0  0  0  0  0  0  0
   36.7770   41.8430   22.5810 C   0  0  0  0  0  3  0  0  0  0  0  0
   36.3290   42.0450   21.2740 C   0  0  0  0  0  3  0  0  0  0  0  0
   36.7310   43.1580   20.5430 C   0  0  0  0  0  3  0  0  0  0  0  0
   37.6010   44.1040   21.0990 C   0  0  0  0  0  3  0  0  0  0  0  0
   38.0760   43.9210   22.4150 C   0  0  0  0  0  0  0  0  0  0  0  0
   38.0630   42.1710   25.1020 H   0  0  0  0  0  0  0  0  0  0  0  0
  1 19  1  0  0  0  0
  2  7  1  0  0  0  0
  3  2  2  0  0  0  0
  3  4  1  0  0  0  0
  4  5  2  0  0  0  0
  5  6  1  0  0  0  0
  6  1  1  0  0  0  0
  7  6  2  0  0  0  0
  8  9  1  0  0  0  0
  9 17  1  0  0  0  0
 10  9  2  0  0  0  0
 10 11  1  0  0  0  0
 11 18  1  0  0  0  0
 11 12  1  0  0  0  0
 12 13  1  0  0  0  0
 13 14  2  0  0  0  0
 15 14  1  0  0  0  0
 15  2  1  0  0  0  0
 16 15  2  0  0  0  0
 17 16  1  0  0  0  0
 17 12  2  0  0  0  0
 20 19  1  6  0  0  0
 20 21  1  0  0  0  0
 21 24  1  0  0  0  0
 21 23  1  0  0  0  0
 22 21  1  0  0  0  0
 25 20  1  0  0  0  0
 25 26  1  0  0  0  0
 26 27  2  0  0  0  0
 28 27  1  0  0  0  0
 28 35  1  0  0  0  0
 29 28  1  0  0  0  0
 30 29  1  0  0  0  0
 31 30  2  0  0  0  0
 32 33  2  0  0  0  0
 32 31  1  0  0  0  0
 33 34  1  0  0  0  0
 34 29  2  0  0  0  0
 34 26  1  0  0  0  0
M  END
>  <minimizedAffinity>
-10.8029966

$$$$

 OpenBabel11232419023D

 35 39  0  0  1  0  0  0  0  0999 V2000
   41.3900   45.2210   20.7720 O   0  0  0  0  0  0  0  0  0  0  0  0
   39.7190   46.5320   17.7170 C   0  0  0  0  0  0  0  0  0  0  0  0
   40.7420   47.4080   17.3650 C   0  0  0  0  0  3  0  0  0  0  0  0
   41.8960   47.5350   18.0560 N   0  0  0  0  0  0  0  0  0  0  0  0
   42.0520   46.7440   19.1400 C   0  0  0  0  0  3  0  0  0  0  0  0
   41.0920   45.8490   19.6000 C   0  0  0  0  0  0  0  0  0  0  0  0
   39.9190   45.7340   18.8570 C   0  0  0  0  0  3  0  0  0  0  0  0
   34.6440   43.7670   17.7080 C   0  0  0  0  0  1  0  0  0  0  0  0
   35.0450   44.7610   16.6830 C   0  0  0  0  0  0  0  0  0  0  0  0
   34.2210   45.0520   15.6700 N   0  0  0  0  0  0  0  0  0  0  0  0
   34.8870   45.9810   14.9640 N   0  0  0  0  0  0  0  0  0  0  0  0
   36.1250   46.2840   15.4690 C   0  0  0  0  0  0  0  0  0  0  0  0
   37.1130   47.1710   15.0380 C   0  0  0  0  0  3  0  0  0  0  0  0
   38.2870   47.2400   15.8010 C   0  0  0  0  0  3  0  0  0  0  0  0
   38.4710   46.4560   16.9500 C   0  0  0  0  0  0  0  0  0  0  0  0
   37.4430   45.5830   17.3590 C   0  0  0  0  0  3  0  0  0  0  0  0
   36.2580   45.4960   16.6030 C   0  0  0  0  0  0  0  0  0  0  0  0
   34.4410   46.3690   14.1410 H   0  0  0  0  0  0  0  0  0  0  0  0
   42.0210   45.9340   21.8410 C   0  0  0  0  0  2  0  0  0  0  0  0
   41.1330   45.8920   23.1030 C   0  0  1  0  0  3  0  0  0  0  0  0
   41.4840   47.0380   24.0160 N   0  0  0  0  0  4  0  0  0  0  0  0
   41.3030   47.9570   23.5950 H   0  0  0  0  0  0  0  0  0  0  0  0
   40.9730   46.9820   24.9060 H   0  0  0  0  0  0  0  0  0  0  0  0
   42.4880   46.9970   24.2480 H   0  0  0  0  0  0  0  0  0  0  0  0
   39.6340   45.9550   22.7780 C   0  0  0  0  0  2  0  0  0  0  0  0
   38.9220   44.7060   23.1720 C   0  0  0  0  0  0  0  0  0  0  0  0
   38.9790   44.1030   24.4140 C   0  0  0  0  0  3  0  0  0  0  0  0
   38.1930   42.9810   24.3870 N   0  0  0  0  0  0  0  0  0  0  0  0
   37.6280   42.8330   23.1430 C   0  0  0  0  0  0  0  0  0  0  0  0
   36.7660   41.8380   22.6670 C   0  0  0  0  0  3  0  0  0  0  0  0
   36.3230   41.9430   21.3480 C   0  0  0  0  0  3  0  0  0  0  0  0
   36.7230   43.0030   20.5410 C   0  0  0  0  0  3  0  0  0  0  0  0
   37.5850   43.9920   21.0320 C   0  0  0  0  0  3  0  0  0  0  0  0
   38.0540   43.9060   22.3600 C   0  0  0  0  0  0  0  0  0  0  0  0
   38.0370   42.3520   25.1640 H   0  0  0  0  0  0  0  0  0  0  0  0
  1 19  1  0  0  0  0
  2  7  1  0  0  0  0
  3  2  2  0  0  0  0
  3  4  1  0  0  0  0
  4  5  2  0  0  0  0
  5  6  1  0  0  0  0
  6  1  1  0  0  0  0
  7  6  2  0  0  0  0
  9  8  1  0  0  0  0
 10  9  2  0  0  0  0
 11 12  1  0  0  0  0
 11 10  1  0  0  0  0
 12 17  1  0  0  0  0
 13 12  2  0  0  0  0
 13 14  1  0  0  0  0
 14 15  2  0  0  0  0
 15 16  1  0  0  0  0
 15  2  1  0  0  0  0
 17  9  1  0  0  0  0
 17 16  2  0  0  0  0
 18 11  1  0  0  0  0
 20 19  1  6  0  0  0
 20 21  1  0  0  0  0
 21 24  1  0  0  0  0
 21 23  1  0  0  0  0
 22 21  1  0  0  0  0
 25 20  1  0  0  0  0
 25 26  1  0  0  0  0
 26 27  2  0  0  0  0
 28 27  1  0  0  0  0
 28 35  1  0  0  0  0
 29 28  1  0  0  0  0
 30 29  1  0  0  0  0
 31 30  2  0  0  0  0
 32 33  2  0  0  0  0
 32 31  1  0  0  0  0
 33 34  1  0  0  0  0
 34 29  2  0  0  0  0
 34 26  1  0  0  0  0
M  END
>  <minimizedAffinity>
-10.7720938

$$$$

 OpenBabel11232419023D

 35 39  0  0  1  0  0  0  0  0999 V2000
   34.4650   42.4520   18.6730 O   0  0  0  0  0  0  0  0  0  0  0  0
   37.6130   44.3390   19.2880 C   0  0  0  0  0  0  0  0  0  0  0  0
   37.7560   43.9410   20.6150 C   0  0  0  0  0  3  0  0  0  0  0  0
   36.9060   43.1000   21.2440 N   0  0  0  0  0  0  0  0  0  0  0  0
   35.8740   42.6160   20.5210 C   0  0  0  0  0  3  0  0  0  0  0  0
   35.6170   42.9580   19.1970 C   0  0  0  0  0  0  0  0  0  0  0  0
   36.5190   43.8180   18.5750 C   0  0  0  0  0  3  0  0  0  0  0  0
   37.9300   48.0200   14.8440 C   0  0  0  0  0  1  0  0  0  0  0  0
   39.0450   47.7660   15.7880 C   0  0  0  0  0  0  0  0  0  0  0  0
   40.2160   48.3930   15.6280 N   0  0  0  0  0  0  0  0  0  0  0  0
   40.9670   47.9460   16.6500 N   0  0  0  0  0  0  0  0  0  0  0  0
   40.3320   47.0340   17.4510 C   0  0  0  0  0  0  0  0  0  0  0  0
   40.7560   46.3400   18.5870 C   0  0  0  0  0  3  0  0  0  0  0  0
   39.8380   45.4630   19.1790 C   0  0  0  0  0  3  0  0  0  0  0  0
   38.5450   45.2810   18.6620 C   0  0  0  0  0  0  0  0  0  0  0  0
   38.1530   46.0110   17.5220 C   0  0  0  0  0  3  0  0  0  0  0  0
   39.0630   46.8940   16.9090 C   0  0  0  0  0  0  0  0  0  0  0  0
   41.9110   48.3040   16.7430 H   0  0  0  0  0  0  0  0  0  0  0  0
   34.0920   42.7390   17.3210 C   0  0  0  0  0  2  0  0  0  0  0  0
   32.7920   43.5730   17.2960 C   0  0  1  0  0  3  0  0  0  0  0  0
   33.0640   44.9610   17.8130 N   0  0  0  0  0  4  0  0  0  0  0  0
   33.7270   45.4850   17.2280 H   0  0  0  0  0  0  0  0  0  0  0  0
   32.1990   45.5100   17.8950 H   0  0  0  0  0  0  0  0  0  0  0  0
   33.4690   44.9020   18.7600 H   0  0  0  0  0  0  0  0  0  0  0  0
   32.1770   43.6750   15.8930 C   0  0  0  0  0  2  0  0  0  0  0  0
   30.6870   43.6660   15.9330 C   0  0  0  0  0  0  0  0  0  0  0  0
   29.8650   44.7230   15.5940 C   0  0  0  0  0  3  0  0  0  0  0  0
   28.5630   44.3280   15.7580 N   0  0  0  0  0  0  0  0  0  0  0  0
   28.5180   43.0320   16.2090 C   0  0  0  0  0  0  0  0  0  0  0  0
   27.4110   42.2300   16.5150 C   0  0  0  0  0  3  0  0  0  0  0  0
   27.6560   40.9240   16.9420 C   0  0  0  0  0  3  0  0  0  0  0  0
   28.9560   40.4400   17.0550 C   0  0  0  0  0  3  0  0  0  0  0  0
   30.0530   41.2540   16.7450 C   0  0  0  0  0  3  0  0  0  0  0  0
   29.8330   42.5810   16.3170 C   0  0  0  0  0  0  0  0  0  0  0  0
   27.7470   44.8970   15.5700 H   0  0  0  0  0  0  0  0  0  0  0  0
  1  6  1  0  0  0  0
  2  3  1  0  0  0  0
  3  4  2  0  0  0  0
  5  4  1  0  0  0  0
  6  5  2  0  0  0  0
  7  6  1  0  0  0  0
  7  2  2  0  0  0  0
  8  9  1  0  0  0  0
  9 17  1  0  0  0  0
 10  9  2  0  0  0  0
 10 11  1  0  0  0  0
 11 18  1  0  0  0  0
 11 12  1  0  0  0  0
 12 13  1  0  0  0  0
 13 14  2  0  0  0  0
 15 14  1  0  0  0  0
 15  2  1  0  0  0  0
 16 15  2  0  0  0  0
 17 12  2  0  0  0  0
 17 16  1  0  0  0  0
 19  1  1  0  0  0  0
 20 25  1  6  0  0  0
 20 19  1  0  0  0  0
 20 21  1  0  0  0  0
 21 23  1  0  0  0  0
 21 24  1  0  0  0  0
 22 21  1  0  0  0  0
 25 26  1  0  0  0  0
 26 34  1  0  0  0  0
 27 28  1  0  0  0  0
 27 26  2  0  0  0  0
 28 29  1  0  0  0  0
 29 34  2  0  0  0  0
 29 30  1  0  0  0  0
 30 31  2  0  0  0  0
 31 32  1  0  0  0  0
 33 32  2  0  0  0  0
 34 33  1  0  0  0  0
 35 28  1  0  0  0  0
M  END
>  <minimizedAffinity>
-10.6363258

$$$$

 OpenBabel11232419023D

 35 39  0  0  1  0  0  0  0  0999 V2000
   36.1090   42.1480   21.9070 O   0  0  0  0  0  0  0  0  0  0  0  0
   37.2930   44.2990   19.1100 C   0  0  0  0  0  0  0  0  0  0  0  0
   36.2550   43.9780   18.2390 C   0  0  0  0  0  3  0  0  0  0  0  0
   35.2360   43.1480   18.5560 N   0  0  0  0  0  0  0  0  0  0  0  0
   35.2370   42.6240   19.8000 C   0  0  0  0  0  3  0  0  0  0  0  0
   36.2290   42.8540   20.7470 C   0  0  0  0  0  0  0  0  0  0  0  0
   37.2590   43.7230   20.3920 C   0  0  0  0  0  3  0  0  0  0  0  0
   38.7000   48.0740   14.9670 C   0  0  0  0  0  1  0  0  0  0  0  0
   39.6000   47.7020   16.0850 C   0  0  0  0  0  0  0  0  0  0  0  0
   40.8240   48.2340   16.1680 N   0  0  0  0  0  0  0  0  0  0  0  0
   41.3380   47.6960   17.2880 N   0  0  0  0  0  0  0  0  0  0  0  0
   40.4990   46.8150   17.9190 C   0  0  0  0  0  0  0  0  0  0  0  0
   40.6540   46.0550   19.0800 C   0  0  0  0  0  3  0  0  0  0  0  0
   39.5780   45.2380   19.4560 C   0  0  0  0  0  3  0  0  0  0  0  0
   38.3930   45.1790   18.7060 C   0  0  0  0  0  0  0  0  0  0  0  0
   38.2730   45.9730   17.5470 C   0  0  0  0  0  3  0  0  0  0  0  0
   39.3440   46.7970   17.1500 C   0  0  0  0  0  0  0  0  0  0  0  0
   42.2730   47.9720   17.5670 H   0  0  0  0  0  0  0  0  0  0  0  0
   37.2560   41.8880   22.7240 C   0  0  0  0  0  2  0  0  0  0  0  0
   37.1430   42.6590   24.0570 C   0  0  1  0  0  3  0  0  0  0  0  0
   36.4220   41.8170   25.0770 N   0  0  0  0  0  4  0  0  0  0  0  0
   36.9250   40.9530   25.3120 H   0  0  0  0  0  0  0  0  0  0  0  0
   36.2500   42.3390   25.9450 H   0  0  0  0  0  0  0  0  0  0  0  0
   35.4980   41.5440   24.7060 H   0  0  0  0  0  0  0  0  0  0  0  0
   38.5090   43.0690   24.6250 C   0  0  0  0  0  2  0  0  0  0  0  0
   38.9240   44.4250   24.1640 C   0  0  0  0  0  0  0  0  0  0  0  0
   39.7940   44.6910   23.1240 C   0  0  0  0  0  3  0  0  0  0  0  0
   39.9220   46.0490   23.0050 N   0  0  0  0  0  0  0  0  0  0  0  0
   39.1570   46.6800   23.9560 C   0  0  0  0  0  0  0  0  0  0  0  0
   38.9880   48.0470   24.2040 C   0  0  0  0  0  3  0  0  0  0  0  0
   38.1240   48.4150   25.2370 C   0  0  0  0  0  3  0  0  0  0  0  0
   37.4550   47.4530   25.9870 C   0  0  0  0  0  3  0  0  0  0  0  0
   37.6330   46.0890   25.7260 C   0  0  0  0  0  3  0  0  0  0  0  0
   38.5060   45.6890   24.6920 C   0  0  0  0  0  0  0  0  0  0  0  0
   40.4870   46.5300   22.3150 H   0  0  0  0  0  0  0  0  0  0  0  0
  1 19  1  0  0  0  0
  2  7  1  0  0  0  0
  3  4  1  0  0  0  0
  3  2  2  0  0  0  0
  4  5  2  0  0  0  0
  5  6  1  0  0  0  0
  6  1  1  0  0  0  0
  7  6  2  0  0  0  0
  8  9  1  0  0  0  0
  9 10  2  0  0  0  0
  9 17  1  0  0  0  0
 10 11  1  0  0  0  0
 11 18  1  0  0  0  0
 11 12  1  0  0  0  0
 12 13  1  0  0  0  0
 13 14  2  0  0  0  0
 15  2  1  0  0  0  0
 15 14  1  0  0  0  0
 16 15  2  0  0  0  0
 17 16  1  0  0  0  0
 17 12  2  0  0  0  0
 20 19  1  6  0  0  0
 20 25  1  0  0  0  0
 20 21  1  0  0  0  0
 21 22  1  0  0  0  0
 21 23  1  0  0  0  0
 24 21  1  0  0  0  0
 26 25  1  0  0  0  0
 26 34  1  0  0  0  0
 27 26  2  0  0  0  0
 28 27  1  0  0  0  0
 28 29  1  0  0  0  0
 29 30  2  0  0  0  0
 29 34  1  0  0  0  0
 30 31  1  0  0  0  0
 31 32  2  0  0  0  0
 33 32  1  0  0  0  0
 34 33  2  0  0  0  0
 35 28  1  0  0  0  0
M  END
>  <minimizedAffinity>
-10.4477081

$$$$

 OpenBabel11232419023D

 35 39  0  0  1  0  0  0  0  0999 V2000
   35.2690   44.4800   17.3730 O   0  0  0  0  0  0  0  0  0  0  0  0
   36.8920   43.6840   20.6270 C   0  0  0  0  0  0  0  0  0  0  0  0
   36.1490   42.5320   20.8730 C   0  0  0  0  0  3  0  0  0  0  0  0
   35.2160   42.0420   20.0280 N   0  0  0  0  0  0  0  0  0  0  0  0
   35.0190   42.7160   18.8740 C   0  0  0  0  0  3  0  0  0  0  0  0
   35.6840   43.8880   18.5290 C   0  0  0  0  0  0  0  0  0  0  0  0
   36.6480   44.3590   19.4170 C   0  0  0  0  0  3  0  0  0  0  0  0
   42.0990   46.1820   20.8150 C   0  0  0  0  0  1  0  0  0  0  0  0
   41.3100   45.8260   22.0190 C   0  0  0  0  0  0  0  0  0  0  0  0
   41.8020   46.0640   23.2400 N   0  0  0  0  0  0  0  0  0  0  0  0
   40.8330   45.6410   24.0700 N   0  0  0  0  0  0  0  0  0  0  0  0
   39.7410   45.1140   23.4310 C   0  0  0  0  0  0  0  0  0  0  0  0
   38.5510   44.5700   23.9190 C   0  0  0  0  0  3  0  0  0  0  0  0
   37.6240   44.1120   22.9720 C   0  0  0  0  0  3  0  0  0  0  0  0
   37.8700   44.1920   21.5930 C   0  0  0  0  0  0  0  0  0  0  0  0
   39.0780   44.7600   21.1420 C   0  0  0  0  0  3  0  0  0  0  0  0
   40.0250   45.2220   22.0760 C   0  0  0  0  0  0  0  0  0  0  0  0
   40.9810   45.7380   25.0680 H   0  0  0  0  0  0  0  0  0  0  0  0
   35.8770   44.1410   16.1220 C   0  0  0  0  0  2  0  0  0  0  0  0
   35.8050   45.3430   15.1560 C   0  0  1  0  0  3  0  0  0  0  0  0
   35.7440   46.6280   15.9390 N   0  0  0  0  0  4  0  0  0  0  0  0
   36.5850   46.7940   16.5050 H   0  0  0  0  0  0  0  0  0  0  0  0
   35.6020   47.4400   15.3240 H   0  0  0  0  0  0  0  0  0  0  0  0
   34.9390   46.6000   16.5840 H   0  0  0  0  0  0  0  0  0  0  0  0
   36.9980   45.4040   14.1910 C   0  0  0  0  0  2  0  0  0  0  0  0
   37.9540   46.4900   14.5510 C   0  0  0  0  0  0  0  0  0  0  0  0
   38.1730   47.6440   13.8240 C   0  0  0  0  0  3  0  0  0  0  0  0
   39.1190   48.3910   14.4750 N   0  0  0  0  0  0  0  0  0  0  0  0
   39.5310   47.7410   15.6130 C   0  0  0  0  0  0  0  0  0  0  0  0
   40.4760   48.1290   16.5710 C   0  0  0  0  0  3  0  0  0  0  0  0
   40.6900   47.2720   17.6520 C   0  0  0  0  0  3  0  0  0  0  0  0
   39.9830   46.0800   17.7710 C   0  0  0  0  0  3  0  0  0  0  0  0
   39.0400   45.7060   16.8050 C   0  0  0  0  0  3  0  0  0  0  0  0
   38.8100   46.5500   15.6980 C   0  0  0  0  0  0  0  0  0  0  0  0
   39.4640   49.2950   14.1770 H   0  0  0  0  0  0  0  0  0  0  0  0
  1  6  1  0  0  0  0
  2  3  1  0  0  0  0
  2 15  1  0  0  0  0
  4  3  2  0  0  0  0
  5  4  1  0  0  0  0
  6  5  2  0  0  0  0
  6  7  1  0  0  0  0
  7  2  2  0  0  0  0
  8  9  1  0  0  0  0
  9 17  1  0  0  0  0
  9 10  2  0  0  0  0
 10 11  1  0  0  0  0
 11 18  1  0  0  0  0
 12 13  1  0  0  0  0
 12 11  1  0  0  0  0
 14 13  2  0  0  0  0
 15 14  1  0  0  0  0
 16 15  2  0  0  0  0
 16 17  1  0  0  0  0
 17 12  2  0  0  0  0
 19  1  1  0  0  0  0
 20 25  1  6  0  0  0
 20 21  1  0  0  0  0
 20 19  1  0  0  0  0
 21 22  1  0  0  0  0
 21 24  1  0  0  0  0
 23 21  1  0  0  0  0
 25 26  1  0  0  0  0
 26 34  1  0  0  0  0
 27 28  1  0  0  0  0
 27 26  2  0  0  0  0
 28 29  1  0  0  0  0
 29 34  2  0  0  0  0
 29 30  1  0  0  0  0
 30 31  2  0  0  0  0
 31 32  1  0  0  0  0
 33 32  2  0  0  0  0
 34 33  1  0  0  0  0
 35 28  1  0  0  0  0
M  END
>  <minimizedAffinity>
-10.3804865

$$$$

 OpenBabel11232419023D

 35 39  0  0  1  0  0  0  0  0999 V2000
   35.0970   42.6390   20.5670 O   0  0  0  0  0  0  0  0  0  0  0  0
   38.5230   44.0420   20.9550 C   0  0  0  0  0  0  0  0  0  0  0  0
   38.7690   43.4640   22.1970 C   0  0  0  0  0  3  0  0  0  0  0  0
   37.8940   42.6580   22.8390 N   0  0  0  0  0  0  0  0  0  0  0  0
   36.7270   42.3970   22.2130 C   0  0  0  0  0  3  0  0  0  0  0  0
   36.3620   42.9330   20.9830 C   0  0  0  0  0  0  0  0  0  0  0  0
   37.2900   43.7510   20.3430 C   0  0  0  0  0  3  0  0  0  0  0  0
   39.1220   47.3490   16.2540 C   0  0  0  0  0  1  0  0  0  0  0  0
   40.1730   47.1830   17.2860 C   0  0  0  0  0  0  0  0  0  0  0  0
   41.3510   47.8040   17.1530 N   0  0  0  0  0  0  0  0  0  0  0  0
   42.0330   47.4480   18.2540 N   0  0  0  0  0  0  0  0  0  0  0  0
   41.3500   46.5990   19.0850 C   0  0  0  0  0  0  0  0  0  0  0  0
   41.7000   46.0050   20.2990 C   0  0  0  0  0  3  0  0  0  0  0  0
   40.7460   45.1710   20.8990 C   0  0  0  0  0  3  0  0  0  0  0  0
   39.4920   44.9370   20.3150 C   0  0  0  0  0  0  0  0  0  0  0  0
   39.1730   45.5680   19.0960 C   0  0  0  0  0  3  0  0  0  0  0  0
   40.1190   46.4050   18.4740 C   0  0  0  0  0  0  0  0  0  0  0  0
   42.9680   47.8210   18.3800 H   0  0  0  0  0  0  0  0  0  0  0  0
   34.5680   43.2240   19.3720 C   0  0  0  0  0  2  0  0  0  0  0  0
   33.2240   42.5590   19.0070 C   0  0  1  0  0  3  0  0  0  0  0  0
   32.0810   43.4260   19.4670 N   0  0  0  0  0  4  0  0  0  0  0  0
   32.0590   44.3420   19.0020 H   0  0  0  0  0  0  0  0  0  0  0  0
   31.1740   42.9650   19.3200 H   0  0  0  0  0  0  0  0  0  0  0  0
   32.1660   43.5970   20.4800 H   0  0  0  0  0  0  0  0  0  0  0  0
   33.0770   42.3010   17.5000 C   0  0  0  0  0  2  0  0  0  0  0  0
   33.3340   43.5290   16.6940 C   0  0  0  0  0  0  0  0  0  0  0  0
   32.3890   44.4730   16.3410 C   0  0  0  0  0  3  0  0  0  0  0  0
   33.0070   45.4490   15.6050 N   0  0  0  0  0  0  0  0  0  0  0  0
   34.3420   45.1560   15.4620 C   0  0  0  0  0  0  0  0  0  0  0  0
   35.3450   45.8660   14.7910 C   0  0  0  0  0  3  0  0  0  0  0  0
   36.6380   45.3410   14.8200 C   0  0  0  0  0  3  0  0  0  0  0  0
   36.9150   44.1570   15.4970 C   0  0  0  0  0  3  0  0  0  0  0  0
   35.9010   43.4590   16.1640 C   0  0  0  0  0  3  0  0  0  0  0  0
   34.5830   43.9640   16.1450 C   0  0  0  0  0  0  0  0  0  0  0  0
   32.5590   46.2740   15.2260 H   0  0  0  0  0  0  0  0  0  0  0  0
  1  6  1  0  0  0  0
  2  3  1  0  0  0  0
  3  4  2  0  0  0  0
  5  4  1  0  0  0  0
  6  5  2  0  0  0  0
  7  2  2  0  0  0  0
  7  6  1  0  0  0  0
  8  9  1  0  0  0  0
  9 17  1  0  0  0  0
 10  9  2  0  0  0  0
 10 11  1  0  0  0  0
 11 18  1  0  0  0  0
 11 12  1  0  0  0  0
 12 13  1  0  0  0  0
 13 14  2  0  0  0  0
 15 14  1  0  0  0  0
 15  2  1  0  0  0  0
 16 15  2  0  0  0  0
 17 12  2  0  0  0  0
 17 16  1  0  0  0  0
 19  1  1  0  0  0  0
 20 25  1  6  0  0  0
 20 19  1  0  0  0  0
 20 21  1  0  0  0  0
 21 24  1  0  0  0  0
 22 21  1  0  0  0  0
 23 21  1  0  0  0  0
 26 25  1  0  0  0  0
 27 26  2  0  0  0  0
 28 27  1  0  0  0  0
 29 28  1  0  0  0  0
 29 34  1  0  0  0  0
 30 31  1  0  0  0  0
 30 29  2  0  0  0  0
 31 32  2  0  0  0  0
 32 33  1  0  0  0  0
 34 33  2  0  0  0  0
 34 26  1  0  0  0  0
 35 28  1  0  0  0  0
M  END
>  <minimizedAffinity>
-10.3587494

$$$$
