
 OpenBabel11232419023D

 35 39  0  0  1  0  0  0  0  0999 V2000
   34.4650   42.4520   18.6730 O   0  0  0  0  0  0  0  0  0  0  0  0
   37.6130   44.3390   19.2880 C   0  0  0  0  0  0  0  0  0  0  0  0
   37.7560   43.9410   20.6150 C   0  0  0  0  0  3  0  0  0  0  0  0
   36.9060   43.1000   21.2440 N   0  0  0  0  0  0  0  0  0  0  0  0
   35.8740   42.6160   20.5210 C   0  0  0  0  0  3  0  0  0  0  0  0
   35.6170   42.9580   19.1970 C   0  0  0  0  0  0  0  0  0  0  0  0
   36.5190   43.8180   18.5750 C   0  0  0  0  0  3  0  0  0  0  0  0
   37.9300   48.0200   14.8440 C   0  0  0  0  0  1  0  0  0  0  0  0
   39.0450   47.7660   15.7880 C   0  0  0  0  0  0  0  0  0  0  0  0
   40.2160   48.3930   15.6280 N   0  0  0  0  0  0  0  0  0  0  0  0
   40.9670   47.9460   16.6500 N   0  0  0  0  0  0  0  0  0  0  0  0
   40.3320   47.0340   17.4510 C   0  0  0  0  0  0  0  0  0  0  0  0
   40.7560   46.3400   18.5870 C   0  0  0  0  0  3  0  0  0  0  0  0
   39.8380   45.4630   19.1790 C   0  0  0  0  0  3  0  0  0  0  0  0
   38.5450   45.2810   18.6620 C   0  0  0  0  0  0  0  0  0  0  0  0
   38.1530   46.0110   17.5220 C   0  0  0  0  0  3  0  0  0  0  0  0
   39.0630   46.8940   16.9090 C   0  0  0  0  0  0  0  0  0  0  0  0
   41.9110   48.3040   16.7430 H   0  0  0  0  0  0  0  0  0  0  0  0
   34.0920   42.7390   17.3210 C   0  0  0  0  0  2  0  0  0  0  0  0
   32.7920   43.5730   17.2960 C   0  0  1  0  0  3  0  0  0  0  0  0
   33.0640   44.9610   17.8130 N   0  0  0  0  0  4  0  0  0  0  0  0
   33.7270   45.4850   17.2280 H   0  0  0  0  0  0  0  0  0  0  0  0
   32.1990   45.5100   17.8950 H   0  0  0  0  0  0  0  0  0  0  0  0
   33.4690   44.9020   18.7600 H   0  0  0  0  0  0  0  0  0  0  0  0
   32.1770   43.6750   15.8930 C   0  0  0  0  0  2  0  0  0  0  0  0
   30.6870   43.6660   15.9330 C   0  0  0  0  0  0  0  0  0  0  0  0
   29.8650   44.7230   15.5940 C   0  0  0  0  0  3  0  0  0  0  0  0
   28.5630   44.3280   15.7580 N   0  0  0  0  0  0  0  0  0  0  0  0
   28.5180   43.0320   16.2090 C   0  0  0  0  0  0  0  0  0  0  0  0
   27.4110   42.2300   16.5150 C   0  0  0  0  0  3  0  0  0  0  0  0
   27.6560   40.9240   16.9420 C   0  0  0  0  0  3  0  0  0  0  0  0
   28.9560   40.4400   17.0550 C   0  0  0  0  0  3  0  0  0  0  0  0
   30.0530   41.2540   16.7450 C   0  0  0  0  0  3  0  0  0  0  0  0
   29.8330   42.5810   16.3170 C   0  0  0  0  0  0  0  0  0  0  0  0
   27.7470   44.8970   15.5700 H   0  0  0  0  0  0  0  0  0  0  0  0
  1  6  1  0  0  0  0
  2  3  1  0  0  0  0
  3  4  2  0  0  0  0
  5  4  1  0  0  0  0
  6  5  2  0  0  0  0
  7  6  1  0  0  0  0
  7  2  2  0  0  0  0
  8  9  1  0  0  0  0
  9 17  1  0  0  0  0
 10  9  2  0  0  0  0
 10 11  1  0  0  0  0
 11 18  1  0  0  0  0
 11 12  1  0  0  0  0
 12 13  1  0  0  0  0
 13 14  2  0  0  0  0
 15 14  1  0  0  0  0
 15  2  1  0  0  0  0
 16 15  2  0  0  0  0
 17 12  2  0  0  0  0
 17 16  1  0  0  0  0
 19  1  1  0  0  0  0
 20 25  1  6  0  0  0
 20 19  1  0  0  0  0
 20 21  1  0  0  0  0
 21 23  1  0  0  0  0
 21 24  1  0  0  0  0
 22 21  1  0  0  0  0
 25 26  1  0  0  0  0
 26 34  1  0  0  0  0
 27 28  1  0  0  0  0
 27 26  2  0  0  0  0
 28 29  1  0  0  0  0
 29 34  2  0  0  0  0
 29 30  1  0  0  0  0
 30 31  2  0  0  0  0
 31 32  1  0  0  0  0
 33 32  2  0  0  0  0
 34 33  1  0  0  0  0
 35 28  1  0  0  0  0
M  END
>  <minimizedAffinity>
-10.6363258

$$$$
