
 OpenBabel11232419023D

 35 39  0  0  1  0  0  0  0  0999 V2000
   41.6250   45.3430   20.8410 O   0  0  0  0  0  0  0  0  0  0  0  0
   39.7070   46.3950   17.8310 C   0  0  0  0  0  0  0  0  0  0  0  0
   40.6400   47.3300   17.3920 C   0  0  0  0  0  3  0  0  0  0  0  0
   41.8140   47.5720   18.0160 N   0  0  0  0  0  0  0  0  0  0  0  0
   42.0840   46.8420   19.1190 C   0  0  0  0  0  3  0  0  0  0  0  0
   41.2210   45.8970   19.6630 C   0  0  0  0  0  0  0  0  0  0  0  0
   40.0250   45.6630   18.9890 C   0  0  0  0  0  3  0  0  0  0  0  0
   37.1390   47.5600   12.7870 C   0  0  0  0  0  1  0  0  0  0  0  0
   36.4770   46.8460   13.9060 C   0  0  0  0  0  0  0  0  0  0  0  0
   35.2050   46.4460   13.7890 N   0  0  0  0  0  0  0  0  0  0  0  0
   34.9470   45.8340   14.9570 N   0  0  0  0  0  0  0  0  0  0  0  0
   35.9980   45.8460   15.8370 C   0  0  0  0  0  0  0  0  0  0  0  0
   36.1340   45.3360   17.1300 C   0  0  0  0  0  3  0  0  0  0  0  0
   37.3700   45.5240   17.7640 C   0  0  0  0  0  3  0  0  0  0  0  0
   38.4320   46.1930   17.1360 C   0  0  0  0  0  0  0  0  0  0  0  0
   38.2580   46.6800   15.8250 C   0  0  0  0  0  3  0  0  0  0  0  0
   37.0220   46.5070   15.1730 C   0  0  0  0  0  0  0  0  0  0  0  0
   34.0280   45.4290   15.0940 H   0  0  0  0  0  0  0  0  0  0  0  0
   42.0080   46.1730   21.9440 C   0  0  0  0  0  2  0  0  0  0  0  0
   41.1840   45.8030   23.1960 C   0  0  1  0  0  3  0  0  0  0  0  0
   41.5790   46.6870   24.3500 N   0  0  0  0  0  4  0  0  0  0  0  0
   41.3770   47.6800   24.1840 H   0  0  0  0  0  0  0  0  0  0  0  0
   41.1130   46.4020   25.2210 H   0  0  0  0  0  0  0  0  0  0  0  0
   42.5940   46.6030   24.5150 H   0  0  0  0  0  0  0  0  0  0  0  0
   39.6700   45.9260   22.9700 C   0  0  0  0  0  2  0  0  0  0  0  0
   38.9520   44.6560   23.2780 C   0  0  0  0  0  0  0  0  0  0  0  0
   39.0120   43.9660   24.4730 C   0  0  0  0  0  3  0  0  0  0  0  0
   38.2190   42.8530   24.3700 N   0  0  0  0  0  0  0  0  0  0  0  0
   37.6470   42.7970   23.1220 C   0  0  0  0  0  0  0  0  0  0  0  0
   36.7770   41.8430   22.5810 C   0  0  0  0  0  3  0  0  0  0  0  0
   36.3290   42.0450   21.2740 C   0  0  0  0  0  3  0  0  0  0  0  0
   36.7310   43.1580   20.5430 C   0  0  0  0  0  3  0  0  0  0  0  0
   37.6010   44.1040   21.0990 C   0  0  0  0  0  3  0  0  0  0  0  0
   38.0760   43.9210   22.4150 C   0  0  0  0  0  0  0  0  0  0  0  0
   38.0630   42.1710   25.1020 H   0  0  0  0  0  0  0  0  0  0  0  0
  1 19  1  0  0  0  0
  2  7  1  0  0  0  0
  3  2  2  0  0  0  0
  3  4  1  0  0  0  0
  4  5  2  0  0  0  0
  5  6  1  0  0  0  0
  6  1  1  0  0  0  0
  7  6  2  0  0  0  0
  8  9  1  0  0  0  0
  9 17  1  0  0  0  0
 10  9  2  0  0  0  0
 10 11  1  0  0  0  0
 11 18  1  0  0  0  0
 11 12  1  0  0  0  0
 12 13  1  0  0  0  0
 13 14  2  0  0  0  0
 15 14  1  0  0  0  0
 15  2  1  0  0  0  0
 16 15  2  0  0  0  0
 17 16  1  0  0  0  0
 17 12  2  0  0  0  0
 20 19  1  6  0  0  0
 20 21  1  0  0  0  0
 21 24  1  0  0  0  0
 21 23  1  0  0  0  0
 22 21  1  0  0  0  0
 25 20  1  0  0  0  0
 25 26  1  0  0  0  0
 26 27  2  0  0  0  0
 28 27  1  0  0  0  0
 28 35  1  0  0  0  0
 29 28  1  0  0  0  0
 30 29  1  0  0  0  0
 31 30  2  0  0  0  0
 32 33  2  0  0  0  0
 32 31  1  0  0  0  0
 33 34  1  0  0  0  0
 34 29  2  0  0  0  0
 34 26  1  0  0  0  0
M  END
>  <minimizedAffinity>
-10.8029966

$$$$
