
 OpenBabel10152419273D

 41 44  0  0  1  0  0  0  0  0999 V2000
    6.8560  -14.5560   12.6180 C   0  0  2  0  0  3  0  0  0  0  0  0
    9.6450  -12.1900   13.8040 C   0  0  0  0  0  0  0  0  0  0  0  0
   10.7310  -13.0600   13.8940 C   0  0  0  0  0  3  0  0  0  0  0  0
   10.5410  -14.4290   13.7380 C   0  0  0  0  0  3  0  0  0  0  0  0
    9.2830  -14.9260   13.3960 C   0  0  0  0  0  3  0  0  0  0  0  0
    8.1940  -14.0630   13.1870 C   0  0  0  0  0  0  0  0  0  0  0  0
    8.3780  -12.6900   13.4720 C   0  0  0  0  0  3  0  0  0  0  0  0
    9.4710   -9.7630   13.1670 C   0  0  0  0  0  0  0  0  0  0  0  0
   10.1920   -8.7810   12.9980 O   0  0  0  0  0  0  0  0  0  0  0  0
    9.9140  -10.8190   13.9280 N   0  0  0  0  0  0  0  0  0  0  0  0
   10.6210  -10.5520   14.6030 H   0  0  0  0  0  0  0  0  0  0  0  0
    5.3200   -9.9050   12.0920 C   0  0  0  0  0  0  0  0  0  0  0  0
    5.7160   -9.4730   13.3590 C   0  0  0  0  0  3  0  0  0  0  0  0
    7.0730   -9.3670   13.6800 C   0  0  0  0  0  3  0  0  0  0  0  0
    8.0470   -9.7030   12.7330 C   0  0  0  0  0  0  0  0  0  0  0  0
    7.6450  -10.1700   11.4740 C   0  0  0  0  0  3  0  0  0  0  0  0
    6.2860  -10.2660   11.1530 C   0  0  0  0  0  3  0  0  0  0  0  0
    3.5790  -10.5040   10.6220 C   0  0  0  0  0  1  0  0  0  0  0  0
    3.9690  -10.0000   11.8990 O   0  0  0  0  0  0  0  0  0  0  0  0
    6.3390  -13.6560   11.5820 N   0  0  0  0  0  0  0  0  0  0  0  0
    5.8910  -12.8310   11.9560 H   0  0  0  0  0  0  0  0  0  0  0  0
    7.2550  -13.3080   10.5660 C   0  0  0  0  0  0  0  0  0  0  0  0
    8.5620  -13.5160   10.7810 N   0  0  0  0  0  0  0  0  0  0  0  0
    9.3980  -12.7830   10.0540 C   0  0  0  0  0  3  0  0  0  0  0  0
    9.0310  -11.8000    9.2310 N   0  0  0  0  0  0  0  0  0  0  0  0
    7.7170  -11.6720    8.9650 C   0  0  0  0  0  0  0  0  0  0  0  0
    7.1900  -10.5900    8.2610 C   0  0  0  0  0  0  0  0  0  0  0  0
    5.8570  -10.5200    7.8250 C   0  0  0  0  0  3  0  0  0  0  0  0
    4.9800  -11.5360    8.1640 C   0  0  0  0  0  3  0  0  0  0  0  0
    5.4210  -12.5170    9.0440 C   0  0  0  0  0  3  0  0  0  0  0  0
    6.7740  -12.5500    9.4870 C   0  0  0  0  0  0  0  0  0  0  0  0
    7.9170   -9.3080    8.3750 C   0  0  0  0  0  0  0  0  0  0  0  0
    8.1690   -8.7350    7.1460 N   0  0  0  0  0  0  0  0  0  0  0  0
    8.2700   -8.8170    9.4230 O   0  0  0  0  0  0  0  0  0  0  0  0
    8.6430   -7.8450    7.1120 H   0  0  0  0  0  0  0  0  0  0  0  0
    7.8510   -9.1470    6.2780 H   0  0  0  0  0  0  0  0  0  0  0  0
    5.7700  -14.8150   13.6900 C   0  0  0  0  0  2  0  0  0  0  0  0
    4.3060  -15.0630   13.2860 C   0  0  0  0  0  2  0  0  0  0  0  0
    3.6310  -14.0570   12.3560 C   0  0  0  0  0  2  0  0  0  0  0  0
    4.3630  -12.8490   12.2350 O   0  0  0  0  0  0  0  0  0  0  0  0
    4.5090  -12.4810   13.1280 H   0  0  0  0  0  0  0  0  0  0  0  0
  1  6  1  0  0  0  0
  1 37  1  1  0  0  0
  2  3  1  0  0  0  0
  2 10  1  0  0  0  0
  4  3  2  0  0  0  0
  5  4  1  0  0  0  0
  6  5  2  0  0  0  0
  6  7  1  0  0  0  0
  7  2  2  0  0  0  0
  8 10  1  0  0  0  0
  9  8  2  0  0  0  0
 10 11  1  0  0  0  0
 12 13  1  0  0  0  0
 13 14  2  0  0  0  0
 15  8  1  0  0  0  0
 15 14  1  0  0  0  0
 16 15  2  0  0  0  0
 17 16  1  0  0  0  0
 17 12  2  0  0  0  0
 18 19  1  0  0  0  0
 19 12  1  0  0  0  0
 20 21  1  0  0  0  0
 20  1  1  0  0  0  0
 22 23  1  0  0  0  0
 22 20  1  0  0  0  0
 24 23  2  0  0  0  0
 25 24  1  0  0  0  0
 26 25  2  0  0  0  0
 26 31  1  0  0  0  0
 27 32  1  0  0  0  0
 27 26  1  0  0  0  0
 28 29  1  0  0  0  0
 28 27  2  0  0  0  0
 29 30  2  0  0  0  0
 30 31  1  0  0  0  0
 31 22  2  0  0  0  0
 32 34  2  0  0  0  0
 33 32  1  0  0  0  0
 35 33  1  0  0  0  0
 36 33  1  0  0  0  0
 38 37  1  0  0  0  0
 39 38  1  0  0  0  0
 40 39  1  0  0  0  0
 40 41  1  0  0  0  0
M  END
>  <minimizedAffinity>
13.0374804

$$$$
