
 OpenBabel11232420103D

 39 45  0  0  1  0  0  0  0  0999 V2000
    0.1640    4.9960   -7.3710 C   0  0  0  0  0  0  0  0  0  0  0  0
    1.3130    4.4340   -7.8850 N   0  0  0  0  0  0  0  0  0  0  0  0
    2.2790    5.2910   -7.6530 C   0  0  0  0  0  0  0  0  0  0  0  0
    1.7890    6.3830   -6.9880 N   0  0  0  0  0  0  0  0  0  0  0  0
    0.4380    6.2200   -6.7750 C   0  0  0  0  0  0  0  0  0  0  0  0
    2.6740    7.4240   -6.5110 C   0  0  0  0  0  2  0  0  0  0  0  0
    3.8160    7.6040   -7.3720 O   0  0  0  0  0  0  0  0  0  0  0  0
    4.4000    6.4500   -7.8430 C   0  0  0  0  0  0  0  0  0  0  0  0
    5.7390    6.5510   -8.2200 C   0  0  0  0  0  3  0  0  0  0  0  0
    6.3970    5.4360   -8.7340 C   0  0  0  0  0  3  0  0  0  0  0  0
    5.7120    4.2300   -8.8770 C   0  0  0  0  0  3  0  0  0  0  0  0
    4.3610    4.1300   -8.5190 C   0  0  0  0  0  0  0  0  0  0  0  0
    3.6110    2.5870   -8.7310 Cl  0  0  0  0  0  0  0  0  0  0  0  0
    3.6870    5.2480   -8.0060 C   0  0  0  0  0  0  0  0  0  0  0  0
   -0.3840    7.1610   -6.0270 C   0  0  0  0  0  0  0  0  0  0  0  0
   -0.9090    6.8060   -4.7780 C   0  0  0  0  0  3  0  0  0  0  0  0
   -1.7040    7.7080   -4.0680 C   0  0  0  0  0  3  0  0  0  0  0  0
   -1.9790    8.9670   -4.6030 C   0  0  0  0  0  3  0  0  0  0  0  0
   -1.4560    9.3270   -5.8440 C   0  0  0  0  0  3  0  0  0  0  0  0
   -0.6590    8.4280   -6.5550 C   0  0  0  0  0  3  0  0  0  0  0  0
   -3.7280    3.1450   -7.5990 C   0  0  0  0  0  0  0  0  0  0  0  0
   -3.4220    4.3500   -8.2580 C   0  0  0  0  0  3  0  0  0  0  0  0
   -2.1470    4.9230   -8.2010 C   0  0  0  0  0  3  0  0  0  0  0  0
   -1.1120    4.3050   -7.4920 C   0  0  0  0  0  0  0  0  0  0  0  0
   -1.3790    3.0930   -6.8570 C   0  0  0  0  0  3  0  0  0  0  0  0
   -2.6600    2.5250   -6.9160 C   0  0  0  0  0  3  0  0  0  0  0  0
   -5.1820    2.5370   -7.6050 C   0  0  2  0  0  0  0  0  0  0  0  0
   -5.9510    2.3830   -6.2620 C   0  0  0  0  0  2  0  0  0  0  0  0
   -6.6370    1.1100   -6.8700 C   0  0  1  0  0  0  0  0  0  0  0  0
   -5.3530    0.9950   -7.7650 C   0  0  0  0  0  2  0  0  0  0  0  0
   -5.9920    3.2850   -8.6000 N   0  0  0  0  0  4  0  0  0  0  0  0
   -6.9600    2.9100   -8.6160 H   0  0  0  0  0  0  0  0  0  0  0  0
   -5.6100    3.2060   -9.5480 H   0  0  0  0  0  0  0  0  0  0  0  0
   -6.0520    4.2830   -8.3680 H   0  0  0  0  0  0  0  0  0  0  0  0
   -6.9540    0.0050   -5.8800 C   0  0  0  0  0  3  0  0  0  0  0  0
   -7.9490    0.1540   -4.7630 C   0  0  0  0  0  2  0  0  0  0  0  0
   -8.2030   -0.8330   -5.8710 C   0  0  0  0  0  2  0  0  0  0  0  0
   -7.7920    1.4690   -7.6880 O   0  0  0  0  0  0  0  0  0  0  0  0
   -8.3380    0.6540   -7.7130 H   0  0  0  0  0  0  0  0  0  0  0  0
  1  5  2  0  0  0  0
  2  3  2  0  0  0  0
  2  1  1  0  0  0  0
  3  4  1  0  0  0  0
  4  5  1  0  0  0  0
  4  6  1  0  0  0  0
  5 15  1  0  0  0  0
  7  6  1  0  0  0  0
  8  7  1  0  0  0  0
  9  8  2  0  0  0  0
 10  9  1  0  0  0  0
 11 10  2  0  0  0  0
 11 12  1  0  0  0  0
 12 14  2  0  0  0  0
 13 12  1  0  0  0  0
 14  8  1  0  0  0  0
 14  3  1  0  0  0  0
 15 16  1  0  0  0  0
 16 17  2  0  0  0  0
 18 17  1  0  0  0  0
 19 18  2  0  0  0  0
 20 15  2  0  0  0  0
 20 19  1  0  0  0  0
 21 26  1  0  0  0  0
 22 23  1  0  0  0  0
 22 21  2  0  0  0  0
 23 24  2  0  0  0  0
 24  1  1  0  0  0  0
 24 25  1  0  0  0  0
 26 25  2  0  0  0  0
 27 31  1  6  0  0  0
 27 21  1  0  0  0  0
 27 28  1  0  0  0  0
 29 38  1  6  0  0  0
 29 28  1  0  0  0  0
 29 35  1  0  0  0  0
 30 27  1  0  0  0  0
 30 29  1  0  0  0  0
 31 34  1  0  0  0  0
 32 31  1  0  0  0  0
 33 31  1  0  0  0  0
 35 37  1  0  0  0  0
 35 36  1  0  0  0  0
 37 36  1  0  0  0  0
 39 38  1  0  0  0  0
M  END
>  <minimizedAffinity>
-11.1154013

$$$$
