
 OpenBabel11232420103D

 39 45  0  0  1  0  0  0  0  0999 V2000
   -2.1110    4.4410   -6.6360 C   0  0  0  0  0  0  0  0  0  0  0  0
   -3.2970    4.1010   -6.0220 N   0  0  0  0  0  0  0  0  0  0  0  0
   -3.7750    3.0750   -6.6860 C   0  0  0  0  0  0  0  0  0  0  0  0
   -2.9220    2.7320   -7.7000 N   0  0  0  0  0  0  0  0  0  0  0  0
   -1.8340    3.5770   -7.6870 C   0  0  0  0  0  0  0  0  0  0  0  0
   -3.1620    1.5570   -8.5110 C   0  0  0  0  0  2  0  0  0  0  0  0
   -4.5680    1.2930   -8.6830 O   0  0  0  0  0  0  0  0  0  0  0  0
   -5.3490    1.4520   -7.5610 C   0  0  0  0  0  0  0  0  0  0  0  0
   -6.5500    0.7400   -7.5440 C   0  0  0  0  0  3  0  0  0  0  0  0
   -7.4120    0.8680   -6.4590 C   0  0  0  0  0  3  0  0  0  0  0  0
   -7.0770    1.7120   -5.4010 C   0  0  0  0  0  3  0  0  0  0  0  0
   -5.8830    2.4460   -5.4240 C   0  0  0  0  0  0  0  0  0  0  0  0
   -5.5640    3.4570   -4.0580 Cl  0  0  0  0  0  0  0  0  0  0  0  0
   -5.0100    2.3290   -6.5150 C   0  0  0  0  0  0  0  0  0  0  0  0
   -0.6940    3.4450   -8.5840 C   0  0  0  0  0  0  0  0  0  0  0  0
    0.5380    2.9860   -8.1030 C   0  0  0  0  0  3  0  0  0  0  0  0
    1.6300    2.8700   -8.9640 C   0  0  0  0  0  3  0  0  0  0  0  0
    1.4970    3.2120  -10.3100 C   0  0  0  0  0  3  0  0  0  0  0  0
    0.2710    3.6670  -10.7960 C   0  0  0  0  0  3  0  0  0  0  0  0
   -0.8230    3.7810   -9.9370 C   0  0  0  0  0  3  0  0  0  0  0  0
    0.3660    7.6310   -5.1130 C   0  0  0  0  0  0  0  0  0  0  0  0
    0.7990    6.7510   -6.1230 C   0  0  0  0  0  3  0  0  0  0  0  0
   -0.0270    5.7410   -6.6290 C   0  0  0  0  0  3  0  0  0  0  0  0
   -1.3320    5.5740   -6.1570 C   0  0  0  0  0  0  0  0  0  0  0  0
   -1.7970    6.4520   -5.1790 C   0  0  0  0  0  3  0  0  0  0  0  0
   -0.9650    7.4620   -4.6740 C   0  0  0  0  0  3  0  0  0  0  0  0
    1.3190    8.7220   -4.4930 C   0  0  2  0  0  0  0  0  0  0  0  0
    2.2930    9.5010   -5.4210 C   0  0  0  0  0  2  0  0  0  0  0  0
    3.2930    9.5690   -4.2140 C   0  0  1  0  0  0  0  0  0  0  0  0
    2.5880    8.2590   -3.7150 C   0  0  0  0  0  2  0  0  0  0  0  0
    0.4900    9.6550   -3.6870 N   0  0  0  0  0  4  0  0  0  0  0  0
    1.0950   10.3920   -3.2750 H   0  0  0  0  0  0  0  0  0  0  0  0
    0.0080    9.1780   -2.9170 H   0  0  0  0  0  0  0  0  0  0  0  0
   -0.2200   10.1240   -4.2600 H   0  0  0  0  0  0  0  0  0  0  0  0
    4.7640    9.5270   -4.5830 C   0  0  0  0  0  3  0  0  0  0  0  0
    5.5780   10.7540   -4.8830 C   0  0  0  0  0  2  0  0  0  0  0  0
    5.9050    9.9100   -3.6810 C   0  0  0  0  0  2  0  0  0  0  0  0
    2.9770   10.6830   -3.3250 O   0  0  0  0  0  0  0  0  0  0  0  0
    3.8150   10.8610   -2.8460 H   0  0  0  0  0  0  0  0  0  0  0  0
  1 24  1  0  0  0  0
  1  2  1  0  0  0  0
  3 14  1  0  0  0  0
  3  2  2  0  0  0  0
  4  5  1  0  0  0  0
  4  3  1  0  0  0  0
  5  1  2  0  0  0  0
  6  4  1  0  0  0  0
  7  6  1  0  0  0  0
  7  8  1  0  0  0  0
  8  9  2  0  0  0  0
  8 14  1  0  0  0  0
  9 10  1  0  0  0  0
 10 11  2  0  0  0  0
 12 11  1  0  0  0  0
 12 13  1  0  0  0  0
 14 12  2  0  0  0  0
 15 16  1  0  0  0  0
 15  5  1  0  0  0  0
 17 16  2  0  0  0  0
 18 17  1  0  0  0  0
 19 18  2  0  0  0  0
 19 20  1  0  0  0  0
 20 15  2  0  0  0  0
 21 26  1  0  0  0  0
 21 27  1  0  0  0  0
 22 21  2  0  0  0  0
 23 24  2  0  0  0  0
 23 22  1  0  0  0  0
 24 25  1  0  0  0  0
 25 26  2  0  0  0  0
 27 30  1  0  0  0  0
 27 31  1  1  0  0  0
 28 27  1  0  0  0  0
 28 29  1  0  0  0  0
 29 30  1  0  0  0  0
 29 38  1  1  0  0  0
 31 32  1  0  0  0  0
 31 33  1  0  0  0  0
 34 31  1  0  0  0  0
 35 29  1  0  0  0  0
 35 37  1  0  0  0  0
 36 35  1  0  0  0  0
 36 37  1  0  0  0  0
 38 39  1  0  0  0  0
M  END
>  <minimizedAffinity>
-10.6754036

$$$$
