
 OpenBabel11232420103D

 39 45  0  0  1  0  0  0  0  0999 V2000
   -1.4330    4.3160   -6.8500 C   0  0  0  0  0  0  0  0  0  0  0  0
   -2.4050    3.3490   -6.9880 N   0  0  0  0  0  0  0  0  0  0  0  0
   -3.4180    3.7350   -6.2480 C   0  0  0  0  0  0  0  0  0  0  0  0
   -3.1340    4.9330   -5.6490 N   0  0  0  0  0  0  0  0  0  0  0  0
   -1.8750    5.3450   -6.0270 C   0  0  0  0  0  0  0  0  0  0  0  0
   -4.1330    5.6330   -4.8700 C   0  0  0  0  0  2  0  0  0  0  0  0
   -5.0280    4.7270   -4.1950 O   0  0  0  0  0  0  0  0  0  0  0  0
   -5.4500    3.6430   -4.9280 C   0  0  0  0  0  0  0  0  0  0  0  0
   -6.6560    3.0640   -4.5290 C   0  0  0  0  0  3  0  0  0  0  0  0
   -7.1400    1.9450   -5.2010 C   0  0  0  0  0  3  0  0  0  0  0  0
   -6.4140    1.4030   -6.2610 C   0  0  0  0  0  3  0  0  0  0  0  0
   -5.1920    1.9690   -6.6520 C   0  0  0  0  0  0  0  0  0  0  0  0
   -4.3790    1.2220   -7.9830 Cl  0  0  0  0  0  0  0  0  0  0  0  0
   -4.6930    3.0920   -5.9790 C   0  0  0  0  0  0  0  0  0  0  0  0
   -1.2860    6.6180   -5.6340 C   0  0  0  0  0  0  0  0  0  0  0  0
   -1.4700    7.7580   -6.4260 C   0  0  0  0  0  3  0  0  0  0  0  0
   -0.8960    8.9740   -6.0500 C   0  0  0  0  0  3  0  0  0  0  0  0
   -0.1360    9.0560   -4.8830 C   0  0  0  0  0  3  0  0  0  0  0  0
    0.0470    7.9240   -4.0890 C   0  0  0  0  0  3  0  0  0  0  0  0
   -0.5270    6.7080   -4.4620 C   0  0  0  0  0  3  0  0  0  0  0  0
    2.4150    3.6970   -8.7020 C   0  0  0  0  0  0  0  0  0  0  0  0
    1.3660    2.7650   -8.8050 C   0  0  0  0  0  3  0  0  0  0  0  0
    0.1120    2.9940   -8.2260 C   0  0  0  0  0  3  0  0  0  0  0  0
   -0.1530    4.1760   -7.5270 C   0  0  0  0  0  0  0  0  0  0  0  0
    0.8600    5.1300   -7.4370 C   0  0  0  0  0  3  0  0  0  0  0  0
    2.1140    4.8950   -8.0190 C   0  0  0  0  0  3  0  0  0  0  0  0
    3.8470    3.4090   -9.2930 C   0  0  2  0  0  0  0  0  0  0  0  0
    4.5400    2.0500   -8.9900 C   0  0  0  0  0  2  0  0  0  0  0  0
    5.9130    2.8080   -9.0360 C   0  0  1  0  0  0  0  0  0  0  0  0
    5.0870    4.0760   -8.6240 C   0  0  0  0  0  2  0  0  0  0  0  0
    3.8050    3.6710  -10.7540 N   0  0  0  0  0  4  0  0  0  0  0  0
    4.7370    3.4780  -11.1720 H   0  0  0  0  0  0  0  0  0  0  0  0
    3.5620    4.6440  -10.9670 H   0  0  0  0  0  0  0  0  0  0  0  0
    3.1240    3.0670  -11.2290 H   0  0  0  0  0  0  0  0  0  0  0  0
    6.9810    2.2800   -8.0970 C   0  0  0  0  0  3  0  0  0  0  0  0
    6.7910    1.0690   -7.2250 C   0  0  0  0  0  2  0  0  0  0  0  0
    7.8190    1.0510   -8.3250 C   0  0  0  0  0  2  0  0  0  0  0  0
    6.3980    2.9450  -10.4060 O   0  0  0  0  0  0  0  0  0  0  0  0
    7.3650    3.0820  -10.3120 H   0  0  0  0  0  0  0  0  0  0  0  0
  1  5  2  0  0  0  0
  2  1  1  0  0  0  0
  2  3  2  0  0  0  0
  3 14  1  0  0  0  0
  3  4  1  0  0  0  0
  4  6  1  0  0  0  0
  5  4  1  0  0  0  0
  5 15  1  0  0  0  0
  6  7  1  0  0  0  0
  8  9  1  0  0  0  0
  8  7  1  0  0  0  0
 10  9  2  0  0  0  0
 11 10  1  0  0  0  0
 12 11  2  0  0  0  0
 12 14  1  0  0  0  0
 13 12  1  0  0  0  0
 14  8  2  0  0  0  0
 15 20  1  0  0  0  0
 16 17  1  0  0  0  0
 16 15  2  0  0  0  0
 17 18  2  0  0  0  0
 18 19  1  0  0  0  0
 20 19  2  0  0  0  0
 21 26  1  0  0  0  0
 22 21  2  0  0  0  0
 22 23  1  0  0  0  0
 23 24  2  0  0  0  0
 24 25  1  0  0  0  0
 24  1  1  0  0  0  0
 26 25  2  0  0  0  0
 27 31  1  6  0  0  0
 27 28  1  0  0  0  0
 27 21  1  0  0  0  0
 27 30  1  0  0  0  0
 29 38  1  6  0  0  0
 29 28  1  0  0  0  0
 29 30  1  0  0  0  0
 29 35  1  0  0  0  0
 32 31  1  0  0  0  0
 33 31  1  0  0  0  0
 34 31  1  0  0  0  0
 35 36  1  0  0  0  0
 37 35  1  0  0  0  0
 37 36  1  0  0  0  0
 38 39  1  0  0  0  0
M  END
>  <minimizedAffinity>
-10.0243979

$$$$
