
 OpenBabel11232420103D

 39 45  0  0  1  0  0  0  0  0999 V2000
    0.3010    6.3920   -6.4720 C   0  0  0  0  0  0  0  0  0  0  0  0
    1.4740    5.8910   -6.9940 N   0  0  0  0  0  0  0  0  0  0  0  0
    2.4230    6.7230   -6.6350 C   0  0  0  0  0  0  0  0  0  0  0  0
    1.8980    7.7380   -5.8810 N   0  0  0  0  0  0  0  0  0  0  0  0
    0.5410    7.5490   -5.7410 C   0  0  0  0  0  0  0  0  0  0  0  0
    2.7550    8.7270   -5.2630 C   0  0  0  0  0  2  0  0  0  0  0  0
    3.9280    9.0000   -6.0540 O   0  0  0  0  0  0  0  0  0  0  0  0
    4.5400    7.9040   -6.6170 C   0  0  0  0  0  0  0  0  0  0  0  0
    5.8930    8.0490   -6.9280 C   0  0  0  0  0  3  0  0  0  0  0  0
    6.5800    6.9970   -7.5280 C   0  0  0  0  0  3  0  0  0  0  0  0
    5.9110    5.8090   -7.8220 C   0  0  0  0  0  3  0  0  0  0  0  0
    4.5470    5.6670   -7.5310 C   0  0  0  0  0  0  0  0  0  0  0  0
    3.8190    4.1510   -7.9330 Cl  0  0  0  0  0  0  0  0  0  0  0  0
    3.8450    6.7230   -6.9330 C   0  0  0  0  0  0  0  0  0  0  0  0
   -0.3180    8.4030   -4.9330 C   0  0  0  0  0  0  0  0  0  0  0  0
   -0.2290    8.3800   -3.5360 C   0  0  0  0  0  3  0  0  0  0  0  0
   -1.0600    9.1950   -2.7650 C   0  0  0  0  0  3  0  0  0  0  0  0
   -1.9850   10.0340   -3.3870 C   0  0  0  0  0  3  0  0  0  0  0  0
   -2.0770   10.0630   -4.7770 C   0  0  0  0  0  3  0  0  0  0  0  0
   -1.2440    9.2520   -5.5500 C   0  0  0  0  0  3  0  0  0  0  0  0
   -3.3110    4.1640   -7.2560 C   0  0  0  0  0  0  0  0  0  0  0  0
   -2.4440    3.8510   -6.1930 C   0  0  0  0  0  3  0  0  0  0  0  0
   -1.2920    4.6020   -5.9320 C   0  0  0  0  0  3  0  0  0  0  0  0
   -0.9630    5.7120   -6.7150 C   0  0  0  0  0  0  0  0  0  0  0  0
   -1.8220    6.0630   -7.7550 C   0  0  0  0  0  3  0  0  0  0  0  0
   -2.9750    5.3060   -8.0140 C   0  0  0  0  0  3  0  0  0  0  0  0
   -4.5700    3.2770   -7.5950 C   0  0  2  0  0  0  0  0  0  0  0  0
   -5.8080    3.3180   -6.6550 C   0  0  0  0  0  2  0  0  0  0  0  0
   -6.0600    1.8140   -7.0200 C   0  0  1  0  0  0  0  0  0  0  0  0
   -4.5160    1.7490   -7.2930 C   0  0  0  0  0  2  0  0  0  0  0  0
   -4.9590    3.5460   -9.0020 N   0  0  0  0  0  4  0  0  0  0  0  0
   -5.7950    2.9800   -9.2480 H   0  0  0  0  0  0  0  0  0  0  0  0
   -4.2130    3.3060   -9.6630 H   0  0  0  0  0  0  0  0  0  0  0  0
   -5.2020    4.5320   -9.1480 H   0  0  0  0  0  0  0  0  0  0  0  0
   -6.6540    0.9650   -5.9120 C   0  0  0  0  0  3  0  0  0  0  0  0
   -8.1110    0.9910   -5.5400 C   0  0  0  0  0  2  0  0  0  0  0  0
   -7.5020   -0.2630   -6.1070 C   0  0  0  0  0  2  0  0  0  0  0  0
   -6.7990    1.6880   -8.2720 O   0  0  0  0  0  0  0  0  0  0  0  0
   -7.2090    0.7970   -8.2270 H   0  0  0  0  0  0  0  0  0  0  0  0
  1  5  2  0  0  0  0
  2  3  2  0  0  0  0
  2  1  1  0  0  0  0
  3  4  1  0  0  0  0
  4  5  1  0  0  0  0
  4  6  1  0  0  0  0
  5 15  1  0  0  0  0
  7  6  1  0  0  0  0
  8  7  1  0  0  0  0
  9  8  1  0  0  0  0
 10  9  2  0  0  0  0
 11 12  2  0  0  0  0
 11 10  1  0  0  0  0
 12 14  1  0  0  0  0
 13 12  1  0  0  0  0
 14  3  1  0  0  0  0
 14  8  2  0  0  0  0
 15 16  1  0  0  0  0
 16 17  2  0  0  0  0
 18 17  1  0  0  0  0
 19 18  2  0  0  0  0
 20 15  2  0  0  0  0
 20 19  1  0  0  0  0
 21 22  1  0  0  0  0
 22 23  2  0  0  0  0
 24  1  1  0  0  0  0
 24 23  1  0  0  0  0
 25 24  2  0  0  0  0
 26 25  1  0  0  0  0
 26 21  2  0  0  0  0
 27 31  1  6  0  0  0
 27 30  1  0  0  0  0
 27 21  1  0  0  0  0
 27 28  1  0  0  0  0
 29 38  1  6  0  0  0
 29 28  1  0  0  0  0
 29 35  1  0  0  0  0
 30 29  1  0  0  0  0
 32 31  1  0  0  0  0
 33 31  1  0  0  0  0
 34 31  1  0  0  0  0
 35 36  1  0  0  0  0
 37 35  1  0  0  0  0
 37 36  1  0  0  0  0
 38 39  1  0  0  0  0
M  END
>  <minimizedAffinity>
-12.5219011

$$$$

 OpenBabel11232420103D

 39 45  0  0  1  0  0  0  0  0999 V2000
    0.1640    4.9960   -7.3710 C   0  0  0  0  0  0  0  0  0  0  0  0
    1.3130    4.4340   -7.8850 N   0  0  0  0  0  0  0  0  0  0  0  0
    2.2790    5.2910   -7.6530 C   0  0  0  0  0  0  0  0  0  0  0  0
    1.7890    6.3830   -6.9880 N   0  0  0  0  0  0  0  0  0  0  0  0
    0.4380    6.2200   -6.7750 C   0  0  0  0  0  0  0  0  0  0  0  0
    2.6740    7.4240   -6.5110 C   0  0  0  0  0  2  0  0  0  0  0  0
    3.8160    7.6040   -7.3720 O   0  0  0  0  0  0  0  0  0  0  0  0
    4.4000    6.4500   -7.8430 C   0  0  0  0  0  0  0  0  0  0  0  0
    5.7390    6.5510   -8.2200 C   0  0  0  0  0  3  0  0  0  0  0  0
    6.3970    5.4360   -8.7340 C   0  0  0  0  0  3  0  0  0  0  0  0
    5.7120    4.2300   -8.8770 C   0  0  0  0  0  3  0  0  0  0  0  0
    4.3610    4.1300   -8.5190 C   0  0  0  0  0  0  0  0  0  0  0  0
    3.6110    2.5870   -8.7310 Cl  0  0  0  0  0  0  0  0  0  0  0  0
    3.6870    5.2480   -8.0060 C   0  0  0  0  0  0  0  0  0  0  0  0
   -0.3840    7.1610   -6.0270 C   0  0  0  0  0  0  0  0  0  0  0  0
   -0.9090    6.8060   -4.7780 C   0  0  0  0  0  3  0  0  0  0  0  0
   -1.7040    7.7080   -4.0680 C   0  0  0  0  0  3  0  0  0  0  0  0
   -1.9790    8.9670   -4.6030 C   0  0  0  0  0  3  0  0  0  0  0  0
   -1.4560    9.3270   -5.8440 C   0  0  0  0  0  3  0  0  0  0  0  0
   -0.6590    8.4280   -6.5550 C   0  0  0  0  0  3  0  0  0  0  0  0
   -3.7280    3.1450   -7.5990 C   0  0  0  0  0  0  0  0  0  0  0  0
   -3.4220    4.3500   -8.2580 C   0  0  0  0  0  3  0  0  0  0  0  0
   -2.1470    4.9230   -8.2010 C   0  0  0  0  0  3  0  0  0  0  0  0
   -1.1120    4.3050   -7.4920 C   0  0  0  0  0  0  0  0  0  0  0  0
   -1.3790    3.0930   -6.8570 C   0  0  0  0  0  3  0  0  0  0  0  0
   -2.6600    2.5250   -6.9160 C   0  0  0  0  0  3  0  0  0  0  0  0
   -5.1820    2.5370   -7.6050 C   0  0  2  0  0  0  0  0  0  0  0  0
   -5.9510    2.3830   -6.2620 C   0  0  0  0  0  2  0  0  0  0  0  0
   -6.6370    1.1100   -6.8700 C   0  0  1  0  0  0  0  0  0  0  0  0
   -5.3530    0.9950   -7.7650 C   0  0  0  0  0  2  0  0  0  0  0  0
   -5.9920    3.2850   -8.6000 N   0  0  0  0  0  4  0  0  0  0  0  0
   -6.9600    2.9100   -8.6160 H   0  0  0  0  0  0  0  0  0  0  0  0
   -5.6100    3.2060   -9.5480 H   0  0  0  0  0  0  0  0  0  0  0  0
   -6.0520    4.2830   -8.3680 H   0  0  0  0  0  0  0  0  0  0  0  0
   -6.9540    0.0050   -5.8800 C   0  0  0  0  0  3  0  0  0  0  0  0
   -7.9490    0.1540   -4.7630 C   0  0  0  0  0  2  0  0  0  0  0  0
   -8.2030   -0.8330   -5.8710 C   0  0  0  0  0  2  0  0  0  0  0  0
   -7.7920    1.4690   -7.6880 O   0  0  0  0  0  0  0  0  0  0  0  0
   -8.3380    0.6540   -7.7130 H   0  0  0  0  0  0  0  0  0  0  0  0
  1  5  2  0  0  0  0
  2  3  2  0  0  0  0
  2  1  1  0  0  0  0
  3  4  1  0  0  0  0
  4  5  1  0  0  0  0
  4  6  1  0  0  0  0
  5 15  1  0  0  0  0
  7  6  1  0  0  0  0
  8  7  1  0  0  0  0
  9  8  2  0  0  0  0
 10  9  1  0  0  0  0
 11 10  2  0  0  0  0
 11 12  1  0  0  0  0
 12 14  2  0  0  0  0
 13 12  1  0  0  0  0
 14  8  1  0  0  0  0
 14  3  1  0  0  0  0
 15 16  1  0  0  0  0
 16 17  2  0  0  0  0
 18 17  1  0  0  0  0
 19 18  2  0  0  0  0
 20 15  2  0  0  0  0
 20 19  1  0  0  0  0
 21 26  1  0  0  0  0
 22 23  1  0  0  0  0
 22 21  2  0  0  0  0
 23 24  2  0  0  0  0
 24  1  1  0  0  0  0
 24 25  1  0  0  0  0
 26 25  2  0  0  0  0
 27 31  1  6  0  0  0
 27 21  1  0  0  0  0
 27 28  1  0  0  0  0
 29 38  1  6  0  0  0
 29 28  1  0  0  0  0
 29 35  1  0  0  0  0
 30 27  1  0  0  0  0
 30 29  1  0  0  0  0
 31 34  1  0  0  0  0
 32 31  1  0  0  0  0
 33 31  1  0  0  0  0
 35 37  1  0  0  0  0
 35 36  1  0  0  0  0
 37 36  1  0  0  0  0
 39 38  1  0  0  0  0
M  END
>  <minimizedAffinity>
-11.1154013

$$$$

 OpenBabel11232420103D

 39 45  0  0  1  0  0  0  0  0999 V2000
    0.2300    4.9370   -7.3380 C   0  0  0  0  0  0  0  0  0  0  0  0
   -1.0680    4.8350   -6.8870 N   0  0  0  0  0  0  0  0  0  0  0  0
   -1.5710    3.7610   -7.4490 C   0  0  0  0  0  0  0  0  0  0  0  0
   -0.6290    3.1570   -8.2370 N   0  0  0  0  0  0  0  0  0  0  0  0
    0.5450    3.8740   -8.1760 C   0  0  0  0  0  0  0  0  0  0  0  0
   -0.8960    1.8880   -8.8790 C   0  0  0  0  0  2  0  0  0  0  0  0
   -2.2840    1.7430   -9.2410 O   0  0  0  0  0  0  0  0  0  0  0  0
   -3.1960    2.1790   -8.3080 C   0  0  0  0  0  0  0  0  0  0  0  0
   -4.4680    1.6090   -8.3800 C   0  0  0  0  0  3  0  0  0  0  0  0
   -5.4580    2.0160   -7.4900 C   0  0  0  0  0  3  0  0  0  0  0  0
   -5.1770    2.9970   -6.5390 C   0  0  0  0  0  3  0  0  0  0  0  0
   -3.9070    3.5880   -6.4780 C   0  0  0  0  0  0  0  0  0  0  0  0
   -3.6660    4.7880   -5.2570 Cl  0  0  0  0  0  0  0  0  0  0  0  0
   -2.9050    3.1890   -7.3730 C   0  0  0  0  0  0  0  0  0  0  0  0
    1.7790    3.4680   -8.8350 C   0  0  0  0  0  0  0  0  0  0  0  0
    2.7360    2.7130   -8.1460 C   0  0  0  0  0  3  0  0  0  0  0  0
    3.9210    2.3330   -8.7790 C   0  0  0  0  0  3  0  0  0  0  0  0
    4.1550    2.7070  -10.1020 C   0  0  0  0  0  3  0  0  0  0  0  0
    3.2050    3.4560  -10.7950 C   0  0  0  0  0  3  0  0  0  0  0  0
    2.0180    3.8350  -10.1650 C   0  0  0  0  0  3  0  0  0  0  0  0
    2.8800    8.0670   -5.9940 C   0  0  0  0  0  0  0  0  0  0  0  0
    3.2570    7.1180   -6.9620 C   0  0  0  0  0  3  0  0  0  0  0  0
    2.3770    6.1270   -7.4110 C   0  0  0  0  0  3  0  0  0  0  0  0
    1.0690    6.0500   -6.9220 C   0  0  0  0  0  0  0  0  0  0  0  0
    0.6590    6.9980   -5.9850 C   0  0  0  0  0  3  0  0  0  0  0  0
    1.5460    7.9880   -5.5370 C   0  0  0  0  0  3  0  0  0  0  0  0
    3.8920    9.1380   -5.4360 C   0  0  2  0  0  0  0  0  0  0  0  0
    5.3380    8.7010   -5.0640 C   0  0  0  0  0  2  0  0  0  0  0  0
    5.3140    9.7950   -3.9400 C   0  0  1  0  0  0  0  0  0  0  0  0
    3.7580    9.6010   -3.9530 C   0  0  0  0  0  2  0  0  0  0  0  0
    3.9080   10.2900   -6.3720 N   0  0  0  0  0  4  0  0  0  0  0  0
    4.5780   11.0080   -6.0320 H   0  0  0  0  0  0  0  0  0  0  0  0
    2.9880   10.7350   -6.4550 H   0  0  0  0  0  0  0  0  0  0  0  0
    4.2080   10.0120   -7.3130 H   0  0  0  0  0  0  0  0  0  0  0  0
    6.0940    9.4550   -2.6830 C   0  0  0  0  0  3  0  0  0  0  0  0
    7.2540   10.2710   -2.1820 C   0  0  0  0  0  2  0  0  0  0  0  0
    5.9930   10.1750   -1.3670 C   0  0  0  0  0  2  0  0  0  0  0  0
    5.6640   11.1090   -4.4700 O   0  0  0  0  0  0  0  0  0  0  0  0
    5.9700   11.6160   -3.6880 H   0  0  0  0  0  0  0  0  0  0  0  0
  1 24  1  0  0  0  0
  1  2  1  0  0  0  0
  3 14  1  0  0  0  0
  3  2  2  0  0  0  0
  4  5  1  0  0  0  0
  4  3  1  0  0  0  0
  5  1  2  0  0  0  0
  6  4  1  0  0  0  0
  7  6  1  0  0  0  0
  7  8  1  0  0  0  0
  8 14  1  0  0  0  0
  9  8  2  0  0  0  0
  9 10  1  0  0  0  0
 10 11  2  0  0  0  0
 11 12  1  0  0  0  0
 12 13  1  0  0  0  0
 14 12  2  0  0  0  0
 15  5  1  0  0  0  0
 15 16  1  0  0  0  0
 17 16  2  0  0  0  0
 18 17  1  0  0  0  0
 19 20  1  0  0  0  0
 19 18  2  0  0  0  0
 20 15  2  0  0  0  0
 21 26  1  0  0  0  0
 21 27  1  0  0  0  0
 22 21  2  0  0  0  0
 23 22  1  0  0  0  0
 23 24  2  0  0  0  0
 24 25  1  0  0  0  0
 25 26  2  0  0  0  0
 27 31  1  6  0  0  0
 27 28  1  0  0  0  0
 27 30  1  0  0  0  0
 28 29  1  0  0  0  0
 29 38  1  6  0  0  0
 29 35  1  0  0  0  0
 30 29  1  0  0  0  0
 31 32  1  0  0  0  0
 33 31  1  0  0  0  0
 34 31  1  0  0  0  0
 35 36  1  0  0  0  0
 35 37  1  0  0  0  0
 36 37  1  0  0  0  0
 38 39  1  0  0  0  0
M  END
>  <minimizedAffinity>
-11.0901184

$$$$

 OpenBabel11232420103D

 39 45  0  0  1  0  0  0  0  0999 V2000
   -2.1110    4.4410   -6.6360 C   0  0  0  0  0  0  0  0  0  0  0  0
   -3.2970    4.1010   -6.0220 N   0  0  0  0  0  0  0  0  0  0  0  0
   -3.7750    3.0750   -6.6860 C   0  0  0  0  0  0  0  0  0  0  0  0
   -2.9220    2.7320   -7.7000 N   0  0  0  0  0  0  0  0  0  0  0  0
   -1.8340    3.5770   -7.6870 C   0  0  0  0  0  0  0  0  0  0  0  0
   -3.1620    1.5570   -8.5110 C   0  0  0  0  0  2  0  0  0  0  0  0
   -4.5680    1.2930   -8.6830 O   0  0  0  0  0  0  0  0  0  0  0  0
   -5.3490    1.4520   -7.5610 C   0  0  0  0  0  0  0  0  0  0  0  0
   -6.5500    0.7400   -7.5440 C   0  0  0  0  0  3  0  0  0  0  0  0
   -7.4120    0.8680   -6.4590 C   0  0  0  0  0  3  0  0  0  0  0  0
   -7.0770    1.7120   -5.4010 C   0  0  0  0  0  3  0  0  0  0  0  0
   -5.8830    2.4460   -5.4240 C   0  0  0  0  0  0  0  0  0  0  0  0
   -5.5640    3.4570   -4.0580 Cl  0  0  0  0  0  0  0  0  0  0  0  0
   -5.0100    2.3290   -6.5150 C   0  0  0  0  0  0  0  0  0  0  0  0
   -0.6940    3.4450   -8.5840 C   0  0  0  0  0  0  0  0  0  0  0  0
    0.5380    2.9860   -8.1030 C   0  0  0  0  0  3  0  0  0  0  0  0
    1.6300    2.8700   -8.9640 C   0  0  0  0  0  3  0  0  0  0  0  0
    1.4970    3.2120  -10.3100 C   0  0  0  0  0  3  0  0  0  0  0  0
    0.2710    3.6670  -10.7960 C   0  0  0  0  0  3  0  0  0  0  0  0
   -0.8230    3.7810   -9.9370 C   0  0  0  0  0  3  0  0  0  0  0  0
    0.3660    7.6310   -5.1130 C   0  0  0  0  0  0  0  0  0  0  0  0
    0.7990    6.7510   -6.1230 C   0  0  0  0  0  3  0  0  0  0  0  0
   -0.0270    5.7410   -6.6290 C   0  0  0  0  0  3  0  0  0  0  0  0
   -1.3320    5.5740   -6.1570 C   0  0  0  0  0  0  0  0  0  0  0  0
   -1.7970    6.4520   -5.1790 C   0  0  0  0  0  3  0  0  0  0  0  0
   -0.9650    7.4620   -4.6740 C   0  0  0  0  0  3  0  0  0  0  0  0
    1.3190    8.7220   -4.4930 C   0  0  2  0  0  0  0  0  0  0  0  0
    2.2930    9.5010   -5.4210 C   0  0  0  0  0  2  0  0  0  0  0  0
    3.2930    9.5690   -4.2140 C   0  0  1  0  0  0  0  0  0  0  0  0
    2.5880    8.2590   -3.7150 C   0  0  0  0  0  2  0  0  0  0  0  0
    0.4900    9.6550   -3.6870 N   0  0  0  0  0  4  0  0  0  0  0  0
    1.0950   10.3920   -3.2750 H   0  0  0  0  0  0  0  0  0  0  0  0
    0.0080    9.1780   -2.9170 H   0  0  0  0  0  0  0  0  0  0  0  0
   -0.2200   10.1240   -4.2600 H   0  0  0  0  0  0  0  0  0  0  0  0
    4.7640    9.5270   -4.5830 C   0  0  0  0  0  3  0  0  0  0  0  0
    5.5780   10.7540   -4.8830 C   0  0  0  0  0  2  0  0  0  0  0  0
    5.9050    9.9100   -3.6810 C   0  0  0  0  0  2  0  0  0  0  0  0
    2.9770   10.6830   -3.3250 O   0  0  0  0  0  0  0  0  0  0  0  0
    3.8150   10.8610   -2.8460 H   0  0  0  0  0  0  0  0  0  0  0  0
  1 24  1  0  0  0  0
  1  2  1  0  0  0  0
  3 14  1  0  0  0  0
  3  2  2  0  0  0  0
  4  5  1  0  0  0  0
  4  3  1  0  0  0  0
  5  1  2  0  0  0  0
  6  4  1  0  0  0  0
  7  6  1  0  0  0  0
  7  8  1  0  0  0  0
  8  9  2  0  0  0  0
  8 14  1  0  0  0  0
  9 10  1  0  0  0  0
 10 11  2  0  0  0  0
 12 11  1  0  0  0  0
 12 13  1  0  0  0  0
 14 12  2  0  0  0  0
 15 16  1  0  0  0  0
 15  5  1  0  0  0  0
 17 16  2  0  0  0  0
 18 17  1  0  0  0  0
 19 18  2  0  0  0  0
 19 20  1  0  0  0  0
 20 15  2  0  0  0  0
 21 26  1  0  0  0  0
 21 27  1  0  0  0  0
 22 21  2  0  0  0  0
 23 24  2  0  0  0  0
 23 22  1  0  0  0  0
 24 25  1  0  0  0  0
 25 26  2  0  0  0  0
 27 30  1  0  0  0  0
 27 31  1  1  0  0  0
 28 27  1  0  0  0  0
 28 29  1  0  0  0  0
 29 30  1  0  0  0  0
 29 38  1  1  0  0  0
 31 32  1  0  0  0  0
 31 33  1  0  0  0  0
 34 31  1  0  0  0  0
 35 29  1  0  0  0  0
 35 37  1  0  0  0  0
 36 35  1  0  0  0  0
 36 37  1  0  0  0  0
 38 39  1  0  0  0  0
M  END
>  <minimizedAffinity>
-10.6754036

$$$$

 OpenBabel11232420103D

 39 45  0  0  1  0  0  0  0  0999 V2000
    0.9830    6.0210   -6.8280 C   0  0  0  0  0  0  0  0  0  0  0  0
    1.1000    7.0440   -5.9120 N   0  0  0  0  0  0  0  0  0  0  0  0
    2.3660    7.3880   -5.9030 C   0  0  0  0  0  0  0  0  0  0  0  0
    3.0670    6.6270   -6.8010 N   0  0  0  0  0  0  0  0  0  0  0  0
    2.2080    5.7510   -7.4250 C   0  0  0  0  0  0  0  0  0  0  0  0
    4.4660    6.8880   -7.0670 C   0  0  0  0  0  2  0  0  0  0  0  0
    5.1580    7.3820   -5.9030 O   0  0  0  0  0  0  0  0  0  0  0  0
    4.4780    8.3130   -5.1520 C   0  0  0  0  0  0  0  0  0  0  0  0
    5.2630    9.1610   -4.3690 C   0  0  0  0  0  3  0  0  0  0  0  0
    4.6520   10.1120   -3.5560 C   0  0  0  0  0  3  0  0  0  0  0  0
    3.2610   10.2060   -3.5210 C   0  0  0  0  0  3  0  0  0  0  0  0
    2.4690    9.3410   -4.2890 C   0  0  0  0  0  0  0  0  0  0  0  0
    0.7560    9.5490   -4.1750 Cl  0  0  0  0  0  0  0  0  0  0  0  0
    3.0730    8.3760   -5.1070 C   0  0  0  0  0  0  0  0  0  0  0  0
    2.6080    4.8460   -8.4940 C   0  0  0  0  0  0  0  0  0  0  0  0
    3.9560    4.5160   -8.6770 C   0  0  0  0  0  3  0  0  0  0  0  0
    4.3360    3.6560   -9.7090 C   0  0  0  0  0  3  0  0  0  0  0  0
    3.3700    3.1220  -10.5620 C   0  0  0  0  0  3  0  0  0  0  0  0
    2.0260    3.4440  -10.3830 C   0  0  0  0  0  3  0  0  0  0  0  0
    1.6440    4.3030   -9.3510 C   0  0  0  0  0  3  0  0  0  0  0  0
   -2.7190    3.9720   -7.6830 C   0  0  0  0  0  0  0  0  0  0  0  0
   -1.6420    3.3490   -7.0240 C   0  0  0  0  0  3  0  0  0  0  0  0
   -0.4590    4.0350   -6.7260 C   0  0  0  0  0  3  0  0  0  0  0  0
   -0.3050    5.3840   -7.0600 C   0  0  0  0  0  0  0  0  0  0  0  0
   -1.3690    6.0340   -7.6850 C   0  0  0  0  0  3  0  0  0  0  0  0
   -2.5510    5.3410   -7.9830 C   0  0  0  0  0  3  0  0  0  0  0  0
   -4.0220    3.1810   -8.0820 C   0  0  2  0  0  0  0  0  0  0  0  0
   -5.2820    3.2780   -7.1760 C   0  0  0  0  0  2  0  0  0  0  0  0
   -5.6220    1.8050   -7.5930 C   0  0  1  0  0  0  0  0  0  0  0  0
   -4.0790    1.6450   -7.8250 C   0  0  0  0  0  2  0  0  0  0  0  0
   -4.3510    3.5150   -9.4910 N   0  0  0  0  0  4  0  0  0  0  0  0
   -5.2150    3.0140   -9.7760 H   0  0  0  0  0  0  0  0  0  0  0  0
   -3.6040    3.2450  -10.1380 H   0  0  0  0  0  0  0  0  0  0  0  0
   -4.5240    4.5190   -9.6130 H   0  0  0  0  0  0  0  0  0  0  0  0
   -6.3040    0.9670   -6.5280 C   0  0  0  0  0  3  0  0  0  0  0  0
   -7.7960    0.8100   -6.4280 C   0  0  0  0  0  2  0  0  0  0  0  0
   -6.9330   -0.3820   -6.7440 C   0  0  0  0  0  2  0  0  0  0  0  0
   -6.3310    1.7650   -8.8680 O   0  0  0  0  0  0  0  0  0  0  0  0
   -6.7990    0.9020   -8.8620 H   0  0  0  0  0  0  0  0  0  0  0  0
  1  2  1  0  0  0  0
  2  3  2  0  0  0  0
  3 14  1  0  0  0  0
  4  3  1  0  0  0  0
  5  1  2  0  0  0  0
  5  4  1  0  0  0  0
  6  4  1  0  0  0  0
  6  7  1  0  0  0  0
  7  8  1  0  0  0  0
  8 14  2  0  0  0  0
  8  9  1  0  0  0  0
  9 10  2  0  0  0  0
 10 11  1  0  0  0  0
 12 13  1  0  0  0  0
 12 11  2  0  0  0  0
 14 12  1  0  0  0  0
 15  5  1  0  0  0  0
 16 15  1  0  0  0  0
 17 16  2  0  0  0  0
 18 19  2  0  0  0  0
 18 17  1  0  0  0  0
 19 20  1  0  0  0  0
 20 15  2  0  0  0  0
 21 22  1  0  0  0  0
 22 23  2  0  0  0  0
 24  1  1  0  0  0  0
 24 23  1  0  0  0  0
 25 24  2  0  0  0  0
 26 25  1  0  0  0  0
 26 21  2  0  0  0  0
 27 31  1  6  0  0  0
 27 30  1  0  0  0  0
 27 21  1  0  0  0  0
 27 28  1  0  0  0  0
 29 38  1  6  0  0  0
 29 28  1  0  0  0  0
 29 35  1  0  0  0  0
 30 29  1  0  0  0  0
 32 31  1  0  0  0  0
 33 31  1  0  0  0  0
 34 31  1  0  0  0  0
 35 36  1  0  0  0  0
 37 35  1  0  0  0  0
 37 36  1  0  0  0  0
 38 39  1  0  0  0  0
M  END
>  <minimizedAffinity>
-10.5873518

$$$$

 OpenBabel11232420103D

 39 45  0  0  1  0  0  0  0  0999 V2000
    0.8230    5.8950   -6.5070 C   0  0  0  0  0  0  0  0  0  0  0  0
    1.2140    6.9110   -5.6610 N   0  0  0  0  0  0  0  0  0  0  0  0
    2.4470    7.2140   -5.9930 C   0  0  0  0  0  0  0  0  0  0  0  0
    2.8570    6.4350   -7.0410 N   0  0  0  0  0  0  0  0  0  0  0  0
    1.8350    5.5890   -7.4090 C   0  0  0  0  0  0  0  0  0  0  0  0
    4.1410    6.6520   -7.6740 C   0  0  0  0  0  2  0  0  0  0  0  0
    5.1350    7.1190   -6.7400 O   0  0  0  0  0  0  0  0  0  0  0  0
    4.7110    8.0680   -5.8380 C   0  0  0  0  0  0  0  0  0  0  0  0
    5.7030    8.8880   -5.2990 C   0  0  0  0  0  3  0  0  0  0  0  0
    5.3620    9.8550   -4.3570 C   0  0  0  0  0  3  0  0  0  0  0  0
    4.0350    9.9930   -3.9510 C   0  0  0  0  0  3  0  0  0  0  0  0
    3.0390    9.1570   -4.4750 C   0  0  0  0  0  0  0  0  0  0  0  0
    1.4270    9.4190   -3.9080 Cl  0  0  0  0  0  0  0  0  0  0  0  0
    3.3720    8.1760   -5.4190 C   0  0  0  0  0  0  0  0  0  0  0  0
    1.9050    4.6760   -8.5410 C   0  0  0  0  0  0  0  0  0  0  0  0
    3.1430    4.2130   -9.0040 C   0  0  0  0  0  3  0  0  0  0  0  0
    3.2060    3.3450  -10.0960 C   0  0  0  0  0  3  0  0  0  0  0  0
    2.0330    2.9370  -10.7300 C   0  0  0  0  0  3  0  0  0  0  0  0
    0.7970    3.3910  -10.2720 C   0  0  0  0  0  3  0  0  0  0  0  0
    0.7320    4.2570   -9.1790 C   0  0  0  0  0  3  0  0  0  0  0  0
   -3.1550    4.3140   -5.9600 C   0  0  0  0  0  0  0  0  0  0  0  0
   -2.9140    5.5840   -6.5160 C   0  0  0  0  0  3  0  0  0  0  0  0
   -1.6170    6.0710   -6.7170 C   0  0  0  0  0  3  0  0  0  0  0  0
   -0.4990    5.3010   -6.3830 C   0  0  0  0  0  0  0  0  0  0  0  0
   -0.7100    4.0260   -5.8590 C   0  0  0  0  0  3  0  0  0  0  0  0
   -2.0110    3.5430   -5.6590 C   0  0  0  0  0  3  0  0  0  0  0  0
   -4.6140    3.7940   -5.6690 C   0  0  2  0  0  0  0  0  0  0  0  0
   -5.8300    4.7030   -6.0040 C   0  0  0  0  0  2  0  0  0  0  0  0
   -6.5730    4.0590   -4.7820 C   0  0  1  0  0  0  0  0  0  0  0  0
   -5.1380    3.8050   -4.2000 C   0  0  0  0  0  2  0  0  0  0  0  0
   -4.7600    2.4550   -6.2940 N   0  0  0  0  0  4  0  0  0  0  0  0
   -5.7200    2.0940   -6.1260 H   0  0  0  0  0  0  0  0  0  0  0  0
   -4.0970    1.7740   -5.9110 H   0  0  0  0  0  0  0  0  0  0  0  0
   -4.6210    2.4930   -7.3100 H   0  0  0  0  0  0  0  0  0  0  0  0
   -7.5240    4.9770   -4.0390 C   0  0  0  0  0  3  0  0  0  0  0  0
   -8.4580    4.5050   -2.9600 C   0  0  0  0  0  2  0  0  0  0  0  0
   -7.3480    5.4640   -2.6270 C   0  0  0  0  0  2  0  0  0  0  0  0
   -7.1990    2.7920   -5.1500 O   0  0  0  0  0  0  0  0  0  0  0  0
   -7.9030    2.6630   -4.4780 H   0  0  0  0  0  0  0  0  0  0  0  0
  1 24  1  0  0  0  0
  1  2  1  0  0  0  0
  3  2  2  0  0  0  0
  3 14  1  0  0  0  0
  4  3  1  0  0  0  0
  5  4  1  0  0  0  0
  5  1  2  0  0  0  0
  6  4  1  0  0  0  0
  6  7  1  0  0  0  0
  7  8  1  0  0  0  0
  8 14  2  0  0  0  0
  8  9  1  0  0  0  0
  9 10  2  0  0  0  0
 10 11  1  0  0  0  0
 12 11  2  0  0  0  0
 12 13  1  0  0  0  0
 14 12  1  0  0  0  0
 15  5  1  0  0  0  0
 16 15  1  0  0  0  0
 17 16  2  0  0  0  0
 18 19  2  0  0  0  0
 18 17  1  0  0  0  0
 19 20  1  0  0  0  0
 20 15  2  0  0  0  0
 21 27  1  0  0  0  0
 21 26  1  0  0  0  0
 22 21  2  0  0  0  0
 23 22  1  0  0  0  0
 23 24  2  0  0  0  0
 24 25  1  0  0  0  0
 25 26  2  0  0  0  0
 27 31  1  6  0  0  0
 27 30  1  0  0  0  0
 28 27  1  0  0  0  0
 28 29  1  0  0  0  0
 29 38  1  6  0  0  0
 29 30  1  0  0  0  0
 29 35  1  0  0  0  0
 31 32  1  0  0  0  0
 31 33  1  0  0  0  0
 34 31  1  0  0  0  0
 35 36  1  0  0  0  0
 35 37  1  0  0  0  0
 36 37  1  0  0  0  0
 38 39  1  0  0  0  0
M  END
>  <minimizedAffinity>
-10.1656847

$$$$

 OpenBabel11232420103D

 39 45  0  0  1  0  0  0  0  0999 V2000
   -1.4330    4.3160   -6.8500 C   0  0  0  0  0  0  0  0  0  0  0  0
   -2.4050    3.3490   -6.9880 N   0  0  0  0  0  0  0  0  0  0  0  0
   -3.4180    3.7350   -6.2480 C   0  0  0  0  0  0  0  0  0  0  0  0
   -3.1340    4.9330   -5.6490 N   0  0  0  0  0  0  0  0  0  0  0  0
   -1.8750    5.3450   -6.0270 C   0  0  0  0  0  0  0  0  0  0  0  0
   -4.1330    5.6330   -4.8700 C   0  0  0  0  0  2  0  0  0  0  0  0
   -5.0280    4.7270   -4.1950 O   0  0  0  0  0  0  0  0  0  0  0  0
   -5.4500    3.6430   -4.9280 C   0  0  0  0  0  0  0  0  0  0  0  0
   -6.6560    3.0640   -4.5290 C   0  0  0  0  0  3  0  0  0  0  0  0
   -7.1400    1.9450   -5.2010 C   0  0  0  0  0  3  0  0  0  0  0  0
   -6.4140    1.4030   -6.2610 C   0  0  0  0  0  3  0  0  0  0  0  0
   -5.1920    1.9690   -6.6520 C   0  0  0  0  0  0  0  0  0  0  0  0
   -4.3790    1.2220   -7.9830 Cl  0  0  0  0  0  0  0  0  0  0  0  0
   -4.6930    3.0920   -5.9790 C   0  0  0  0  0  0  0  0  0  0  0  0
   -1.2860    6.6180   -5.6340 C   0  0  0  0  0  0  0  0  0  0  0  0
   -1.4700    7.7580   -6.4260 C   0  0  0  0  0  3  0  0  0  0  0  0
   -0.8960    8.9740   -6.0500 C   0  0  0  0  0  3  0  0  0  0  0  0
   -0.1360    9.0560   -4.8830 C   0  0  0  0  0  3  0  0  0  0  0  0
    0.0470    7.9240   -4.0890 C   0  0  0  0  0  3  0  0  0  0  0  0
   -0.5270    6.7080   -4.4620 C   0  0  0  0  0  3  0  0  0  0  0  0
    2.4150    3.6970   -8.7020 C   0  0  0  0  0  0  0  0  0  0  0  0
    1.3660    2.7650   -8.8050 C   0  0  0  0  0  3  0  0  0  0  0  0
    0.1120    2.9940   -8.2260 C   0  0  0  0  0  3  0  0  0  0  0  0
   -0.1530    4.1760   -7.5270 C   0  0  0  0  0  0  0  0  0  0  0  0
    0.8600    5.1300   -7.4370 C   0  0  0  0  0  3  0  0  0  0  0  0
    2.1140    4.8950   -8.0190 C   0  0  0  0  0  3  0  0  0  0  0  0
    3.8470    3.4090   -9.2930 C   0  0  2  0  0  0  0  0  0  0  0  0
    4.5400    2.0500   -8.9900 C   0  0  0  0  0  2  0  0  0  0  0  0
    5.9130    2.8080   -9.0360 C   0  0  1  0  0  0  0  0  0  0  0  0
    5.0870    4.0760   -8.6240 C   0  0  0  0  0  2  0  0  0  0  0  0
    3.8050    3.6710  -10.7540 N   0  0  0  0  0  4  0  0  0  0  0  0
    4.7370    3.4780  -11.1720 H   0  0  0  0  0  0  0  0  0  0  0  0
    3.5620    4.6440  -10.9670 H   0  0  0  0  0  0  0  0  0  0  0  0
    3.1240    3.0670  -11.2290 H   0  0  0  0  0  0  0  0  0  0  0  0
    6.9810    2.2800   -8.0970 C   0  0  0  0  0  3  0  0  0  0  0  0
    6.7910    1.0690   -7.2250 C   0  0  0  0  0  2  0  0  0  0  0  0
    7.8190    1.0510   -8.3250 C   0  0  0  0  0  2  0  0  0  0  0  0
    6.3980    2.9450  -10.4060 O   0  0  0  0  0  0  0  0  0  0  0  0
    7.3650    3.0820  -10.3120 H   0  0  0  0  0  0  0  0  0  0  0  0
  1  5  2  0  0  0  0
  2  1  1  0  0  0  0
  2  3  2  0  0  0  0
  3 14  1  0  0  0  0
  3  4  1  0  0  0  0
  4  6  1  0  0  0  0
  5  4  1  0  0  0  0
  5 15  1  0  0  0  0
  6  7  1  0  0  0  0
  8  9  1  0  0  0  0
  8  7  1  0  0  0  0
 10  9  2  0  0  0  0
 11 10  1  0  0  0  0
 12 11  2  0  0  0  0
 12 14  1  0  0  0  0
 13 12  1  0  0  0  0
 14  8  2  0  0  0  0
 15 20  1  0  0  0  0
 16 17  1  0  0  0  0
 16 15  2  0  0  0  0
 17 18  2  0  0  0  0
 18 19  1  0  0  0  0
 20 19  2  0  0  0  0
 21 26  1  0  0  0  0
 22 21  2  0  0  0  0
 22 23  1  0  0  0  0
 23 24  2  0  0  0  0
 24 25  1  0  0  0  0
 24  1  1  0  0  0  0
 26 25  2  0  0  0  0
 27 31  1  6  0  0  0
 27 28  1  0  0  0  0
 27 21  1  0  0  0  0
 27 30  1  0  0  0  0
 29 38  1  6  0  0  0
 29 28  1  0  0  0  0
 29 30  1  0  0  0  0
 29 35  1  0  0  0  0
 32 31  1  0  0  0  0
 33 31  1  0  0  0  0
 34 31  1  0  0  0  0
 35 36  1  0  0  0  0
 37 35  1  0  0  0  0
 37 36  1  0  0  0  0
 38 39  1  0  0  0  0
M  END
>  <minimizedAffinity>
-10.0243979

$$$$
