
 OpenBabel11232420103D

 39 45  0  0  1  0  0  0  0  0999 V2000
    0.2300    4.9370   -7.3380 C   0  0  0  0  0  0  0  0  0  0  0  0
   -1.0680    4.8350   -6.8870 N   0  0  0  0  0  0  0  0  0  0  0  0
   -1.5710    3.7610   -7.4490 C   0  0  0  0  0  0  0  0  0  0  0  0
   -0.6290    3.1570   -8.2370 N   0  0  0  0  0  0  0  0  0  0  0  0
    0.5450    3.8740   -8.1760 C   0  0  0  0  0  0  0  0  0  0  0  0
   -0.8960    1.8880   -8.8790 C   0  0  0  0  0  2  0  0  0  0  0  0
   -2.2840    1.7430   -9.2410 O   0  0  0  0  0  0  0  0  0  0  0  0
   -3.1960    2.1790   -8.3080 C   0  0  0  0  0  0  0  0  0  0  0  0
   -4.4680    1.6090   -8.3800 C   0  0  0  0  0  3  0  0  0  0  0  0
   -5.4580    2.0160   -7.4900 C   0  0  0  0  0  3  0  0  0  0  0  0
   -5.1770    2.9970   -6.5390 C   0  0  0  0  0  3  0  0  0  0  0  0
   -3.9070    3.5880   -6.4780 C   0  0  0  0  0  0  0  0  0  0  0  0
   -3.6660    4.7880   -5.2570 Cl  0  0  0  0  0  0  0  0  0  0  0  0
   -2.9050    3.1890   -7.3730 C   0  0  0  0  0  0  0  0  0  0  0  0
    1.7790    3.4680   -8.8350 C   0  0  0  0  0  0  0  0  0  0  0  0
    2.7360    2.7130   -8.1460 C   0  0  0  0  0  3  0  0  0  0  0  0
    3.9210    2.3330   -8.7790 C   0  0  0  0  0  3  0  0  0  0  0  0
    4.1550    2.7070  -10.1020 C   0  0  0  0  0  3  0  0  0  0  0  0
    3.2050    3.4560  -10.7950 C   0  0  0  0  0  3  0  0  0  0  0  0
    2.0180    3.8350  -10.1650 C   0  0  0  0  0  3  0  0  0  0  0  0
    2.8800    8.0670   -5.9940 C   0  0  0  0  0  0  0  0  0  0  0  0
    3.2570    7.1180   -6.9620 C   0  0  0  0  0  3  0  0  0  0  0  0
    2.3770    6.1270   -7.4110 C   0  0  0  0  0  3  0  0  0  0  0  0
    1.0690    6.0500   -6.9220 C   0  0  0  0  0  0  0  0  0  0  0  0
    0.6590    6.9980   -5.9850 C   0  0  0  0  0  3  0  0  0  0  0  0
    1.5460    7.9880   -5.5370 C   0  0  0  0  0  3  0  0  0  0  0  0
    3.8920    9.1380   -5.4360 C   0  0  2  0  0  0  0  0  0  0  0  0
    5.3380    8.7010   -5.0640 C   0  0  0  0  0  2  0  0  0  0  0  0
    5.3140    9.7950   -3.9400 C   0  0  1  0  0  0  0  0  0  0  0  0
    3.7580    9.6010   -3.9530 C   0  0  0  0  0  2  0  0  0  0  0  0
    3.9080   10.2900   -6.3720 N   0  0  0  0  0  4  0  0  0  0  0  0
    4.5780   11.0080   -6.0320 H   0  0  0  0  0  0  0  0  0  0  0  0
    2.9880   10.7350   -6.4550 H   0  0  0  0  0  0  0  0  0  0  0  0
    4.2080   10.0120   -7.3130 H   0  0  0  0  0  0  0  0  0  0  0  0
    6.0940    9.4550   -2.6830 C   0  0  0  0  0  3  0  0  0  0  0  0
    7.2540   10.2710   -2.1820 C   0  0  0  0  0  2  0  0  0  0  0  0
    5.9930   10.1750   -1.3670 C   0  0  0  0  0  2  0  0  0  0  0  0
    5.6640   11.1090   -4.4700 O   0  0  0  0  0  0  0  0  0  0  0  0
    5.9700   11.6160   -3.6880 H   0  0  0  0  0  0  0  0  0  0  0  0
  1 24  1  0  0  0  0
  1  2  1  0  0  0  0
  3 14  1  0  0  0  0
  3  2  2  0  0  0  0
  4  5  1  0  0  0  0
  4  3  1  0  0  0  0
  5  1  2  0  0  0  0
  6  4  1  0  0  0  0
  7  6  1  0  0  0  0
  7  8  1  0  0  0  0
  8 14  1  0  0  0  0
  9  8  2  0  0  0  0
  9 10  1  0  0  0  0
 10 11  2  0  0  0  0
 11 12  1  0  0  0  0
 12 13  1  0  0  0  0
 14 12  2  0  0  0  0
 15  5  1  0  0  0  0
 15 16  1  0  0  0  0
 17 16  2  0  0  0  0
 18 17  1  0  0  0  0
 19 20  1  0  0  0  0
 19 18  2  0  0  0  0
 20 15  2  0  0  0  0
 21 26  1  0  0  0  0
 21 27  1  0  0  0  0
 22 21  2  0  0  0  0
 23 22  1  0  0  0  0
 23 24  2  0  0  0  0
 24 25  1  0  0  0  0
 25 26  2  0  0  0  0
 27 31  1  6  0  0  0
 27 28  1  0  0  0  0
 27 30  1  0  0  0  0
 28 29  1  0  0  0  0
 29 38  1  6  0  0  0
 29 35  1  0  0  0  0
 30 29  1  0  0  0  0
 31 32  1  0  0  0  0
 33 31  1  0  0  0  0
 34 31  1  0  0  0  0
 35 36  1  0  0  0  0
 35 37  1  0  0  0  0
 36 37  1  0  0  0  0
 38 39  1  0  0  0  0
M  END
>  <minimizedAffinity>
-11.0901184

$$$$
