
 OpenBabel11232420103D

 39 45  0  0  1  0  0  0  0  0999 V2000
    0.8230    5.8950   -6.5070 C   0  0  0  0  0  0  0  0  0  0  0  0
    1.2140    6.9110   -5.6610 N   0  0  0  0  0  0  0  0  0  0  0  0
    2.4470    7.2140   -5.9930 C   0  0  0  0  0  0  0  0  0  0  0  0
    2.8570    6.4350   -7.0410 N   0  0  0  0  0  0  0  0  0  0  0  0
    1.8350    5.5890   -7.4090 C   0  0  0  0  0  0  0  0  0  0  0  0
    4.1410    6.6520   -7.6740 C   0  0  0  0  0  2  0  0  0  0  0  0
    5.1350    7.1190   -6.7400 O   0  0  0  0  0  0  0  0  0  0  0  0
    4.7110    8.0680   -5.8380 C   0  0  0  0  0  0  0  0  0  0  0  0
    5.7030    8.8880   -5.2990 C   0  0  0  0  0  3  0  0  0  0  0  0
    5.3620    9.8550   -4.3570 C   0  0  0  0  0  3  0  0  0  0  0  0
    4.0350    9.9930   -3.9510 C   0  0  0  0  0  3  0  0  0  0  0  0
    3.0390    9.1570   -4.4750 C   0  0  0  0  0  0  0  0  0  0  0  0
    1.4270    9.4190   -3.9080 Cl  0  0  0  0  0  0  0  0  0  0  0  0
    3.3720    8.1760   -5.4190 C   0  0  0  0  0  0  0  0  0  0  0  0
    1.9050    4.6760   -8.5410 C   0  0  0  0  0  0  0  0  0  0  0  0
    3.1430    4.2130   -9.0040 C   0  0  0  0  0  3  0  0  0  0  0  0
    3.2060    3.3450  -10.0960 C   0  0  0  0  0  3  0  0  0  0  0  0
    2.0330    2.9370  -10.7300 C   0  0  0  0  0  3  0  0  0  0  0  0
    0.7970    3.3910  -10.2720 C   0  0  0  0  0  3  0  0  0  0  0  0
    0.7320    4.2570   -9.1790 C   0  0  0  0  0  3  0  0  0  0  0  0
   -3.1550    4.3140   -5.9600 C   0  0  0  0  0  0  0  0  0  0  0  0
   -2.9140    5.5840   -6.5160 C   0  0  0  0  0  3  0  0  0  0  0  0
   -1.6170    6.0710   -6.7170 C   0  0  0  0  0  3  0  0  0  0  0  0
   -0.4990    5.3010   -6.3830 C   0  0  0  0  0  0  0  0  0  0  0  0
   -0.7100    4.0260   -5.8590 C   0  0  0  0  0  3  0  0  0  0  0  0
   -2.0110    3.5430   -5.6590 C   0  0  0  0  0  3  0  0  0  0  0  0
   -4.6140    3.7940   -5.6690 C   0  0  2  0  0  0  0  0  0  0  0  0
   -5.8300    4.7030   -6.0040 C   0  0  0  0  0  2  0  0  0  0  0  0
   -6.5730    4.0590   -4.7820 C   0  0  1  0  0  0  0  0  0  0  0  0
   -5.1380    3.8050   -4.2000 C   0  0  0  0  0  2  0  0  0  0  0  0
   -4.7600    2.4550   -6.2940 N   0  0  0  0  0  4  0  0  0  0  0  0
   -5.7200    2.0940   -6.1260 H   0  0  0  0  0  0  0  0  0  0  0  0
   -4.0970    1.7740   -5.9110 H   0  0  0  0  0  0  0  0  0  0  0  0
   -4.6210    2.4930   -7.3100 H   0  0  0  0  0  0  0  0  0  0  0  0
   -7.5240    4.9770   -4.0390 C   0  0  0  0  0  3  0  0  0  0  0  0
   -8.4580    4.5050   -2.9600 C   0  0  0  0  0  2  0  0  0  0  0  0
   -7.3480    5.4640   -2.6270 C   0  0  0  0  0  2  0  0  0  0  0  0
   -7.1990    2.7920   -5.1500 O   0  0  0  0  0  0  0  0  0  0  0  0
   -7.9030    2.6630   -4.4780 H   0  0  0  0  0  0  0  0  0  0  0  0
  1 24  1  0  0  0  0
  1  2  1  0  0  0  0
  3  2  2  0  0  0  0
  3 14  1  0  0  0  0
  4  3  1  0  0  0  0
  5  4  1  0  0  0  0
  5  1  2  0  0  0  0
  6  4  1  0  0  0  0
  6  7  1  0  0  0  0
  7  8  1  0  0  0  0
  8 14  2  0  0  0  0
  8  9  1  0  0  0  0
  9 10  2  0  0  0  0
 10 11  1  0  0  0  0
 12 11  2  0  0  0  0
 12 13  1  0  0  0  0
 14 12  1  0  0  0  0
 15  5  1  0  0  0  0
 16 15  1  0  0  0  0
 17 16  2  0  0  0  0
 18 19  2  0  0  0  0
 18 17  1  0  0  0  0
 19 20  1  0  0  0  0
 20 15  2  0  0  0  0
 21 27  1  0  0  0  0
 21 26  1  0  0  0  0
 22 21  2  0  0  0  0
 23 22  1  0  0  0  0
 23 24  2  0  0  0  0
 24 25  1  0  0  0  0
 25 26  2  0  0  0  0
 27 31  1  6  0  0  0
 27 30  1  0  0  0  0
 28 27  1  0  0  0  0
 28 29  1  0  0  0  0
 29 38  1  6  0  0  0
 29 30  1  0  0  0  0
 29 35  1  0  0  0  0
 31 32  1  0  0  0  0
 31 33  1  0  0  0  0
 34 31  1  0  0  0  0
 35 36  1  0  0  0  0
 35 37  1  0  0  0  0
 36 37  1  0  0  0  0
 38 39  1  0  0  0  0
M  END
>  <minimizedAffinity>
-10.1656847

$$$$
