
 OpenBabel11232420443D

 39 45  0  0  1  0  0  0  0  0999 V2000
  -19.9900   20.9540   11.4950 C   0  0  0  0  0  0  0  0  0  0  0  0
  -20.8060   20.3740   12.4440 N   0  0  0  0  0  0  0  0  0  0  0  0
  -20.7810   19.0820   12.2100 C   0  0  0  0  0  0  0  0  0  0  0  0
  -19.9650   18.8120   11.1450 N   0  0  0  0  0  0  0  0  0  0  0  0
  -19.4250   19.9870   10.6730 C   0  0  0  0  0  0  0  0  0  0  0  0
  -19.6770   17.4470   10.7550 C   0  0  0  0  0  2  0  0  0  0  0  0
  -20.7840   16.5610   11.0130 O   0  0  0  0  0  0  0  0  0  0  0  0
  -21.4360   16.7470   12.2100 C   0  0  0  0  0  0  0  0  0  0  0  0
  -22.1260   15.6440   12.7100 C   0  0  0  0  0  3  0  0  0  0  0  0
  -22.8380   15.7550   13.9020 C   0  0  0  0  0  3  0  0  0  0  0  0
  -22.8640   16.9720   14.5820 C   0  0  0  0  0  3  0  0  0  0  0  0
  -22.1910   18.0890   14.0720 C   0  0  0  0  0  0  0  0  0  0  0  0
  -22.2840   19.5450   15.0000 Cl  0  0  0  0  0  0  0  0  0  0  0  0
  -21.4760   17.9890   12.8690 C   0  0  0  0  0  0  0  0  0  0  0  0
  -18.4470   20.0540    9.5960 C   0  0  0  0  0  0  0  0  0  0  0  0
  -17.3460   20.9130    9.6900 C   0  0  0  0  0  3  0  0  0  0  0  0
  -16.4140   20.9760    8.6520 C   0  0  0  0  0  3  0  0  0  0  0  0
  -16.5780   20.1820    7.5190 C   0  0  0  0  0  3  0  0  0  0  0  0
  -17.6710   19.3220    7.4200 C   0  0  0  0  0  3  0  0  0  0  0  0
  -18.6020   19.2550    8.4580 C   0  0  0  0  0  3  0  0  0  0  0  0
  -19.3170   25.2070   11.1880 C   0  0  0  0  0  0  0  0  0  0  0  0
  -19.9600   24.4660   10.1770 C   0  0  0  0  0  3  0  0  0  0  0  0
  -20.1990   23.0930   10.3060 C   0  0  0  0  0  3  0  0  0  0  0  0
  -19.8170   22.3990   11.4590 C   0  0  0  0  0  0  0  0  0  0  0  0
  -19.2070   23.1160   12.4870 C   0  0  0  0  0  3  0  0  0  0  0  0
  -18.9700   24.4920   12.3530 C   0  0  0  0  0  3  0  0  0  0  0  0
  -18.9800   26.7360   11.0130 C   0  0  2  0  0  0  0  0  0  0  0  0
  -17.6030   27.1490   10.4190 C   0  0  0  0  0  2  0  0  0  0  0  0
  -17.6600   28.4250   11.3310 C   0  0  1  0  0  0  0  0  0  0  0  0
  -18.5770   27.5660   12.2690 C   0  0  0  0  0  2  0  0  0  0  0  0
  -20.0930   27.3740   10.2680 N   0  0  0  0  0  4  0  0  0  0  0  0
  -19.8890   28.3830   10.1300 H   0  0  0  0  0  0  0  0  0  0  0  0
  -20.9870   27.3000   10.7670 H   0  0  0  0  0  0  0  0  0  0  0  0
  -20.2200   26.9570    9.3390 H   0  0  0  0  0  0  0  0  0  0  0  0
  -16.3210   28.9150   11.8490 C   0  0  0  0  0  3  0  0  0  0  0  0
  -15.6490   30.1680   11.3590 C   0  0  0  0  0  2  0  0  0  0  0  0
  -16.1160   30.0740   12.7860 C   0  0  0  0  0  2  0  0  0  0  0  0
  -18.4360   29.4900   10.7030 O   0  0  0  0  0  0  0  0  0  0  0  0
  -18.1240   30.3110   11.1410 H   0  0  0  0  0  0  0  0  0  0  0  0
  1  2  1  0  0  0  0
  3  2  2  0  0  0  0
  3 14  1  0  0  0  0
  4  3  1  0  0  0  0
  5  4  1  0  0  0  0
  5  1  2  0  0  0  0
  6  7  1  0  0  0  0
  6  4  1  0  0  0  0
  7  8  1  0  0  0  0
  8  9  2  0  0  0  0
  8 14  1  0  0  0  0
  9 10  1  0  0  0  0
 10 11  2  0  0  0  0
 12 11  1  0  0  0  0
 12 13  1  0  0  0  0
 14 12  2  0  0  0  0
 15 16  1  0  0  0  0
 15  5  1  0  0  0  0
 17 16  2  0  0  0  0
 18 17  1  0  0  0  0
 19 18  2  0  0  0  0
 19 20  1  0  0  0  0
 20 15  2  0  0  0  0
 21 26  1  0  0  0  0
 22 23  1  0  0  0  0
 22 21  2  0  0  0  0
 23 24  2  0  0  0  0
 24  1  1  0  0  0  0
 24 25  1  0  0  0  0
 26 25  2  0  0  0  0
 27 31  1  6  0  0  0
 27 21  1  0  0  0  0
 27 30  1  0  0  0  0
 28 27  1  0  0  0  0
 28 29  1  0  0  0  0
 29 38  1  6  0  0  0
 29 35  1  0  0  0  0
 29 30  1  0  0  0  0
 31 33  1  0  0  0  0
 32 31  1  0  0  0  0
 34 31  1  0  0  0  0
 35 37  1  0  0  0  0
 36 35  1  0  0  0  0
 36 37  1  0  0  0  0
 38 39  1  0  0  0  0
M  END
>  <minimizedAffinity>
-11.8532286

$$$$
