
 OpenBabel11232420443D

 39 45  0  0  1  0  0  0  0  0999 V2000
  -18.5260   21.5590   10.3260 C   0  0  0  0  0  0  0  0  0  0  0  0
  -18.7370   22.7290   11.0240 N   0  0  0  0  0  0  0  0  0  0  0  0
  -18.0050   23.6460   10.4360 C   0  0  0  0  0  0  0  0  0  0  0  0
  -17.3370   23.1040    9.3710 N   0  0  0  0  0  0  0  0  0  0  0  0
  -17.6620   21.7710    9.2580 C   0  0  0  0  0  0  0  0  0  0  0  0
  -16.5490   23.9350    8.4850 C   0  0  0  0  0  2  0  0  0  0  0  0
  -15.9510   25.0510    9.1730 O   0  0  0  0  0  0  0  0  0  0  0  0
  -16.7550   25.6950   10.0860 C   0  0  0  0  0  0  0  0  0  0  0  0
  -16.4240   27.0190   10.3670 C   0  0  0  0  0  3  0  0  0  0  0  0
  -17.1690   27.7340   11.3020 C   0  0  0  0  0  3  0  0  0  0  0  0
  -18.2330   27.1170   11.9590 C   0  0  0  0  0  3  0  0  0  0  0  0
  -18.5540   25.7790   11.6960 C   0  0  0  0  0  0  0  0  0  0  0  0
  -19.8960   25.1160   12.5620 Cl  0  0  0  0  0  0  0  0  0  0  0  0
  -17.8070   25.0490   10.7600 C   0  0  0  0  0  0  0  0  0  0  0  0
  -17.1920   20.9110    8.1820 C   0  0  0  0  0  0  0  0  0  0  0  0
  -17.8760   20.8620    6.9620 C   0  0  0  0  0  3  0  0  0  0  0  0
  -17.4220   20.0320    5.9350 C   0  0  0  0  0  3  0  0  0  0  0  0
  -16.2850   19.2490    6.1230 C   0  0  0  0  0  3  0  0  0  0  0  0
  -15.5960   19.2950    7.3340 C   0  0  0  0  0  3  0  0  0  0  0  0
  -16.0470   20.1270    8.3610 C   0  0  0  0  0  3  0  0  0  0  0  0
  -20.3040   17.8960   11.7610 C   0  0  0  0  0  0  0  0  0  0  0  0
  -20.3880   19.1090   12.4720 C   0  0  0  0  0  3  0  0  0  0  0  0
  -19.8330   20.2950   11.9770 C   0  0  0  0  0  3  0  0  0  0  0  0
  -19.1790   20.3260   10.7410 C   0  0  0  0  0  0  0  0  0  0  0  0
  -19.1110   19.1450   10.0040 C   0  0  0  0  0  3  0  0  0  0  0  0
  -19.6680   17.9590   10.5030 C   0  0  0  0  0  3  0  0  0  0  0  0
  -20.8610   16.5450   12.3500 C   0  0  2  0  0  0  0  0  0  0  0  0
  -21.5660   16.5530   13.7370 C   0  0  0  0  0  2  0  0  0  0  0  0
  -21.0010   15.1080   13.9660 C   0  0  1  0  0  0  0  0  0  0  0  0
  -19.8590   15.5270   12.9750 C   0  0  0  0  0  2  0  0  0  0  0  0
  -21.7190   15.9090   11.3210 N   0  0  0  0  0  4  0  0  0  0  0  0
  -22.1090   15.0200   11.6910 H   0  0  0  0  0  0  0  0  0  0  0  0
  -21.2000   15.6920   10.4630 H   0  0  0  0  0  0  0  0  0  0  0  0
  -22.5120   16.5070   11.0620 H   0  0  0  0  0  0  0  0  0  0  0  0
  -20.6470   14.7670   15.4010 C   0  0  0  0  0  3  0  0  0  0  0  0
  -21.2820   13.6380   16.1670 C   0  0  0  0  0  2  0  0  0  0  0  0
  -19.8120   13.5960   15.8430 C   0  0  0  0  0  2  0  0  0  0  0  0
  -21.8580   14.1000   13.3510 O   0  0  0  0  0  0  0  0  0  0  0  0
  -21.6460   13.2710   13.8310 H   0  0  0  0  0  0  0  0  0  0  0  0
  1 24  1  0  0  0  0
  1  2  1  0  0  0  0
  3 14  1  0  0  0  0
  3  2  2  0  0  0  0
  4  3  1  0  0  0  0
  5  4  1  0  0  0  0
  5  1  2  0  0  0  0
  6  7  1  0  0  0  0
  6  4  1  0  0  0  0
  7  8  1  0  0  0  0
  8  9  2  0  0  0  0
  8 14  1  0  0  0  0
  9 10  1  0  0  0  0
 10 11  2  0  0  0  0
 12 11  1  0  0  0  0
 12 13  1  0  0  0  0
 14 12  2  0  0  0  0
 15 20  1  0  0  0  0
 15  5  1  0  0  0  0
 16 15  2  0  0  0  0
 17 18  2  0  0  0  0
 17 16  1  0  0  0  0
 18 19  1  0  0  0  0
 19 20  2  0  0  0  0
 21 27  1  0  0  0  0
 21 22  1  0  0  0  0
 23 22  2  0  0  0  0
 24 23  1  0  0  0  0
 25 26  1  0  0  0  0
 25 24  2  0  0  0  0
 26 21  2  0  0  0  0
 27 31  1  6  0  0  0
 27 30  1  0  0  0  0
 27 28  1  0  0  0  0
 28 29  1  0  0  0  0
 29 38  1  6  0  0  0
 29 35  1  0  0  0  0
 30 29  1  0  0  0  0
 31 32  1  0  0  0  0
 33 31  1  0  0  0  0
 34 31  1  0  0  0  0
 35 37  1  0  0  0  0
 35 36  1  0  0  0  0
 37 36  1  0  0  0  0
 38 39  1  0  0  0  0
M  END
>  <minimizedAffinity>
-12.1674805

$$$$
