
 OpenBabel11232420443D

 39 45  0  0  1  0  0  0  0  0999 V2000
  -18.0760   30.3180   13.1450 C   0  0  0  0  0  0  0  0  0  0  0  0
  -18.6470   30.5170   14.3850 N   0  0  0  0  0  0  0  0  0  0  0  0
  -18.2180   31.6840   14.8050 C   0  0  0  0  0  0  0  0  0  0  0  0
  -17.3960   32.2490   13.8680 N   0  0  0  0  0  0  0  0  0  0  0  0
  -17.2970   31.4100   12.7810 C   0  0  0  0  0  0  0  0  0  0  0  0
  -16.8800   33.5910   14.0420 C   0  0  0  0  0  2  0  0  0  0  0  0
  -16.6660   33.9180   15.4290 O   0  0  0  0  0  0  0  0  0  0  0  0
  -17.6450   33.5040   16.3020 C   0  0  0  0  0  0  0  0  0  0  0  0
  -17.7400   34.2150   17.4980 C   0  0  0  0  0  3  0  0  0  0  0  0
  -18.6860   33.8420   18.4500 C   0  0  0  0  0  3  0  0  0  0  0  0
  -19.5250   32.7550   18.2060 C   0  0  0  0  0  3  0  0  0  0  0  0
  -19.4170   32.0240   17.0150 C   0  0  0  0  0  0  0  0  0  0  0  0
  -20.5100   30.7000   16.8140 Cl  0  0  0  0  0  0  0  0  0  0  0  0
  -18.4640   32.3880   16.0520 C   0  0  0  0  0  0  0  0  0  0  0  0
  -16.5640   31.7400   11.5670 C   0  0  0  0  0  0  0  0  0  0  0  0
  -15.2540   31.2860   11.3830 C   0  0  0  0  0  3  0  0  0  0  0  0
  -14.5550   31.6090   10.2180 C   0  0  0  0  0  3  0  0  0  0  0  0
  -15.1630   32.3880    9.2340 C   0  0  0  0  0  3  0  0  0  0  0  0
  -16.4700   32.8410    9.4100 C   0  0  0  0  0  3  0  0  0  0  0  0
  -17.1710   32.5160   10.5730 C   0  0  0  0  0  3  0  0  0  0  0  0
  -18.9340   26.5780   11.1680 C   0  0  0  0  0  0  0  0  0  0  0  0
  -19.9470   27.4360   11.6400 C   0  0  0  0  0  3  0  0  0  0  0  0
  -19.6520   28.6610   12.2510 C   0  0  0  0  0  3  0  0  0  0  0  0
  -18.3300   29.0910   12.4070 C   0  0  0  0  0  0  0  0  0  0  0  0
  -17.3120   28.2740   11.9190 C   0  0  0  0  0  3  0  0  0  0  0  0
  -17.6110   27.0470   11.3070 C   0  0  0  0  0  3  0  0  0  0  0  0
  -19.2610   25.1670   10.5490 C   0  0  2  0  0  0  0  0  0  0  0  0
  -18.8020   23.8820   11.2970 C   0  0  0  0  0  2  0  0  0  0  0  0
  -18.6250   23.2010    9.8950 C   0  0  1  0  0  0  0  0  0  0  0  0
  -18.4050   24.6550    9.3510 C   0  0  0  0  0  2  0  0  0  0  0  0
  -20.7130   25.1170   10.2470 N   0  0  0  0  0  4  0  0  0  0  0  0
  -20.9560   24.1900    9.8470 H   0  0  0  0  0  0  0  0  0  0  0  0
  -20.9930   25.8340    9.5700 H   0  0  0  0  0  0  0  0  0  0  0  0
  -21.2820   25.2460   11.0910 H   0  0  0  0  0  0  0  0  0  0  0  0
  -17.4930   22.1960    9.7990 C   0  0  0  0  0  3  0  0  0  0  0  0
  -17.7090   20.7110    9.6790 C   0  0  0  0  0  2  0  0  0  0  0  0
  -17.0680   21.4720    8.5500 C   0  0  0  0  0  2  0  0  0  0  0  0
  -19.8890   22.6630    9.4040 O   0  0  0  0  0  0  0  0  0  0  0  0
  -19.6270   21.9790    8.7500 H   0  0  0  0  0  0  0  0  0  0  0  0
  1  2  1  0  0  0  0
  2  3  2  0  0  0  0
  3 14  1  0  0  0  0
  4  6  1  0  0  0  0
  4  3  1  0  0  0  0
  5  1  2  0  0  0  0
  5  4  1  0  0  0  0
  6  7  1  0  0  0  0
  7  8  1  0  0  0  0
  8  9  1  0  0  0  0
  9 10  2  0  0  0  0
 11 10  1  0  0  0  0
 12 11  2  0  0  0  0
 13 12  1  0  0  0  0
 14  8  2  0  0  0  0
 14 12  1  0  0  0  0
 15  5  1  0  0  0  0
 16 15  1  0  0  0  0
 17 16  2  0  0  0  0
 18 19  2  0  0  0  0
 18 17  1  0  0  0  0
 19 20  1  0  0  0  0
 20 15  2  0  0  0  0
 21 26  2  0  0  0  0
 21 22  1  0  0  0  0
 22 23  2  0  0  0  0
 23 24  1  0  0  0  0
 24  1  1  0  0  0  0
 25 24  2  0  0  0  0
 26 25  1  0  0  0  0
 27 31  1  6  0  0  0
 27 21  1  0  0  0  0
 27 28  1  0  0  0  0
 29 38  1  6  0  0  0
 29 28  1  0  0  0  0
 30 29  1  0  0  0  0
 30 27  1  0  0  0  0
 31 34  1  0  0  0  0
 32 31  1  0  0  0  0
 33 31  1  0  0  0  0
 35 29  1  0  0  0  0
 36 35  1  0  0  0  0
 37 36  1  0  0  0  0
 37 35  1  0  0  0  0
 39 38  1  0  0  0  0
M  END
>  <minimizedAffinity>
-10.6926813

$$$$
