
 OpenBabel11232420443D

 39 45  0  0  1  0  0  0  0  0999 V2000
  -18.7990   20.3030   10.2030 C   0  0  0  0  0  0  0  0  0  0  0  0
  -18.0330   19.6110    9.2880 N   0  0  0  0  0  0  0  0  0  0  0  0
  -17.3560   20.5140    8.6180 C   0  0  0  0  0  0  0  0  0  0  0  0
  -17.6530   21.7670    9.0810 N   0  0  0  0  0  0  0  0  0  0  0  0
  -18.5620   21.6700   10.1110 C   0  0  0  0  0  0  0  0  0  0  0  0
  -16.9510   22.9320    8.5840 C   0  0  0  0  0  2  0  0  0  0  0  0
  -16.5620   22.7850    7.2040 O   0  0  0  0  0  0  0  0  0  0  0  0
  -16.0650   21.5530    6.8470 C   0  0  0  0  0  0  0  0  0  0  0  0
  -15.2320   21.5280    5.7290 C   0  0  0  0  0  3  0  0  0  0  0  0
  -14.7100   20.3160    5.2830 C   0  0  0  0  0  3  0  0  0  0  0  0
  -15.0310   19.1350    5.9510 C   0  0  0  0  0  3  0  0  0  0  0  0
  -15.8850   19.1530    7.0610 C   0  0  0  0  0  0  0  0  0  0  0  0
  -16.2110   17.6320    7.8170 Cl  0  0  0  0  0  0  0  0  0  0  0  0
  -16.4210   20.3670    7.5150 C   0  0  0  0  0  0  0  0  0  0  0  0
  -19.0330   22.8090   10.8860 C   0  0  0  0  0  0  0  0  0  0  0  0
  -18.3890   23.1740   12.0740 C   0  0  0  0  0  3  0  0  0  0  0  0
  -18.8470   24.2650   12.8150 C   0  0  0  0  0  3  0  0  0  0  0  0
  -19.9500   24.9930   12.3730 C   0  0  0  0  0  3  0  0  0  0  0  0
  -20.5940   24.6370   11.1890 C   0  0  0  0  0  3  0  0  0  0  0  0
  -20.1350   23.5480   10.4450 C   0  0  0  0  0  3  0  0  0  0  0  0
  -21.3210   18.2680   13.0540 C   0  0  0  0  0  0  0  0  0  0  0  0
  -21.1960   19.6700   13.0180 C   0  0  0  0  0  3  0  0  0  0  0  0
  -20.3990   20.3170   12.0670 C   0  0  0  0  0  3  0  0  0  0  0  0
  -19.6990   19.5910   11.0980 C   0  0  0  0  0  0  0  0  0  0  0  0
  -19.8310   18.2030   11.0930 C   0  0  0  0  0  3  0  0  0  0  0  0
  -20.6320   17.5590   12.0480 C   0  0  0  0  0  3  0  0  0  0  0  0
  -22.1580   17.5350   14.1700 C   0  0  2  0  0  0  0  0  0  0  0  0
  -22.9050   18.3810   15.2410 C   0  0  0  0  0  2  0  0  0  0  0  0
  -22.6460   17.2150   16.2580 C   0  0  1  0  0  0  0  0  0  0  0  0
  -21.4030   16.8730   15.3630 C   0  0  0  0  0  2  0  0  0  0  0  0
  -23.0810   16.5810   13.5070 N   0  0  0  0  0  4  0  0  0  0  0  0
  -23.6530   16.0930   14.2240 H   0  0  0  0  0  0  0  0  0  0  0  0
  -22.5790   15.8690   12.9670 H   0  0  0  0  0  0  0  0  0  0  0  0
  -23.7290   17.0580   12.8700 H   0  0  0  0  0  0  0  0  0  0  0  0
  -22.4260   17.6430   17.6960 C   0  0  0  0  0  3  0  0  0  0  0  0
  -23.5430   17.8210   18.6890 C   0  0  0  0  0  2  0  0  0  0  0  0
  -22.5130   16.7450   18.9000 C   0  0  0  0  0  2  0  0  0  0  0  0
  -23.6580   16.1720   16.1370 O   0  0  0  0  0  0  0  0  0  0  0  0
  -23.6340   15.7040   16.9990 H   0  0  0  0  0  0  0  0  0  0  0  0
  1 24  1  0  0  0  0
  2  1  1  0  0  0  0
  3  4  1  0  0  0  0
  3  2  2  0  0  0  0
  4  5  1  0  0  0  0
  5  1  2  0  0  0  0
  5 15  1  0  0  0  0
  6  4  1  0  0  0  0
  7  6  1  0  0  0  0
  8  7  1  0  0  0  0
  8 14  1  0  0  0  0
  9  8  2  0  0  0  0
 10  9  1  0  0  0  0
 10 11  2  0  0  0  0
 11 12  1  0  0  0  0
 12 14  2  0  0  0  0
 12 13  1  0  0  0  0
 14  3  1  0  0  0  0
 15 16  1  0  0  0  0
 16 17  2  0  0  0  0
 18 17  1  0  0  0  0
 19 18  2  0  0  0  0
 20 15  2  0  0  0  0
 20 19  1  0  0  0  0
 21 27  1  0  0  0  0
 22 21  1  0  0  0  0
 23 22  2  0  0  0  0
 24 23  1  0  0  0  0
 25 24  2  0  0  0  0
 25 26  1  0  0  0  0
 26 21  2  0  0  0  0
 27 31  1  6  0  0  0
 27 28  1  0  0  0  0
 27 30  1  0  0  0  0
 28 29  1  0  0  0  0
 29 38  1  6  0  0  0
 29 35  1  0  0  0  0
 30 29  1  0  0  0  0
 31 32  1  0  0  0  0
 33 31  1  0  0  0  0
 34 31  1  0  0  0  0
 35 36  1  0  0  0  0
 35 37  1  0  0  0  0
 36 37  1  0  0  0  0
 38 39  1  0  0  0  0
M  END
>  <minimizedAffinity>
-10.9897318

$$$$
