
 OpenBabel11232420443D

 39 45  0  0  1  0  0  0  0  0999 V2000
  -19.4960   20.4390   11.0550 C   0  0  0  0  0  0  0  0  0  0  0  0
  -20.2150   19.8560   12.0770 N   0  0  0  0  0  0  0  0  0  0  0  0
  -20.4360   18.6150   11.7100 C   0  0  0  0  0  0  0  0  0  0  0  0
  -19.8700   18.3780   10.4870 N   0  0  0  0  0  0  0  0  0  0  0  0
  -19.2410   19.5200   10.0440 C   0  0  0  0  0  0  0  0  0  0  0  0
  -19.8730   17.0500    9.9090 C   0  0  0  0  0  2  0  0  0  0  0  0
  -21.0440   16.2970   10.2810 O   0  0  0  0  0  0  0  0  0  0  0  0
  -21.4410   16.4110   11.5940 C   0  0  0  0  0  0  0  0  0  0  0  0
  -22.1990   15.3560   12.0990 C   0  0  0  0  0  3  0  0  0  0  0  0
  -22.6660   15.4060   13.4100 C   0  0  0  0  0  3  0  0  0  0  0  0
  -22.3820   16.5160   14.2060 C   0  0  0  0  0  3  0  0  0  0  0  0
  -21.6390   17.5880   13.6940 C   0  0  0  0  0  0  0  0  0  0  0  0
  -21.3390   18.9100   14.7680 Cl  0  0  0  0  0  0  0  0  0  0  0  0
  -21.1690   17.5500   12.3730 C   0  0  0  0  0  0  0  0  0  0  0  0
  -18.4670   19.5930    8.8130 C   0  0  0  0  0  0  0  0  0  0  0  0
  -18.6670   20.6440    7.9110 C   0  0  0  0  0  3  0  0  0  0  0  0
  -17.9250   20.7070    6.7300 C   0  0  0  0  0  3  0  0  0  0  0  0
  -16.9810   19.7220    6.4470 C   0  0  0  0  0  3  0  0  0  0  0  0
  -16.7740   18.6740    7.3430 C   0  0  0  0  0  3  0  0  0  0  0  0
  -17.5140   18.6110    8.5250 C   0  0  0  0  0  3  0  0  0  0  0  0
  -18.4470   24.6260   11.0630 C   0  0  0  0  0  0  0  0  0  0  0  0
  -19.7820   24.1790   11.0870 C   0  0  0  0  0  3  0  0  0  0  0  0
  -20.1050   22.8180   11.1160 C   0  0  0  0  0  3  0  0  0  0  0  0
  -19.1060   21.8390   11.1360 C   0  0  0  0  0  0  0  0  0  0  0  0
  -17.7760   22.2570   11.1450 C   0  0  0  0  0  3  0  0  0  0  0  0
  -17.4570   23.6230   11.1160 C   0  0  0  0  0  3  0  0  0  0  0  0
  -18.0830   26.1560   10.9540 C   0  0  2  0  0  0  0  0  0  0  0  0
  -18.8450   27.1840   11.8380 C   0  0  0  0  0  2  0  0  0  0  0  0
  -18.6770   28.2210   10.6720 C   0  0  1  0  0  0  0  0  0  0  0  0
  -18.6060   26.9680    9.7310 C   0  0  0  0  0  2  0  0  0  0  0  0
  -16.6150   26.2960   11.1190 N   0  0  0  0  0  4  0  0  0  0  0  0
  -16.3510   27.2990   11.0620 H   0  0  0  0  0  0  0  0  0  0  0  0
  -16.0930   25.7930   10.3940 H   0  0  0  0  0  0  0  0  0  0  0  0
  -16.2980   25.9470   12.0300 H   0  0  0  0  0  0  0  0  0  0  0  0
  -19.8190   29.2060   10.5080 C   0  0  0  0  0  3  0  0  0  0  0  0
  -19.8530   30.5550   11.1740 C   0  0  0  0  0  2  0  0  0  0  0  0
  -19.7830   30.4570    9.6740 C   0  0  0  0  0  2  0  0  0  0  0  0
  -17.3780   28.8810   10.7330 O   0  0  0  0  0  0  0  0  0  0  0  0
  -17.5030   29.7150   10.2310 H   0  0  0  0  0  0  0  0  0  0  0  0
  1 24  1  0  0  0  0
  1  2  1  0  0  0  0
  3  2  2  0  0  0  0
  3 14  1  0  0  0  0
  4  3  1  0  0  0  0
  5  4  1  0  0  0  0
  5  1  2  0  0  0  0
  6  7  1  0  0  0  0
  6  4  1  0  0  0  0
  7  8  1  0  0  0  0
  8  9  2  0  0  0  0
  8 14  1  0  0  0  0
  9 10  1  0  0  0  0
 10 11  2  0  0  0  0
 12 11  1  0  0  0  0
 12 13  1  0  0  0  0
 14 12  2  0  0  0  0
 15  5  1  0  0  0  0
 16 15  2  0  0  0  0
 17 16  1  0  0  0  0
 18 17  2  0  0  0  0
 18 19  1  0  0  0  0
 19 20  2  0  0  0  0
 20 15  1  0  0  0  0
 21 22  2  0  0  0  0
 21 26  1  0  0  0  0
 22 23  1  0  0  0  0
 23 24  2  0  0  0  0
 24 25  1  0  0  0  0
 26 25  2  0  0  0  0
 27 21  1  0  0  0  0
 27 31  1  1  0  0  0
 27 28  1  0  0  0  0
 29 38  1  1  0  0  0
 29 28  1  0  0  0  0
 30 29  1  0  0  0  0
 30 27  1  0  0  0  0
 31 34  1  0  0  0  0
 32 31  1  0  0  0  0
 33 31  1  0  0  0  0
 35 29  1  0  0  0  0
 35 36  1  0  0  0  0
 37 35  1  0  0  0  0
 37 36  1  0  0  0  0
 39 38  1  0  0  0  0
M  END
>  <minimizedAffinity>
-12.4596825

$$$$

 OpenBabel11232420443D

 39 45  0  0  1  0  0  0  0  0999 V2000
  -18.5260   21.5590   10.3260 C   0  0  0  0  0  0  0  0  0  0  0  0
  -18.7370   22.7290   11.0240 N   0  0  0  0  0  0  0  0  0  0  0  0
  -18.0050   23.6460   10.4360 C   0  0  0  0  0  0  0  0  0  0  0  0
  -17.3370   23.1040    9.3710 N   0  0  0  0  0  0  0  0  0  0  0  0
  -17.6620   21.7710    9.2580 C   0  0  0  0  0  0  0  0  0  0  0  0
  -16.5490   23.9350    8.4850 C   0  0  0  0  0  2  0  0  0  0  0  0
  -15.9510   25.0510    9.1730 O   0  0  0  0  0  0  0  0  0  0  0  0
  -16.7550   25.6950   10.0860 C   0  0  0  0  0  0  0  0  0  0  0  0
  -16.4240   27.0190   10.3670 C   0  0  0  0  0  3  0  0  0  0  0  0
  -17.1690   27.7340   11.3020 C   0  0  0  0  0  3  0  0  0  0  0  0
  -18.2330   27.1170   11.9590 C   0  0  0  0  0  3  0  0  0  0  0  0
  -18.5540   25.7790   11.6960 C   0  0  0  0  0  0  0  0  0  0  0  0
  -19.8960   25.1160   12.5620 Cl  0  0  0  0  0  0  0  0  0  0  0  0
  -17.8070   25.0490   10.7600 C   0  0  0  0  0  0  0  0  0  0  0  0
  -17.1920   20.9110    8.1820 C   0  0  0  0  0  0  0  0  0  0  0  0
  -17.8760   20.8620    6.9620 C   0  0  0  0  0  3  0  0  0  0  0  0
  -17.4220   20.0320    5.9350 C   0  0  0  0  0  3  0  0  0  0  0  0
  -16.2850   19.2490    6.1230 C   0  0  0  0  0  3  0  0  0  0  0  0
  -15.5960   19.2950    7.3340 C   0  0  0  0  0  3  0  0  0  0  0  0
  -16.0470   20.1270    8.3610 C   0  0  0  0  0  3  0  0  0  0  0  0
  -20.3040   17.8960   11.7610 C   0  0  0  0  0  0  0  0  0  0  0  0
  -20.3880   19.1090   12.4720 C   0  0  0  0  0  3  0  0  0  0  0  0
  -19.8330   20.2950   11.9770 C   0  0  0  0  0  3  0  0  0  0  0  0
  -19.1790   20.3260   10.7410 C   0  0  0  0  0  0  0  0  0  0  0  0
  -19.1110   19.1450   10.0040 C   0  0  0  0  0  3  0  0  0  0  0  0
  -19.6680   17.9590   10.5030 C   0  0  0  0  0  3  0  0  0  0  0  0
  -20.8610   16.5450   12.3500 C   0  0  2  0  0  0  0  0  0  0  0  0
  -21.5660   16.5530   13.7370 C   0  0  0  0  0  2  0  0  0  0  0  0
  -21.0010   15.1080   13.9660 C   0  0  1  0  0  0  0  0  0  0  0  0
  -19.8590   15.5270   12.9750 C   0  0  0  0  0  2  0  0  0  0  0  0
  -21.7190   15.9090   11.3210 N   0  0  0  0  0  4  0  0  0  0  0  0
  -22.1090   15.0200   11.6910 H   0  0  0  0  0  0  0  0  0  0  0  0
  -21.2000   15.6920   10.4630 H   0  0  0  0  0  0  0  0  0  0  0  0
  -22.5120   16.5070   11.0620 H   0  0  0  0  0  0  0  0  0  0  0  0
  -20.6470   14.7670   15.4010 C   0  0  0  0  0  3  0  0  0  0  0  0
  -21.2820   13.6380   16.1670 C   0  0  0  0  0  2  0  0  0  0  0  0
  -19.8120   13.5960   15.8430 C   0  0  0  0  0  2  0  0  0  0  0  0
  -21.8580   14.1000   13.3510 O   0  0  0  0  0  0  0  0  0  0  0  0
  -21.6460   13.2710   13.8310 H   0  0  0  0  0  0  0  0  0  0  0  0
  1 24  1  0  0  0  0
  1  2  1  0  0  0  0
  3 14  1  0  0  0  0
  3  2  2  0  0  0  0
  4  3  1  0  0  0  0
  5  4  1  0  0  0  0
  5  1  2  0  0  0  0
  6  7  1  0  0  0  0
  6  4  1  0  0  0  0
  7  8  1  0  0  0  0
  8  9  2  0  0  0  0
  8 14  1  0  0  0  0
  9 10  1  0  0  0  0
 10 11  2  0  0  0  0
 12 11  1  0  0  0  0
 12 13  1  0  0  0  0
 14 12  2  0  0  0  0
 15 20  1  0  0  0  0
 15  5  1  0  0  0  0
 16 15  2  0  0  0  0
 17 18  2  0  0  0  0
 17 16  1  0  0  0  0
 18 19  1  0  0  0  0
 19 20  2  0  0  0  0
 21 27  1  0  0  0  0
 21 22  1  0  0  0  0
 23 22  2  0  0  0  0
 24 23  1  0  0  0  0
 25 26  1  0  0  0  0
 25 24  2  0  0  0  0
 26 21  2  0  0  0  0
 27 31  1  6  0  0  0
 27 30  1  0  0  0  0
 27 28  1  0  0  0  0
 28 29  1  0  0  0  0
 29 38  1  6  0  0  0
 29 35  1  0  0  0  0
 30 29  1  0  0  0  0
 31 32  1  0  0  0  0
 33 31  1  0  0  0  0
 34 31  1  0  0  0  0
 35 37  1  0  0  0  0
 35 36  1  0  0  0  0
 37 36  1  0  0  0  0
 38 39  1  0  0  0  0
M  END
>  <minimizedAffinity>
-12.1674805

$$$$

 OpenBabel11232420443D

 39 45  0  0  1  0  0  0  0  0999 V2000
  -19.9900   20.9540   11.4950 C   0  0  0  0  0  0  0  0  0  0  0  0
  -20.8060   20.3740   12.4440 N   0  0  0  0  0  0  0  0  0  0  0  0
  -20.7810   19.0820   12.2100 C   0  0  0  0  0  0  0  0  0  0  0  0
  -19.9650   18.8120   11.1450 N   0  0  0  0  0  0  0  0  0  0  0  0
  -19.4250   19.9870   10.6730 C   0  0  0  0  0  0  0  0  0  0  0  0
  -19.6770   17.4470   10.7550 C   0  0  0  0  0  2  0  0  0  0  0  0
  -20.7840   16.5610   11.0130 O   0  0  0  0  0  0  0  0  0  0  0  0
  -21.4360   16.7470   12.2100 C   0  0  0  0  0  0  0  0  0  0  0  0
  -22.1260   15.6440   12.7100 C   0  0  0  0  0  3  0  0  0  0  0  0
  -22.8380   15.7550   13.9020 C   0  0  0  0  0  3  0  0  0  0  0  0
  -22.8640   16.9720   14.5820 C   0  0  0  0  0  3  0  0  0  0  0  0
  -22.1910   18.0890   14.0720 C   0  0  0  0  0  0  0  0  0  0  0  0
  -22.2840   19.5450   15.0000 Cl  0  0  0  0  0  0  0  0  0  0  0  0
  -21.4760   17.9890   12.8690 C   0  0  0  0  0  0  0  0  0  0  0  0
  -18.4470   20.0540    9.5960 C   0  0  0  0  0  0  0  0  0  0  0  0
  -17.3460   20.9130    9.6900 C   0  0  0  0  0  3  0  0  0  0  0  0
  -16.4140   20.9760    8.6520 C   0  0  0  0  0  3  0  0  0  0  0  0
  -16.5780   20.1820    7.5190 C   0  0  0  0  0  3  0  0  0  0  0  0
  -17.6710   19.3220    7.4200 C   0  0  0  0  0  3  0  0  0  0  0  0
  -18.6020   19.2550    8.4580 C   0  0  0  0  0  3  0  0  0  0  0  0
  -19.3170   25.2070   11.1880 C   0  0  0  0  0  0  0  0  0  0  0  0
  -19.9600   24.4660   10.1770 C   0  0  0  0  0  3  0  0  0  0  0  0
  -20.1990   23.0930   10.3060 C   0  0  0  0  0  3  0  0  0  0  0  0
  -19.8170   22.3990   11.4590 C   0  0  0  0  0  0  0  0  0  0  0  0
  -19.2070   23.1160   12.4870 C   0  0  0  0  0  3  0  0  0  0  0  0
  -18.9700   24.4920   12.3530 C   0  0  0  0  0  3  0  0  0  0  0  0
  -18.9800   26.7360   11.0130 C   0  0  2  0  0  0  0  0  0  0  0  0
  -17.6030   27.1490   10.4190 C   0  0  0  0  0  2  0  0  0  0  0  0
  -17.6600   28.4250   11.3310 C   0  0  1  0  0  0  0  0  0  0  0  0
  -18.5770   27.5660   12.2690 C   0  0  0  0  0  2  0  0  0  0  0  0
  -20.0930   27.3740   10.2680 N   0  0  0  0  0  4  0  0  0  0  0  0
  -19.8890   28.3830   10.1300 H   0  0  0  0  0  0  0  0  0  0  0  0
  -20.9870   27.3000   10.7670 H   0  0  0  0  0  0  0  0  0  0  0  0
  -20.2200   26.9570    9.3390 H   0  0  0  0  0  0  0  0  0  0  0  0
  -16.3210   28.9150   11.8490 C   0  0  0  0  0  3  0  0  0  0  0  0
  -15.6490   30.1680   11.3590 C   0  0  0  0  0  2  0  0  0  0  0  0
  -16.1160   30.0740   12.7860 C   0  0  0  0  0  2  0  0  0  0  0  0
  -18.4360   29.4900   10.7030 O   0  0  0  0  0  0  0  0  0  0  0  0
  -18.1240   30.3110   11.1410 H   0  0  0  0  0  0  0  0  0  0  0  0
  1  2  1  0  0  0  0
  3  2  2  0  0  0  0
  3 14  1  0  0  0  0
  4  3  1  0  0  0  0
  5  4  1  0  0  0  0
  5  1  2  0  0  0  0
  6  7  1  0  0  0  0
  6  4  1  0  0  0  0
  7  8  1  0  0  0  0
  8  9  2  0  0  0  0
  8 14  1  0  0  0  0
  9 10  1  0  0  0  0
 10 11  2  0  0  0  0
 12 11  1  0  0  0  0
 12 13  1  0  0  0  0
 14 12  2  0  0  0  0
 15 16  1  0  0  0  0
 15  5  1  0  0  0  0
 17 16  2  0  0  0  0
 18 17  1  0  0  0  0
 19 18  2  0  0  0  0
 19 20  1  0  0  0  0
 20 15  2  0  0  0  0
 21 26  1  0  0  0  0
 22 23  1  0  0  0  0
 22 21  2  0  0  0  0
 23 24  2  0  0  0  0
 24  1  1  0  0  0  0
 24 25  1  0  0  0  0
 26 25  2  0  0  0  0
 27 31  1  6  0  0  0
 27 21  1  0  0  0  0
 27 30  1  0  0  0  0
 28 27  1  0  0  0  0
 28 29  1  0  0  0  0
 29 38  1  6  0  0  0
 29 35  1  0  0  0  0
 29 30  1  0  0  0  0
 31 33  1  0  0  0  0
 32 31  1  0  0  0  0
 34 31  1  0  0  0  0
 35 37  1  0  0  0  0
 36 35  1  0  0  0  0
 36 37  1  0  0  0  0
 38 39  1  0  0  0  0
M  END
>  <minimizedAffinity>
-11.8532286

$$$$

 OpenBabel11232420443D

 39 45  0  0  1  0  0  0  0  0999 V2000
  -18.2400   22.6390    9.8470 C   0  0  0  0  0  0  0  0  0  0  0  0
  -17.3360   22.3710    8.8410 N   0  0  0  0  0  0  0  0  0  0  0  0
  -17.3950   21.0770    8.6280 C   0  0  0  0  0  0  0  0  0  0  0  0
  -18.3200   20.5050    9.4590 N   0  0  0  0  0  0  0  0  0  0  0  0
  -18.8960   21.4790   10.2420 C   0  0  0  0  0  0  0  0  0  0  0  0
  -18.6580   19.1010    9.3440 C   0  0  0  0  0  2  0  0  0  0  0  0
  -17.5370   18.3040    8.9120 O   0  0  0  0  0  0  0  0  0  0  0  0
  -16.7630   18.8470    7.9130 C   0  0  0  0  0  0  0  0  0  0  0  0
  -16.0340   17.9430    7.1420 C   0  0  0  0  0  3  0  0  0  0  0  0
  -15.2020   18.4110    6.1280 C   0  0  0  0  0  3  0  0  0  0  0  0
  -15.0950   19.7830    5.8980 C   0  0  0  0  0  3  0  0  0  0  0  0
  -15.8080   20.6960    6.6850 C   0  0  0  0  0  0  0  0  0  0  0  0
  -15.6070   22.3720    6.3080 Cl  0  0  0  0  0  0  0  0  0  0  0  0
  -16.6450   20.2350    7.7110 C   0  0  0  0  0  0  0  0  0  0  0  0
  -19.9790   21.2280   11.1820 C   0  0  0  0  0  0  0  0  0  0  0  0
  -21.0570   22.1160   11.2760 C   0  0  0  0  0  3  0  0  0  0  0  0
  -22.0910   21.8720   12.1810 C   0  0  0  0  0  3  0  0  0  0  0  0
  -22.0520   20.7420   12.9960 C   0  0  0  0  0  3  0  0  0  0  0  0
  -20.9830   19.8520   12.9050 C   0  0  0  0  0  3  0  0  0  0  0  0
  -19.9500   20.0920   11.9980 C   0  0  0  0  0  3  0  0  0  0  0  0
  -18.5050   26.7270   11.2080 C   0  0  0  0  0  0  0  0  0  0  0  0
  -18.5870   26.3740    9.8470 C   0  0  0  0  0  3  0  0  0  0  0  0
  -18.5320   25.0410    9.4240 C   0  0  0  0  0  3  0  0  0  0  0  0
  -18.4030   23.9960   10.3460 C   0  0  0  0  0  0  0  0  0  0  0  0
  -18.3520   24.3180   11.7010 C   0  0  0  0  0  3  0  0  0  0  0  0
  -18.4080   25.6550   12.1200 C   0  0  0  0  0  3  0  0  0  0  0  0
  -18.4920   28.2310   11.6790 C   0  0  2  0  0  0  0  0  0  0  0  0
  -17.4580   28.6850   12.7480 C   0  0  0  0  0  2  0  0  0  0  0  0
  -18.5270   29.7120   13.2610 C   0  0  1  0  0  0  0  0  0  0  0  0
  -19.5880   28.7150   12.6770 C   0  0  0  0  0  2  0  0  0  0  0  0
  -18.4260   29.0940   10.4740 N   0  0  0  0  0  4  0  0  0  0  0  0
  -18.4050   30.0920   10.7600 H   0  0  0  0  0  0  0  0  0  0  0  0
  -19.2340   28.9610    9.8570 H   0  0  0  0  0  0  0  0  0  0  0  0
  -17.5800   28.9150    9.9230 H   0  0  0  0  0  0  0  0  0  0  0  0
  -18.5070   29.9820   14.7530 C   0  0  0  0  0  3  0  0  0  0  0  0
  -18.0280   31.2740   15.3570 C   0  0  0  0  0  2  0  0  0  0  0  0
  -19.4710   30.8670   15.4960 C   0  0  0  0  0  2  0  0  0  0  0  0
  -18.5010   30.9400   12.4740 O   0  0  0  0  0  0  0  0  0  0  0  0
  -18.9090   31.6150   13.0580 H   0  0  0  0  0  0  0  0  0  0  0  0
  1  5  2  0  0  0  0
  1 24  1  0  0  0  0
  2  1  1  0  0  0  0
  3  2  2  0  0  0  0
  3  4  1  0  0  0  0
  4  5  1  0  0  0  0
  5 15  1  0  0  0  0
  6  4  1  0  0  0  0
  7  6  1  0  0  0  0
  8  7  1  0  0  0  0
  9  8  2  0  0  0  0
 10  9  1  0  0  0  0
 11 10  2  0  0  0  0
 11 12  1  0  0  0  0
 12 14  2  0  0  0  0
 13 12  1  0  0  0  0
 14  8  1  0  0  0  0
 14  3  1  0  0  0  0
 15 16  2  0  0  0  0
 15 20  1  0  0  0  0
 16 17  1  0  0  0  0
 17 18  2  0  0  0  0
 19 18  1  0  0  0  0
 20 19  2  0  0  0  0
 21 27  1  0  0  0  0
 21 26  1  0  0  0  0
 22 21  2  0  0  0  0
 23 22  1  0  0  0  0
 23 24  2  0  0  0  0
 24 25  1  0  0  0  0
 25 26  2  0  0  0  0
 27 31  1  6  0  0  0
 27 30  1  0  0  0  0
 27 28  1  0  0  0  0
 28 29  1  0  0  0  0
 29 38  1  6  0  0  0
 29 35  1  0  0  0  0
 30 29  1  0  0  0  0
 31 32  1  0  0  0  0
 33 31  1  0  0  0  0
 34 31  1  0  0  0  0
 35 36  1  0  0  0  0
 35 37  1  0  0  0  0
 36 37  1  0  0  0  0
 38 39  1  0  0  0  0
M  END
>  <minimizedAffinity>
-11.5361557

$$$$

 OpenBabel11232420443D

 39 45  0  0  1  0  0  0  0  0999 V2000
  -22.3950   17.7470   14.1410 C   0  0  0  0  0  0  0  0  0  0  0  0
  -22.6950   16.6400   13.3750 N   0  0  0  0  0  0  0  0  0  0  0  0
  -23.1420   15.7270   14.2060 C   0  0  0  0  0  0  0  0  0  0  0  0
  -23.1500   16.2170   15.4840 N   0  0  0  0  0  0  0  0  0  0  0  0
  -22.6960   17.5160   15.4790 C   0  0  0  0  0  0  0  0  0  0  0  0
  -23.7080   15.4440   16.5750 C   0  0  0  0  0  2  0  0  0  0  0  0
  -23.5310   14.0270   16.3840 O   0  0  0  0  0  0  0  0  0  0  0  0
  -23.7490   13.5590   15.1090 C   0  0  0  0  0  0  0  0  0  0  0  0
  -24.0900   12.2120   14.9990 C   0  0  0  0  0  3  0  0  0  0  0  0
  -24.2990   11.6520   13.7420 C   0  0  0  0  0  3  0  0  0  0  0  0
  -24.1550   12.4390   12.5990 C   0  0  0  0  0  3  0  0  0  0  0  0
  -23.7910   13.7880   12.7040 C   0  0  0  0  0  0  0  0  0  0  0  0
  -23.6480   14.6720   11.2250 Cl  0  0  0  0  0  0  0  0  0  0  0  0
  -23.5730   14.3600   13.9660 C   0  0  0  0  0  0  0  0  0  0  0  0
  -22.6530   18.3650   16.6610 C   0  0  0  0  0  0  0  0  0  0  0  0
  -21.4960   18.4310   17.4450 C   0  0  0  0  0  3  0  0  0  0  0  0
  -21.4620   19.2430   18.5800 C   0  0  0  0  0  3  0  0  0  0  0  0
  -22.5830   19.9910   18.9370 C   0  0  0  0  0  3  0  0  0  0  0  0
  -23.7390   19.9310   18.1580 C   0  0  0  0  0  3  0  0  0  0  0  0
  -23.7730   19.1220   17.0220 C   0  0  0  0  0  3  0  0  0  0  0  0
  -20.9410   21.2720   12.1180 C   0  0  0  0  0  0  0  0  0  0  0  0
  -22.2220   21.2060   12.7010 C   0  0  0  0  0  3  0  0  0  0  0  0
  -22.6660   20.0670   13.3810 C   0  0  0  0  0  3  0  0  0  0  0  0
  -21.8450   18.9430   13.5220 C   0  0  0  0  0  0  0  0  0  0  0  0
  -20.5610   18.9950   12.9810 C   0  0  0  0  0  3  0  0  0  0  0  0
  -20.1200   20.1390   12.3000 C   0  0  0  0  0  3  0  0  0  0  0  0
  -20.4680   22.5250   11.2880 C   0  0  2  0  0  0  0  0  0  0  0  0
  -18.9460   22.7710   11.0840 C   0  0  0  0  0  2  0  0  0  0  0  0
  -19.2540   24.3100   11.0950 C   0  0  1  0  0  0  0  0  0  0  0  0
  -20.5050   23.9300   11.9610 C   0  0  0  0  0  2  0  0  0  0  0  0
  -21.1850   22.5190    9.9890 N   0  0  0  0  0  4  0  0  0  0  0  0
  -20.8810   23.3310    9.4180 H   0  0  0  0  0  0  0  0  0  0  0  0
  -22.2020   22.5810   10.1070 H   0  0  0  0  0  0  0  0  0  0  0  0
  -20.9860   21.6710    9.4470 H   0  0  0  0  0  0  0  0  0  0  0  0
  -18.1730   25.1860   11.6980 C   0  0  0  0  0  3  0  0  0  0  0  0
  -17.1330   25.9030   10.8810 C   0  0  0  0  0  2  0  0  0  0  0  0
  -18.1470   26.6900   11.6670 C   0  0  0  0  0  2  0  0  0  0  0  0
  -19.6750   24.7750    9.7770 O   0  0  0  0  0  0  0  0  0  0  0  0
  -19.4950   25.7390    9.7880 H   0  0  0  0  0  0  0  0  0  0  0  0
  1  5  2  0  0  0  0
  2  1  1  0  0  0  0
  2  3  2  0  0  0  0
  3  4  1  0  0  0  0
  4  6  1  0  0  0  0
  5  4  1  0  0  0  0
  5 15  1  0  0  0  0
  7  6  1  0  0  0  0
  8  7  1  0  0  0  0
  9  8  1  0  0  0  0
 10  9  2  0  0  0  0
 11 12  2  0  0  0  0
 11 10  1  0  0  0  0
 12 14  1  0  0  0  0
 13 12  1  0  0  0  0
 14  3  1  0  0  0  0
 14  8  2  0  0  0  0
 15 20  2  0  0  0  0
 15 16  1  0  0  0  0
 16 17  2  0  0  0  0
 17 18  1  0  0  0  0
 19 18  2  0  0  0  0
 20 19  1  0  0  0  0
 21 26  2  0  0  0  0
 21 22  1  0  0  0  0
 22 23  2  0  0  0  0
 23 24  1  0  0  0  0
 24  1  1  0  0  0  0
 25 24  2  0  0  0  0
 26 25  1  0  0  0  0
 27 31  1  6  0  0  0
 27 30  1  0  0  0  0
 27 21  1  0  0  0  0
 28 29  1  0  0  0  0
 28 27  1  0  0  0  0
 29 38  1  6  0  0  0
 29 35  1  0  0  0  0
 29 30  1  0  0  0  0
 31 33  1  0  0  0  0
 32 31  1  0  0  0  0
 34 31  1  0  0  0  0
 36 37  1  0  0  0  0
 36 35  1  0  0  0  0
 37 35  1  0  0  0  0
 38 39  1  0  0  0  0
M  END
>  <minimizedAffinity>
-11.2984495

$$$$

 OpenBabel11232420443D

 39 45  0  0  1  0  0  0  0  0999 V2000
  -18.7990   20.3030   10.2030 C   0  0  0  0  0  0  0  0  0  0  0  0
  -18.0330   19.6110    9.2880 N   0  0  0  0  0  0  0  0  0  0  0  0
  -17.3560   20.5140    8.6180 C   0  0  0  0  0  0  0  0  0  0  0  0
  -17.6530   21.7670    9.0810 N   0  0  0  0  0  0  0  0  0  0  0  0
  -18.5620   21.6700   10.1110 C   0  0  0  0  0  0  0  0  0  0  0  0
  -16.9510   22.9320    8.5840 C   0  0  0  0  0  2  0  0  0  0  0  0
  -16.5620   22.7850    7.2040 O   0  0  0  0  0  0  0  0  0  0  0  0
  -16.0650   21.5530    6.8470 C   0  0  0  0  0  0  0  0  0  0  0  0
  -15.2320   21.5280    5.7290 C   0  0  0  0  0  3  0  0  0  0  0  0
  -14.7100   20.3160    5.2830 C   0  0  0  0  0  3  0  0  0  0  0  0
  -15.0310   19.1350    5.9510 C   0  0  0  0  0  3  0  0  0  0  0  0
  -15.8850   19.1530    7.0610 C   0  0  0  0  0  0  0  0  0  0  0  0
  -16.2110   17.6320    7.8170 Cl  0  0  0  0  0  0  0  0  0  0  0  0
  -16.4210   20.3670    7.5150 C   0  0  0  0  0  0  0  0  0  0  0  0
  -19.0330   22.8090   10.8860 C   0  0  0  0  0  0  0  0  0  0  0  0
  -18.3890   23.1740   12.0740 C   0  0  0  0  0  3  0  0  0  0  0  0
  -18.8470   24.2650   12.8150 C   0  0  0  0  0  3  0  0  0  0  0  0
  -19.9500   24.9930   12.3730 C   0  0  0  0  0  3  0  0  0  0  0  0
  -20.5940   24.6370   11.1890 C   0  0  0  0  0  3  0  0  0  0  0  0
  -20.1350   23.5480   10.4450 C   0  0  0  0  0  3  0  0  0  0  0  0
  -21.3210   18.2680   13.0540 C   0  0  0  0  0  0  0  0  0  0  0  0
  -21.1960   19.6700   13.0180 C   0  0  0  0  0  3  0  0  0  0  0  0
  -20.3990   20.3170   12.0670 C   0  0  0  0  0  3  0  0  0  0  0  0
  -19.6990   19.5910   11.0980 C   0  0  0  0  0  0  0  0  0  0  0  0
  -19.8310   18.2030   11.0930 C   0  0  0  0  0  3  0  0  0  0  0  0
  -20.6320   17.5590   12.0480 C   0  0  0  0  0  3  0  0  0  0  0  0
  -22.1580   17.5350   14.1700 C   0  0  2  0  0  0  0  0  0  0  0  0
  -22.9050   18.3810   15.2410 C   0  0  0  0  0  2  0  0  0  0  0  0
  -22.6460   17.2150   16.2580 C   0  0  1  0  0  0  0  0  0  0  0  0
  -21.4030   16.8730   15.3630 C   0  0  0  0  0  2  0  0  0  0  0  0
  -23.0810   16.5810   13.5070 N   0  0  0  0  0  4  0  0  0  0  0  0
  -23.6530   16.0930   14.2240 H   0  0  0  0  0  0  0  0  0  0  0  0
  -22.5790   15.8690   12.9670 H   0  0  0  0  0  0  0  0  0  0  0  0
  -23.7290   17.0580   12.8700 H   0  0  0  0  0  0  0  0  0  0  0  0
  -22.4260   17.6430   17.6960 C   0  0  0  0  0  3  0  0  0  0  0  0
  -23.5430   17.8210   18.6890 C   0  0  0  0  0  2  0  0  0  0  0  0
  -22.5130   16.7450   18.9000 C   0  0  0  0  0  2  0  0  0  0  0  0
  -23.6580   16.1720   16.1370 O   0  0  0  0  0  0  0  0  0  0  0  0
  -23.6340   15.7040   16.9990 H   0  0  0  0  0  0  0  0  0  0  0  0
  1 24  1  0  0  0  0
  2  1  1  0  0  0  0
  3  4  1  0  0  0  0
  3  2  2  0  0  0  0
  4  5  1  0  0  0  0
  5  1  2  0  0  0  0
  5 15  1  0  0  0  0
  6  4  1  0  0  0  0
  7  6  1  0  0  0  0
  8  7  1  0  0  0  0
  8 14  1  0  0  0  0
  9  8  2  0  0  0  0
 10  9  1  0  0  0  0
 10 11  2  0  0  0  0
 11 12  1  0  0  0  0
 12 14  2  0  0  0  0
 12 13  1  0  0  0  0
 14  3  1  0  0  0  0
 15 16  1  0  0  0  0
 16 17  2  0  0  0  0
 18 17  1  0  0  0  0
 19 18  2  0  0  0  0
 20 15  2  0  0  0  0
 20 19  1  0  0  0  0
 21 27  1  0  0  0  0
 22 21  1  0  0  0  0
 23 22  2  0  0  0  0
 24 23  1  0  0  0  0
 25 24  2  0  0  0  0
 25 26  1  0  0  0  0
 26 21  2  0  0  0  0
 27 31  1  6  0  0  0
 27 28  1  0  0  0  0
 27 30  1  0  0  0  0
 28 29  1  0  0  0  0
 29 38  1  6  0  0  0
 29 35  1  0  0  0  0
 30 29  1  0  0  0  0
 31 32  1  0  0  0  0
 33 31  1  0  0  0  0
 34 31  1  0  0  0  0
 35 36  1  0  0  0  0
 35 37  1  0  0  0  0
 36 37  1  0  0  0  0
 38 39  1  0  0  0  0
M  END
>  <minimizedAffinity>
-10.9897318

$$$$

 OpenBabel11232420443D

 39 45  0  0  1  0  0  0  0  0999 V2000
  -17.1740   30.4170   11.8830 C   0  0  0  0  0  0  0  0  0  0  0  0
  -16.2160   30.9620   11.0540 N   0  0  0  0  0  0  0  0  0  0  0  0
  -15.8540   32.0970   11.6050 C   0  0  0  0  0  0  0  0  0  0  0  0
  -16.5420   32.2940   12.7720 N   0  0  0  0  0  0  0  0  0  0  0  0
  -17.3840   31.2270   12.9920 C   0  0  0  0  0  0  0  0  0  0  0  0
  -16.2430   33.4190   13.6330 C   0  0  0  0  0  2  0  0  0  0  0  0
  -15.8110   34.5750   12.8880 O   0  0  0  0  0  0  0  0  0  0  0  0
  -14.9410   34.3300   11.8500 C   0  0  0  0  0  0  0  0  0  0  0  0
  -14.1310   35.3970   11.4650 C   0  0  0  0  0  3  0  0  0  0  0  0
  -13.2430   35.2430   10.4030 C   0  0  0  0  0  3  0  0  0  0  0  0
  -13.1780   34.0250    9.7240 C   0  0  0  0  0  3  0  0  0  0  0  0
  -14.0070   32.9580   10.0940 C   0  0  0  0  0  0  0  0  0  0  0  0
  -13.8390   31.4930    9.1910 Cl  0  0  0  0  0  0  0  0  0  0  0  0
  -14.9080   33.1050   11.1590 C   0  0  0  0  0  0  0  0  0  0  0  0
  -18.2040   31.0740   14.1860 C   0  0  0  0  0  0  0  0  0  0  0  0
  -17.6920   30.4370   15.3210 C   0  0  0  0  0  3  0  0  0  0  0  0
  -18.4840   30.2900   16.4620 C   0  0  0  0  0  3  0  0  0  0  0  0
  -19.7890   30.7790   16.4710 C   0  0  0  0  0  3  0  0  0  0  0  0
  -20.3050   31.4180   15.3440 C   0  0  0  0  0  3  0  0  0  0  0  0
  -19.5130   31.5680   14.2050 C   0  0  0  0  0  3  0  0  0  0  0  0
  -19.2000   26.6900   11.0830 C   0  0  0  0  0  0  0  0  0  0  0  0
  -19.8670   27.9310   11.0840 C   0  0  0  0  0  3  0  0  0  0  0  0
  -19.1900   29.1340   11.3130 C   0  0  0  0  0  3  0  0  0  0  0  0
  -17.8090   29.1530   11.5410 C   0  0  0  0  0  0  0  0  0  0  0  0
  -17.1210   27.9410   11.5130 C   0  0  0  0  0  3  0  0  0  0  0  0
  -17.8040   26.7380   11.2820 C   0  0  0  0  0  3  0  0  0  0  0  0
  -19.9730   25.3300   10.8980 C   0  0  2  0  0  0  0  0  0  0  0  0
  -20.0090   24.3090   12.0720 C   0  0  0  0  0  2  0  0  0  0  0  0
  -20.0330   23.1650   10.9980 C   0  0  1  0  0  0  0  0  0  0  0  0
  -19.3090   24.1940   10.0620 C   0  0  0  0  0  2  0  0  0  0  0  0
  -21.3430   25.6360   10.4180 N   0  0  0  0  0  4  0  0  0  0  0  0
  -21.8780   24.7530   10.2990 H   0  0  0  0  0  0  0  0  0  0  0  0
  -21.3380   26.1230    9.5150 H   0  0  0  0  0  0  0  0  0  0  0  0
  -21.8600   26.2200   11.0840 H   0  0  0  0  0  0  0  0  0  0  0  0
  -19.3140   21.8890   11.3910 C   0  0  0  0  0  3  0  0  0  0  0  0
  -20.0150   20.6800   11.9500 C   0  0  0  0  0  2  0  0  0  0  0  0
  -19.3270   20.6010   10.6130 C   0  0  0  0  0  2  0  0  0  0  0  0
  -21.3880   22.9150   10.5210 O   0  0  0  0  0  0  0  0  0  0  0  0
  -21.3580   22.0020   10.1620 H   0  0  0  0  0  0  0  0  0  0  0  0
  1  5  2  0  0  0  0
  2  3  2  0  0  0  0
  2  1  1  0  0  0  0
  3  4  1  0  0  0  0
  4  5  1  0  0  0  0
  4  6  1  0  0  0  0
  5 15  1  0  0  0  0
  7  6  1  0  0  0  0
  8  7  1  0  0  0  0
  9  8  1  0  0  0  0
 10  9  2  0  0  0  0
 11 12  2  0  0  0  0
 11 10  1  0  0  0  0
 12 14  1  0  0  0  0
 13 12  1  0  0  0  0
 14  3  1  0  0  0  0
 14  8  2  0  0  0  0
 15 20  2  0  0  0  0
 15 16  1  0  0  0  0
 16 17  2  0  0  0  0
 17 18  1  0  0  0  0
 19 18  2  0  0  0  0
 20 19  1  0  0  0  0
 21 22  2  0  0  0  0
 21 26  1  0  0  0  0
 22 23  1  0  0  0  0
 23 24  2  0  0  0  0
 24  1  1  0  0  0  0
 25 24  1  0  0  0  0
 26 25  2  0  0  0  0
 27 31  1  6  0  0  0
 27 21  1  0  0  0  0
 27 28  1  0  0  0  0
 29 38  1  6  0  0  0
 29 35  1  0  0  0  0
 29 28  1  0  0  0  0
 30 27  1  0  0  0  0
 30 29  1  0  0  0  0
 31 34  1  0  0  0  0
 32 31  1  0  0  0  0
 33 31  1  0  0  0  0
 35 36  1  0  0  0  0
 37 35  1  0  0  0  0
 37 36  1  0  0  0  0
 39 38  1  0  0  0  0
M  END
>  <minimizedAffinity>
-10.78969

$$$$

 OpenBabel11232420443D

 39 45  0  0  1  0  0  0  0  0999 V2000
  -18.0760   30.3180   13.1450 C   0  0  0  0  0  0  0  0  0  0  0  0
  -18.6470   30.5170   14.3850 N   0  0  0  0  0  0  0  0  0  0  0  0
  -18.2180   31.6840   14.8050 C   0  0  0  0  0  0  0  0  0  0  0  0
  -17.3960   32.2490   13.8680 N   0  0  0  0  0  0  0  0  0  0  0  0
  -17.2970   31.4100   12.7810 C   0  0  0  0  0  0  0  0  0  0  0  0
  -16.8800   33.5910   14.0420 C   0  0  0  0  0  2  0  0  0  0  0  0
  -16.6660   33.9180   15.4290 O   0  0  0  0  0  0  0  0  0  0  0  0
  -17.6450   33.5040   16.3020 C   0  0  0  0  0  0  0  0  0  0  0  0
  -17.7400   34.2150   17.4980 C   0  0  0  0  0  3  0  0  0  0  0  0
  -18.6860   33.8420   18.4500 C   0  0  0  0  0  3  0  0  0  0  0  0
  -19.5250   32.7550   18.2060 C   0  0  0  0  0  3  0  0  0  0  0  0
  -19.4170   32.0240   17.0150 C   0  0  0  0  0  0  0  0  0  0  0  0
  -20.5100   30.7000   16.8140 Cl  0  0  0  0  0  0  0  0  0  0  0  0
  -18.4640   32.3880   16.0520 C   0  0  0  0  0  0  0  0  0  0  0  0
  -16.5640   31.7400   11.5670 C   0  0  0  0  0  0  0  0  0  0  0  0
  -15.2540   31.2860   11.3830 C   0  0  0  0  0  3  0  0  0  0  0  0
  -14.5550   31.6090   10.2180 C   0  0  0  0  0  3  0  0  0  0  0  0
  -15.1630   32.3880    9.2340 C   0  0  0  0  0  3  0  0  0  0  0  0
  -16.4700   32.8410    9.4100 C   0  0  0  0  0  3  0  0  0  0  0  0
  -17.1710   32.5160   10.5730 C   0  0  0  0  0  3  0  0  0  0  0  0
  -18.9340   26.5780   11.1680 C   0  0  0  0  0  0  0  0  0  0  0  0
  -19.9470   27.4360   11.6400 C   0  0  0  0  0  3  0  0  0  0  0  0
  -19.6520   28.6610   12.2510 C   0  0  0  0  0  3  0  0  0  0  0  0
  -18.3300   29.0910   12.4070 C   0  0  0  0  0  0  0  0  0  0  0  0
  -17.3120   28.2740   11.9190 C   0  0  0  0  0  3  0  0  0  0  0  0
  -17.6110   27.0470   11.3070 C   0  0  0  0  0  3  0  0  0  0  0  0
  -19.2610   25.1670   10.5490 C   0  0  2  0  0  0  0  0  0  0  0  0
  -18.8020   23.8820   11.2970 C   0  0  0  0  0  2  0  0  0  0  0  0
  -18.6250   23.2010    9.8950 C   0  0  1  0  0  0  0  0  0  0  0  0
  -18.4050   24.6550    9.3510 C   0  0  0  0  0  2  0  0  0  0  0  0
  -20.7130   25.1170   10.2470 N   0  0  0  0  0  4  0  0  0  0  0  0
  -20.9560   24.1900    9.8470 H   0  0  0  0  0  0  0  0  0  0  0  0
  -20.9930   25.8340    9.5700 H   0  0  0  0  0  0  0  0  0  0  0  0
  -21.2820   25.2460   11.0910 H   0  0  0  0  0  0  0  0  0  0  0  0
  -17.4930   22.1960    9.7990 C   0  0  0  0  0  3  0  0  0  0  0  0
  -17.7090   20.7110    9.6790 C   0  0  0  0  0  2  0  0  0  0  0  0
  -17.0680   21.4720    8.5500 C   0  0  0  0  0  2  0  0  0  0  0  0
  -19.8890   22.6630    9.4040 O   0  0  0  0  0  0  0  0  0  0  0  0
  -19.6270   21.9790    8.7500 H   0  0  0  0  0  0  0  0  0  0  0  0
  1  2  1  0  0  0  0
  2  3  2  0  0  0  0
  3 14  1  0  0  0  0
  4  6  1  0  0  0  0
  4  3  1  0  0  0  0
  5  1  2  0  0  0  0
  5  4  1  0  0  0  0
  6  7  1  0  0  0  0
  7  8  1  0  0  0  0
  8  9  1  0  0  0  0
  9 10  2  0  0  0  0
 11 10  1  0  0  0  0
 12 11  2  0  0  0  0
 13 12  1  0  0  0  0
 14  8  2  0  0  0  0
 14 12  1  0  0  0  0
 15  5  1  0  0  0  0
 16 15  1  0  0  0  0
 17 16  2  0  0  0  0
 18 19  2  0  0  0  0
 18 17  1  0  0  0  0
 19 20  1  0  0  0  0
 20 15  2  0  0  0  0
 21 26  2  0  0  0  0
 21 22  1  0  0  0  0
 22 23  2  0  0  0  0
 23 24  1  0  0  0  0
 24  1  1  0  0  0  0
 25 24  2  0  0  0  0
 26 25  1  0  0  0  0
 27 31  1  6  0  0  0
 27 21  1  0  0  0  0
 27 28  1  0  0  0  0
 29 38  1  6  0  0  0
 29 28  1  0  0  0  0
 30 29  1  0  0  0  0
 30 27  1  0  0  0  0
 31 34  1  0  0  0  0
 32 31  1  0  0  0  0
 33 31  1  0  0  0  0
 35 29  1  0  0  0  0
 36 35  1  0  0  0  0
 37 36  1  0  0  0  0
 37 35  1  0  0  0  0
 39 38  1  0  0  0  0
M  END
>  <minimizedAffinity>
-10.6926813

$$$$

 OpenBabel11232420443D

 39 45  0  0  1  0  0  0  0  0999 V2000
  -18.8290   20.2860   10.2070 C   0  0  0  0  0  0  0  0  0  0  0  0
  -18.0580   19.6060    9.2880 N   0  0  0  0  0  0  0  0  0  0  0  0
  -17.3640   20.5150    8.6440 C   0  0  0  0  0  0  0  0  0  0  0  0
  -17.6560   21.7620    9.1300 N   0  0  0  0  0  0  0  0  0  0  0  0
  -18.5780   21.6520   10.1460 C   0  0  0  0  0  0  0  0  0  0  0  0
  -16.9370   22.9290    8.6650 C   0  0  0  0  0  2  0  0  0  0  0  0
  -16.5320   22.8070    7.2870 O   0  0  0  0  0  0  0  0  0  0  0  0
  -16.0410   21.5780    6.9110 C   0  0  0  0  0  0  0  0  0  0  0  0
  -15.1950   21.5680    5.8040 C   0  0  0  0  0  3  0  0  0  0  0  0
  -14.6780   20.3610    5.3390 C   0  0  0  0  0  3  0  0  0  0  0  0
  -15.0190   19.1690    5.9780 C   0  0  0  0  0  3  0  0  0  0  0  0
  -15.8860   19.1730    7.0780 C   0  0  0  0  0  0  0  0  0  0  0  0
  -16.2350   17.6400    7.7990 Cl  0  0  0  0  0  0  0  0  0  0  0  0
  -16.4160   20.3820    7.5500 C   0  0  0  0  0  0  0  0  0  0  0  0
  -19.0480   22.7790   10.9390 C   0  0  0  0  0  0  0  0  0  0  0  0
  -20.1160   23.5650   10.4910 C   0  0  0  0  0  3  0  0  0  0  0  0
  -20.5590   24.6470   11.2530 C   0  0  0  0  0  3  0  0  0  0  0  0
  -19.9380   24.9480   12.4640 C   0  0  0  0  0  3  0  0  0  0  0  0
  -18.8760   24.1670   12.9180 C   0  0  0  0  0  3  0  0  0  0  0  0
  -18.4330   23.0830   12.1580 C   0  0  0  0  0  3  0  0  0  0  0  0
  -21.4060   18.2190   12.9850 C   0  0  0  0  0  0  0  0  0  0  0  0
  -21.2770   19.6210   12.9700 C   0  0  0  0  0  3  0  0  0  0  0  0
  -20.4620   20.2790   12.0420 C   0  0  0  0  0  3  0  0  0  0  0  0
  -19.7460   19.5640   11.0760 C   0  0  0  0  0  0  0  0  0  0  0  0
  -19.8820   18.1760   11.0500 C   0  0  0  0  0  3  0  0  0  0  0  0
  -20.7010   17.5220   11.9820 C   0  0  0  0  0  3  0  0  0  0  0  0
  -22.2650   17.4730   14.0760 C   0  0  2  0  0  0  0  0  0  0  0  0
  -21.5810   16.4190   14.9930 C   0  0  0  0  0  2  0  0  0  0  0  0
  -22.9440   15.6410   15.0140 C   0  0  1  0  0  0  0  0  0  0  0  0
  -23.2150   16.3220   13.6270 C   0  0  0  0  0  2  0  0  0  0  0  0
  -22.9810   18.4940   14.8800 N   0  0  0  0  0  4  0  0  0  0  0  0
  -23.5460   18.0260   15.6150 H   0  0  0  0  0  0  0  0  0  0  0  0
  -23.6160   19.0630   14.3100 H   0  0  0  0  0  0  0  0  0  0  0  0
  -22.3300   19.1320   15.3530 H   0  0  0  0  0  0  0  0  0  0  0  0
  -22.8300   14.1310   15.0870 C   0  0  0  0  0  3  0  0  0  0  0  0
  -23.6890   13.2760   15.9800 C   0  0  0  0  0  2  0  0  0  0  0  0
  -23.7980   13.1490   14.4840 C   0  0  0  0  0  2  0  0  0  0  0  0
  -23.8460   16.1800   16.0260 O   0  0  0  0  0  0  0  0  0  0  0  0
  -24.4740   15.4500   16.2090 H   0  0  0  0  0  0  0  0  0  0  0  0
  1 24  1  0  0  0  0
  2  1  1  0  0  0  0
  3  4  1  0  0  0  0
  3  2  2  0  0  0  0
  4  5  1  0  0  0  0
  5  1  2  0  0  0  0
  5 15  1  0  0  0  0
  6  4  1  0  0  0  0
  7  6  1  0  0  0  0
  8  7  1  0  0  0  0
  8 14  1  0  0  0  0
  9  8  2  0  0  0  0
 10  9  1  0  0  0  0
 10 11  2  0  0  0  0
 11 12  1  0  0  0  0
 12 14  2  0  0  0  0
 12 13  1  0  0  0  0
 14  3  1  0  0  0  0
 15 20  1  0  0  0  0
 16 15  2  0  0  0  0
 16 17  1  0  0  0  0
 17 18  2  0  0  0  0
 18 19  1  0  0  0  0
 20 19  2  0  0  0  0
 21 27  1  0  0  0  0
 22 21  1  0  0  0  0
 23 22  2  0  0  0  0
 24 23  1  0  0  0  0
 25 24  2  0  0  0  0
 25 26  1  0  0  0  0
 26 21  2  0  0  0  0
 27 31  1  1  0  0  0
 27 28  1  0  0  0  0
 28 29  1  0  0  0  0
 29 35  1  0  0  0  0
 29 38  1  1  0  0  0
 30 27  1  0  0  0  0
 30 29  1  0  0  0  0
 31 34  1  0  0  0  0
 31 32  1  0  0  0  0
 33 31  1  0  0  0  0
 35 36  1  0  0  0  0
 37 35  1  0  0  0  0
 37 36  1  0  0  0  0
 38 39  1  0  0  0  0
M  END
>  <minimizedAffinity>
-10.4360361

$$$$
