
 OpenBabel11232420443D

 39 45  0  0  1  0  0  0  0  0999 V2000
  -18.2400   22.6390    9.8470 C   0  0  0  0  0  0  0  0  0  0  0  0
  -17.3360   22.3710    8.8410 N   0  0  0  0  0  0  0  0  0  0  0  0
  -17.3950   21.0770    8.6280 C   0  0  0  0  0  0  0  0  0  0  0  0
  -18.3200   20.5050    9.4590 N   0  0  0  0  0  0  0  0  0  0  0  0
  -18.8960   21.4790   10.2420 C   0  0  0  0  0  0  0  0  0  0  0  0
  -18.6580   19.1010    9.3440 C   0  0  0  0  0  2  0  0  0  0  0  0
  -17.5370   18.3040    8.9120 O   0  0  0  0  0  0  0  0  0  0  0  0
  -16.7630   18.8470    7.9130 C   0  0  0  0  0  0  0  0  0  0  0  0
  -16.0340   17.9430    7.1420 C   0  0  0  0  0  3  0  0  0  0  0  0
  -15.2020   18.4110    6.1280 C   0  0  0  0  0  3  0  0  0  0  0  0
  -15.0950   19.7830    5.8980 C   0  0  0  0  0  3  0  0  0  0  0  0
  -15.8080   20.6960    6.6850 C   0  0  0  0  0  0  0  0  0  0  0  0
  -15.6070   22.3720    6.3080 Cl  0  0  0  0  0  0  0  0  0  0  0  0
  -16.6450   20.2350    7.7110 C   0  0  0  0  0  0  0  0  0  0  0  0
  -19.9790   21.2280   11.1820 C   0  0  0  0  0  0  0  0  0  0  0  0
  -21.0570   22.1160   11.2760 C   0  0  0  0  0  3  0  0  0  0  0  0
  -22.0910   21.8720   12.1810 C   0  0  0  0  0  3  0  0  0  0  0  0
  -22.0520   20.7420   12.9960 C   0  0  0  0  0  3  0  0  0  0  0  0
  -20.9830   19.8520   12.9050 C   0  0  0  0  0  3  0  0  0  0  0  0
  -19.9500   20.0920   11.9980 C   0  0  0  0  0  3  0  0  0  0  0  0
  -18.5050   26.7270   11.2080 C   0  0  0  0  0  0  0  0  0  0  0  0
  -18.5870   26.3740    9.8470 C   0  0  0  0  0  3  0  0  0  0  0  0
  -18.5320   25.0410    9.4240 C   0  0  0  0  0  3  0  0  0  0  0  0
  -18.4030   23.9960   10.3460 C   0  0  0  0  0  0  0  0  0  0  0  0
  -18.3520   24.3180   11.7010 C   0  0  0  0  0  3  0  0  0  0  0  0
  -18.4080   25.6550   12.1200 C   0  0  0  0  0  3  0  0  0  0  0  0
  -18.4920   28.2310   11.6790 C   0  0  2  0  0  0  0  0  0  0  0  0
  -17.4580   28.6850   12.7480 C   0  0  0  0  0  2  0  0  0  0  0  0
  -18.5270   29.7120   13.2610 C   0  0  1  0  0  0  0  0  0  0  0  0
  -19.5880   28.7150   12.6770 C   0  0  0  0  0  2  0  0  0  0  0  0
  -18.4260   29.0940   10.4740 N   0  0  0  0  0  4  0  0  0  0  0  0
  -18.4050   30.0920   10.7600 H   0  0  0  0  0  0  0  0  0  0  0  0
  -19.2340   28.9610    9.8570 H   0  0  0  0  0  0  0  0  0  0  0  0
  -17.5800   28.9150    9.9230 H   0  0  0  0  0  0  0  0  0  0  0  0
  -18.5070   29.9820   14.7530 C   0  0  0  0  0  3  0  0  0  0  0  0
  -18.0280   31.2740   15.3570 C   0  0  0  0  0  2  0  0  0  0  0  0
  -19.4710   30.8670   15.4960 C   0  0  0  0  0  2  0  0  0  0  0  0
  -18.5010   30.9400   12.4740 O   0  0  0  0  0  0  0  0  0  0  0  0
  -18.9090   31.6150   13.0580 H   0  0  0  0  0  0  0  0  0  0  0  0
  1  5  2  0  0  0  0
  1 24  1  0  0  0  0
  2  1  1  0  0  0  0
  3  2  2  0  0  0  0
  3  4  1  0  0  0  0
  4  5  1  0  0  0  0
  5 15  1  0  0  0  0
  6  4  1  0  0  0  0
  7  6  1  0  0  0  0
  8  7  1  0  0  0  0
  9  8  2  0  0  0  0
 10  9  1  0  0  0  0
 11 10  2  0  0  0  0
 11 12  1  0  0  0  0
 12 14  2  0  0  0  0
 13 12  1  0  0  0  0
 14  8  1  0  0  0  0
 14  3  1  0  0  0  0
 15 16  2  0  0  0  0
 15 20  1  0  0  0  0
 16 17  1  0  0  0  0
 17 18  2  0  0  0  0
 19 18  1  0  0  0  0
 20 19  2  0  0  0  0
 21 27  1  0  0  0  0
 21 26  1  0  0  0  0
 22 21  2  0  0  0  0
 23 22  1  0  0  0  0
 23 24  2  0  0  0  0
 24 25  1  0  0  0  0
 25 26  2  0  0  0  0
 27 31  1  6  0  0  0
 27 30  1  0  0  0  0
 27 28  1  0  0  0  0
 28 29  1  0  0  0  0
 29 38  1  6  0  0  0
 29 35  1  0  0  0  0
 30 29  1  0  0  0  0
 31 32  1  0  0  0  0
 33 31  1  0  0  0  0
 34 31  1  0  0  0  0
 35 36  1  0  0  0  0
 35 37  1  0  0  0  0
 36 37  1  0  0  0  0
 38 39  1  0  0  0  0
M  END
>  <minimizedAffinity>
-11.5361557

$$$$
