
 OpenBabel11232420303D

 37 41  0  0  1  0  0  0  0  0999 V2000
   -0.5410    3.6630   -8.8360 C   0  0  0  0  0  0  0  0  0  0  0  0
   -1.2480    3.2600   -9.7690 O   0  0  0  0  0  0  0  0  0  0  0  0
    0.8350    3.7940   -8.9580 N   0  0  0  0  0  0  0  0  0  0  0  0
    1.4450    3.4300  -10.2530 C   0  0  0  0  0  2  0  0  0  0  0  0
    2.8560    3.9790  -10.5150 C   0  0  0  0  0  2  0  0  0  0  0  0
    3.7320    3.6410   -9.3870 N   0  0  0  0  0  0  0  0  0  0  0  0
    3.2350    4.0470   -8.0650 C   0  0  1  0  0  3  0  0  0  0  0  0
    2.5270    5.3460   -7.7970 C   0  0  0  0  0  2  0  0  0  0  0  0
    1.7350    4.0690   -7.8530 C   0  0  1  0  0  3  0  0  0  0  0  0
    5.1050    3.6550   -9.6870 C   0  0  0  0  0  0  0  0  0  0  0  0
    5.5750    4.6820  -10.4220 N   0  0  0  0  0  0  0  0  0  0  0  0
    6.8640    4.6480  -10.7830 C   0  0  0  0  0  3  0  0  0  0  0  0
    7.7190    3.6520  -10.5430 N   0  0  0  0  0  0  0  0  0  0  0  0
    7.2100    2.6220   -9.8640 C   0  0  0  0  0  0  0  0  0  0  0  0
    5.9250    2.5830   -9.3440 C   0  0  0  0  0  0  0  0  0  0  0  0
    5.5250    1.4010   -8.4990 C   0  0  2  0  0  3  0  0  0  0  0  0
    5.9850    1.5770   -7.0420 C   0  0  0  0  0  1  0  0  0  0  0  0
    6.1320    0.1250   -9.0870 C   0  0  0  0  0  2  0  0  0  0  0  0
    7.6190    0.2770   -9.3200 C   0  0  0  0  0  0  0  0  0  0  0  0
    8.3920   -0.6720   -9.2310 O   0  0  0  0  0  0  0  0  0  0  0  0
    8.0370    1.5090   -9.7360 N   0  0  0  0  0  0  0  0  0  0  0  0
    8.9980    1.6100  -10.0330 H   0  0  0  0  0  0  0  0  0  0  0  0
   -1.1930    3.8960   -7.4690 C   0  0  1  0  0  3  0  0  0  0  0  0
   -1.1330    5.3420   -7.0040 C   0  0  0  0  0  0  0  0  0  0  0  0
   -0.8910    5.6300   -5.6500 C   0  0  0  0  0  3  0  0  0  0  0  0
   -0.8670    6.9520   -5.1980 C   0  0  0  0  0  3  0  0  0  0  0  0
   -1.0920    7.9950   -6.0920 C   0  0  0  0  0  0  0  0  0  0  0  0
   -1.0710    9.6200   -5.5310 Cl  0  0  0  0  0  0  0  0  0  0  0  0
   -1.3380    7.7280   -7.4350 C   0  0  0  0  0  3  0  0  0  0  0  0
   -1.3610    6.4080   -7.8910 C   0  0  0  0  0  3  0  0  0  0  0  0
   -2.6710    3.4360   -7.4970 C   0  0  0  0  0  2  0  0  0  0  0  0
   -3.1530    2.8370   -6.1990 N   0  0  0  0  0  4  0  0  0  0  0  0
   -2.5060    3.2160   -5.4740 H   0  0  0  0  0  0  0  0  0  0  0  0
   -2.9610    1.8250   -6.2030 H   0  0  0  0  0  0  0  0  0  0  0  0
   -4.8820    4.5710   -5.8560 C   0  0  0  0  0  1  0  0  0  0  0  0
   -4.5660    3.0860   -5.7620 C   0  0  0  0  0  3  0  0  0  0  0  0
   -5.4840    2.2620   -6.6580 C   0  0  0  0  0  1  0  0  0  0  0  0
  1 23  1  0  0  0  0
  2  1  2  0  0  0  0
  3  1  1  0  0  0  0
  3  9  1  0  0  0  0
  4  3  1  0  0  0  0
  5  4  1  0  0  0  0
  5  6  1  0  0  0  0
  6  7  1  0  0  0  0
  7  9  1  0  0  0  0
  7  8  1  6  0  0  0
  9  8  1  6  0  0  0
 10  6  1  0  0  0  0
 10 15  1  0  0  0  0
 11 10  2  0  0  0  0
 12 13  2  0  0  0  0
 12 11  1  0  0  0  0
 13 14  1  0  0  0  0
 14 21  1  0  0  0  0
 14 15  2  0  0  0  0
 15 16  1  0  0  0  0
 16 17  1  1  0  0  0
 18 16  1  0  0  0  0
 19 20  2  0  0  0  0
 19 18  1  0  0  0  0
 21 19  1  0  0  0  0
 22 21  1  0  0  0  0
 23 31  1  6  0  0  0
 23 24  1  0  0  0  0
 24 25  1  0  0  0  0
 25 26  2  0  0  0  0
 27 28  1  0  0  0  0
 27 26  1  0  0  0  0
 29 27  2  0  0  0  0
 30 29  1  0  0  0  0
 30 24  2  0  0  0  0
 31 32  1  0  0  0  0
 32 36  1  0  0  0  0
 32 33  1  0  0  0  0
 34 32  1  0  0  0  0
 35 36  1  0  0  0  0
 37 36  1  0  0  0  0
M  END
>  <minimizedAffinity>
-8.14282036

$$$$
