
 OpenBabel11232420303D

 37 41  0  0  1  0  0  0  0  0999 V2000
    0.2900    7.1930   -6.8430 C   0  0  0  0  0  0  0  0  0  0  0  0
    0.0370    8.2480   -7.4390 O   0  0  0  0  0  0  0  0  0  0  0  0
   -0.6140    6.1410   -6.7920 N   0  0  0  0  0  0  0  0  0  0  0  0
   -1.9100    6.3190   -7.4780 C   0  0  0  0  0  2  0  0  0  0  0  0
   -2.6960    5.0340   -7.7840 C   0  0  0  0  0  2  0  0  0  0  0  0
   -2.8340    4.2390   -6.5590 N   0  0  0  0  0  0  0  0  0  0  0  0
   -1.5750    3.9450   -5.8590 C   0  0  1  0  0  3  0  0  0  0  0  0
   -0.2880    3.6000   -6.5550 C   0  0  0  0  0  2  0  0  0  0  0  0
   -0.4620    4.9670   -5.9520 C   0  0  1  0  0  3  0  0  0  0  0  0
   -3.8940    3.3160   -6.5750 C   0  0  0  0  0  0  0  0  0  0  0  0
   -3.9380    2.4330   -7.5930 N   0  0  0  0  0  0  0  0  0  0  0  0
   -4.9960    1.6140   -7.6570 C   0  0  0  0  0  3  0  0  0  0  0  0
   -6.0540    1.6350   -6.8440 N   0  0  0  0  0  0  0  0  0  0  0  0
   -6.0090    2.5590   -5.8820 C   0  0  0  0  0  0  0  0  0  0  0  0
   -4.9270    3.3930   -5.6450 C   0  0  0  0  0  0  0  0  0  0  0  0
   -4.9720    4.3100   -4.4500 C   0  0  2  0  0  3  0  0  0  0  0  0
   -4.5390    3.5760   -3.1690 C   0  0  0  0  0  1  0  0  0  0  0  0
   -6.3900    4.8600   -4.2820 C   0  0  0  0  0  2  0  0  0  0  0  0
   -7.4170    3.7500   -4.2820 C   0  0  0  0  0  0  0  0  0  0  0  0
   -8.4580    3.8270   -3.6370 O   0  0  0  0  0  0  0  0  0  0  0  0
   -7.1650    2.7010   -5.1200 N   0  0  0  0  0  0  0  0  0  0  0  0
   -7.8930    2.0100   -5.2490 H   0  0  0  0  0  0  0  0  0  0  0  0
    1.5850    7.1020   -6.0280 C   0  0  1  0  0  3  0  0  0  0  0  0
    2.7620    6.5500   -6.8160 C   0  0  0  0  0  0  0  0  0  0  0  0
    2.5650    5.4770   -7.7020 C   0  0  0  0  0  3  0  0  0  0  0  0
    3.6410    4.9320   -8.4080 C   0  0  0  0  0  3  0  0  0  0  0  0
    4.9210    5.4500   -8.2310 C   0  0  0  0  0  0  0  0  0  0  0  0
    6.2440    4.7720   -9.0950 Cl  0  0  0  0  0  0  0  0  0  0  0  0
    5.1350    6.5090   -7.3540 C   0  0  0  0  0  3  0  0  0  0  0  0
    4.0610    7.0570   -6.6460 C   0  0  0  0  0  3  0  0  0  0  0  0
    1.9620    8.4950   -5.4670 C   0  0  0  0  0  2  0  0  0  0  0  0
    2.1360    8.5280   -3.9700 N   0  0  0  0  0  4  0  0  0  0  0  0
    2.5570    7.6050   -3.7290 H   0  0  0  0  0  0  0  0  0  0  0  0
    1.2090    8.5050   -3.5230 H   0  0  0  0  0  0  0  0  0  0  0  0
    3.4440    9.1840   -1.9770 C   0  0  0  0  0  1  0  0  0  0  0  0
    2.9710    9.6130   -3.3570 C   0  0  0  0  0  3  0  0  0  0  0  0
    4.1450    9.8830   -4.2910 C   0  0  0  0  0  1  0  0  0  0  0  0
  1  3  1  0  0  0  0
  1 23  1  0  0  0  0
  2  1  2  0  0  0  0
  3  9  1  0  0  0  0
  4  3  1  0  0  0  0
  5  4  1  0  0  0  0
  5  6  1  0  0  0  0
  6  7  1  0  0  0  0
  7  8  1  6  0  0  0
  9  8  1  6  0  0  0
  9  7  1  0  0  0  0
 10  6  1  0  0  0  0
 10 15  1  0  0  0  0
 11 10  2  0  0  0  0
 12 11  1  0  0  0  0
 12 13  2  0  0  0  0
 13 14  1  0  0  0  0
 14 15  2  0  0  0  0
 14 21  1  0  0  0  0
 15 16  1  0  0  0  0
 16 18  1  0  0  0  0
 16 17  1  1  0  0  0
 19 18  1  0  0  0  0
 19 20  2  0  0  0  0
 21 19  1  0  0  0  0
 22 21  1  0  0  0  0
 23 31  1  6  0  0  0
 24 30  1  0  0  0  0
 24 23  1  0  0  0  0
 25 24  2  0  0  0  0
 26 27  2  0  0  0  0
 26 25  1  0  0  0  0
 27 29  1  0  0  0  0
 28 27  1  0  0  0  0
 29 30  2  0  0  0  0
 31 32  1  0  0  0  0
 32 33  1  0  0  0  0
 32 34  1  0  0  0  0
 32 36  1  0  0  0  0
 36 35  1  0  0  0  0
 37 36  1  0  0  0  0
M  END
>  <minimizedAffinity>
-9.42583942

$$$$

 OpenBabel11232420303D

 37 41  0  0  1  0  0  0  0  0999 V2000
   -3.6450    3.6110   -7.9490 C   0  0  0  0  0  0  0  0  0  0  0  0
   -4.0780    3.7110   -9.1050 O   0  0  0  0  0  0  0  0  0  0  0  0
   -2.5260    4.3090   -7.5190 N   0  0  0  0  0  0  0  0  0  0  0  0
   -1.8510    5.1890   -8.4960 C   0  0  0  0  0  2  0  0  0  0  0  0
   -0.9150    6.2580   -7.9110 C   0  0  0  0  0  2  0  0  0  0  0  0
    0.0420    5.6260   -6.9960 N   0  0  0  0  0  0  0  0  0  0  0  0
   -0.5550    4.7980   -5.9390 C   0  0  1  0  0  3  0  0  0  0  0  0
   -1.8130    5.1610   -5.1990 C   0  0  0  0  0  2  0  0  0  0  0  0
   -1.8560    4.0870   -6.2510 C   0  0  1  0  0  3  0  0  0  0  0  0
    1.2130    6.3690   -6.7680 C   0  0  0  0  0  0  0  0  0  0  0  0
    2.3350    5.9820   -7.4090 N   0  0  0  0  0  0  0  0  0  0  0  0
    3.4690    6.6330   -7.1210 C   0  0  0  0  0  3  0  0  0  0  0  0
    3.6120    7.5890   -6.2030 N   0  0  0  0  0  0  0  0  0  0  0  0
    2.4980    7.9100   -5.5420 C   0  0  0  0  0  0  0  0  0  0  0  0
    1.2440    7.3870   -5.8190 C   0  0  0  0  0  0  0  0  0  0  0  0
    0.0550    7.9290   -5.0670 C   0  0  2  0  0  3  0  0  0  0  0  0
   -0.4700    9.2220   -5.7140 C   0  0  0  0  0  1  0  0  0  0  0  0
    0.4490    8.1950   -3.6130 C   0  0  0  0  0  2  0  0  0  0  0  0
    1.7050    9.0350   -3.5260 C   0  0  0  0  0  0  0  0  0  0  0  0
    1.8990    9.8210   -2.6040 O   0  0  0  0  0  0  0  0  0  0  0  0
    2.6540    8.7930   -4.4780 N   0  0  0  0  0  0  0  0  0  0  0  0
    3.5580    9.2350   -4.3700 H   0  0  0  0  0  0  0  0  0  0  0  0
   -4.2870    2.5830   -7.0110 C   0  0  1  0  0  3  0  0  0  0  0  0
   -5.2580    3.1940   -6.0130 C   0  0  0  0  0  0  0  0  0  0  0  0
   -5.4780    4.5820   -6.0170 C   0  0  0  0  0  3  0  0  0  0  0  0
   -6.3400    5.1670   -5.0850 C   0  0  0  0  0  3  0  0  0  0  0  0
   -6.9830    4.3730   -4.1390 C   0  0  0  0  0  0  0  0  0  0  0  0
   -8.0350    5.0960   -2.9880 Cl  0  0  0  0  0  0  0  0  0  0  0  0
   -6.7720    2.9970   -4.1190 C   0  0  0  0  0  3  0  0  0  0  0  0
   -5.9120    2.4080   -5.0500 C   0  0  0  0  0  3  0  0  0  0  0  0
   -5.0250    1.4980   -7.8320 C   0  0  0  0  0  2  0  0  0  0  0  0
   -6.3280    1.9620   -8.4330 N   0  0  0  0  0  4  0  0  0  0  0  0
   -6.0790    2.2900   -9.3910 H   0  0  0  0  0  0  0  0  0  0  0  0
   -6.6370    2.8160   -7.9470 H   0  0  0  0  0  0  0  0  0  0  0  0
   -8.1180    0.8120   -7.1730 C   0  0  0  0  0  1  0  0  0  0  0  0
   -7.4680    0.9930   -8.5370 C   0  0  0  0  0  3  0  0  0  0  0  0
   -8.4580    1.5430   -9.5570 C   0  0  0  0  0  1  0  0  0  0  0  0
  1  3  1  0  0  0  0
  1 23  1  0  0  0  0
  2  1  2  0  0  0  0
  3  9  1  0  0  0  0
  4  5  1  0  0  0  0
  4  3  1  0  0  0  0
  5  6  1  0  0  0  0
  6 10  1  0  0  0  0
  6  7  1  0  0  0  0
  7  8  1  1  0  0  0
  9  7  1  0  0  0  0
  9  8  1  1  0  0  0
 10 15  1  0  0  0  0
 11 12  1  0  0  0  0
 11 10  2  0  0  0  0
 12 13  2  0  0  0  0
 13 14  1  0  0  0  0
 14 21  1  0  0  0  0
 15 14  2  0  0  0  0
 15 16  1  0  0  0  0
 16 17  1  6  0  0  0
 16 18  1  0  0  0  0
 18 19  1  0  0  0  0
 19 20  2  0  0  0  0
 21 22  1  0  0  0  0
 21 19  1  0  0  0  0
 23 31  1  6  0  0  0
 23 24  1  0  0  0  0
 24 30  1  0  0  0  0
 25 24  2  0  0  0  0
 25 26  1  0  0  0  0
 26 27  2  0  0  0  0
 27 29  1  0  0  0  0
 27 28  1  0  0  0  0
 30 29  2  0  0  0  0
 32 34  1  0  0  0  0
 32 31  1  0  0  0  0
 33 32  1  0  0  0  0
 36 32  1  0  0  0  0
 36 35  1  0  0  0  0
 37 36  1  0  0  0  0
M  END
>  <minimizedAffinity>
-9.17793846

$$$$

 OpenBabel11232420303D

 37 41  0  0  1  0  0  0  0  0999 V2000
    1.6760    6.4690   -6.6800 C   0  0  0  0  0  0  0  0  0  0  0  0
    2.4670    5.5940   -7.0580 O   0  0  0  0  0  0  0  0  0  0  0  0
    0.3700    6.1730   -6.3180 N   0  0  0  0  0  0  0  0  0  0  0  0
   -0.0600    4.7620   -6.3990 C   0  0  0  0  0  2  0  0  0  0  0  0
   -1.3220    4.3920   -5.6030 C   0  0  0  0  0  2  0  0  0  0  0  0
   -2.4100    5.3120   -5.9500 N   0  0  0  0  0  0  0  0  0  0  0  0
   -2.0890    6.7400   -5.8140 C   0  0  1  0  0  3  0  0  0  0  0  0
   -1.2670    7.3130   -4.6930 C   0  0  0  0  0  2  0  0  0  0  0  0
   -0.6560    7.1660   -6.0590 C   0  0  1  0  0  3  0  0  0  0  0  0
   -3.7000    4.8250   -5.6780 C   0  0  0  0  0  0  0  0  0  0  0  0
   -4.3490    5.3340   -4.6110 N   0  0  0  0  0  0  0  0  0  0  0  0
   -5.5390    4.8060   -4.2990 C   0  0  0  0  0  3  0  0  0  0  0  0
   -6.1190    3.7680   -4.9050 N   0  0  0  0  0  0  0  0  0  0  0  0
   -5.4250    3.2470   -5.9200 C   0  0  0  0  0  0  0  0  0  0  0  0
   -4.2360    3.7670   -6.4070 C   0  0  0  0  0  0  0  0  0  0  0  0
   -3.6240    3.1410   -7.6340 C   0  0  2  0  0  3  0  0  0  0  0  0
   -4.2590    3.6990   -8.9190 C   0  0  0  0  0  1  0  0  0  0  0  0
   -3.8080    1.6230   -7.5770 C   0  0  0  0  0  2  0  0  0  0  0  0
   -5.2500    1.2500   -7.3150 C   0  0  0  0  0  0  0  0  0  0  0  0
   -5.7490    0.2220   -7.7630 O   0  0  0  0  0  0  0  0  0  0  0  0
   -5.9360    2.0730   -6.4670 N   0  0  0  0  0  0  0  0  0  0  0  0
   -6.8550    1.7800   -6.1610 H   0  0  0  0  0  0  0  0  0  0  0  0
    2.1170    7.9350   -6.7450 C   0  0  1  0  0  3  0  0  0  0  0  0
    2.7340    8.4420   -5.4510 C   0  0  0  0  0  0  0  0  0  0  0  0
    1.9110    8.6940   -4.3400 C   0  0  0  0  0  3  0  0  0  0  0  0
    2.4540    9.1940   -3.1530 C   0  0  0  0  0  3  0  0  0  0  0  0
    3.8190    9.4510   -3.0680 C   0  0  0  0  0  0  0  0  0  0  0  0
    4.4830   10.0740   -1.6100 Cl  0  0  0  0  0  0  0  0  0  0  0  0
    4.6470    9.2110   -4.1600 C   0  0  0  0  0  3  0  0  0  0  0  0
    4.1090    8.7110   -5.3490 C   0  0  0  0  0  3  0  0  0  0  0  0
    3.1290    8.1380   -7.8990 C   0  0  0  0  0  2  0  0  0  0  0  0
    4.1440    7.0300   -8.0270 N   0  0  0  0  0  4  0  0  0  0  0  0
    3.7570    6.3950   -8.7580 H   0  0  0  0  0  0  0  0  0  0  0  0
    4.1320    6.4610   -7.1680 H   0  0  0  0  0  0  0  0  0  0  0  0
    5.6980    8.8820   -8.5450 C   0  0  0  0  0  1  0  0  0  0  0  0
    5.5580    7.3760   -8.3890 C   0  0  0  0  0  3  0  0  0  0  0  0
    6.4670    6.8430   -7.2870 C   0  0  0  0  0  1  0  0  0  0  0  0
  1  3  1  0  0  0  0
  2  1  2  0  0  0  0
  3  9  1  0  0  0  0
  4  3  1  0  0  0  0
  4  5  1  0  0  0  0
  6  7  1  0  0  0  0
  6 10  1  0  0  0  0
  6  5  1  0  0  0  0
  7  8  1  1  0  0  0
  9  7  1  0  0  0  0
  9  8  1  1  0  0  0
 10 11  1  0  0  0  0
 11 12  2  0  0  0  0
 13 12  1  0  0  0  0
 14 13  2  0  0  0  0
 15 14  1  0  0  0  0
 15 10  2  0  0  0  0
 16 17  1  6  0  0  0
 16 18  1  0  0  0  0
 16 15  1  0  0  0  0
 18 19  1  0  0  0  0
 19 21  1  0  0  0  0
 20 19  2  0  0  0  0
 21 22  1  0  0  0  0
 21 14  1  0  0  0  0
 23 31  1  6  0  0  0
 23  1  1  0  0  0  0
 23 24  1  0  0  0  0
 24 30  2  0  0  0  0
 24 25  1  0  0  0  0
 25 26  2  0  0  0  0
 26 27  1  0  0  0  0
 27 28  1  0  0  0  0
 29 27  2  0  0  0  0
 30 29  1  0  0  0  0
 32 31  1  0  0  0  0
 32 34  1  0  0  0  0
 33 32  1  0  0  0  0
 35 36  1  0  0  0  0
 36 32  1  0  0  0  0
 36 37  1  0  0  0  0
M  END
>  <minimizedAffinity>
-9.14097691

$$$$

 OpenBabel11232420303D

 37 41  0  0  1  0  0  0  0  0999 V2000
    0.9850    6.9340   -7.0920 C   0  0  0  0  0  0  0  0  0  0  0  0
    0.9660    7.9950   -7.7290 O   0  0  0  0  0  0  0  0  0  0  0  0
   -0.1780    6.2550   -6.7590 N   0  0  0  0  0  0  0  0  0  0  0  0
   -1.4620    6.8440   -7.1910 C   0  0  0  0  0  2  0  0  0  0  0  0
   -2.6720    5.8960   -7.2060 C   0  0  0  0  0  2  0  0  0  0  0  0
   -2.7900    5.2300   -5.9040 N   0  0  0  0  0  0  0  0  0  0  0  0
   -1.5760    4.5440   -5.4390 C   0  0  1  0  0  3  0  0  0  0  0  0
   -0.6570    3.7630   -6.3370 C   0  0  0  0  0  2  0  0  0  0  0  0
   -0.2380    5.1230   -5.8520 C   0  0  1  0  0  3  0  0  0  0  0  0
   -4.0690    4.7220   -5.6180 C   0  0  0  0  0  0  0  0  0  0  0  0
   -4.7290    5.2450   -4.5650 N   0  0  0  0  0  0  0  0  0  0  0  0
   -5.9070    4.6990   -4.2380 C   0  0  0  0  0  3  0  0  0  0  0  0
   -6.4640    3.6340   -4.8160 N   0  0  0  0  0  0  0  0  0  0  0  0
   -5.7610    3.1020   -5.8180 C   0  0  0  0  0  0  0  0  0  0  0  0
   -4.5830    3.6350   -6.3200 C   0  0  0  0  0  0  0  0  0  0  0  0
   -3.9580    2.9900   -7.5300 C   0  0  2  0  0  3  0  0  0  0  0  0
   -4.6060    3.5010   -8.8290 C   0  0  0  0  0  1  0  0  0  0  0  0
   -4.1090    1.4710   -7.4340 C   0  0  0  0  0  2  0  0  0  0  0  0
   -5.5440    1.0740   -7.1610 C   0  0  0  0  0  0  0  0  0  0  0  0
   -6.0200    0.0250   -7.5810 O   0  0  0  0  0  0  0  0  0  0  0  0
   -6.2470    1.9030   -6.3340 N   0  0  0  0  0  0  0  0  0  0  0  0
   -7.1580    1.5990   -6.0200 H   0  0  0  0  0  0  0  0  0  0  0  0
    2.3240    6.4310   -6.5420 C   0  0  1  0  0  3  0  0  0  0  0  0
    3.1520    5.6670   -7.5640 C   0  0  0  0  0  0  0  0  0  0  0  0
    2.5410    4.6860   -8.3630 C   0  0  0  0  0  3  0  0  0  0  0  0
    3.2920    3.9490   -9.2830 C   0  0  0  0  0  3  0  0  0  0  0  0
    4.6590    4.1820   -9.4070 C   0  0  0  0  0  0  0  0  0  0  0  0
    5.5830    3.2680  -10.5320 Cl  0  0  0  0  0  0  0  0  0  0  0  0
    5.2810    5.1460   -8.6200 C   0  0  0  0  0  3  0  0  0  0  0  0
    4.5330    5.8860   -7.7000 C   0  0  0  0  0  3  0  0  0  0  0  0
    3.1590    7.6170   -6.0010 C   0  0  0  0  0  2  0  0  0  0  0  0
    2.3310    8.7360   -5.4210 N   0  0  0  0  0  4  0  0  0  0  0  0
    1.5460    8.8640   -6.0950 H   0  0  0  0  0  0  0  0  0  0  0  0
    2.8640    9.6160   -5.4860 H   0  0  0  0  0  0  0  0  0  0  0  0
    2.6110    9.3640   -3.0460 C   0  0  0  0  0  1  0  0  0  0  0  0
    1.7650    8.5840   -4.0420 C   0  0  0  0  0  3  0  0  0  0  0  0
    0.3270    9.0890   -4.0680 C   0  0  0  0  0  1  0  0  0  0  0  0
  1  3  1  0  0  0  0
  1 23  1  0  0  0  0
  2  1  2  0  0  0  0
  3  9  1  0  0  0  0
  4  3  1  0  0  0  0
  5  4  1  0  0  0  0
  5  6  1  0  0  0  0
  6 10  1  0  0  0  0
  6  7  1  0  0  0  0
  7  8  1  6  0  0  0
  9  8  1  6  0  0  0
  9  7  1  0  0  0  0
 10 11  1  0  0  0  0
 11 12  2  0  0  0  0
 13 12  1  0  0  0  0
 14 13  2  0  0  0  0
 15 14  1  0  0  0  0
 15 10  2  0  0  0  0
 16 17  1  6  0  0  0
 16 18  1  0  0  0  0
 16 15  1  0  0  0  0
 18 19  1  0  0  0  0
 19 21  1  0  0  0  0
 20 19  2  0  0  0  0
 21 22  1  0  0  0  0
 21 14  1  0  0  0  0
 23 31  1  6  0  0  0
 24 23  1  0  0  0  0
 25 24  2  0  0  0  0
 26 25  1  0  0  0  0
 27 26  2  0  0  0  0
 27 29  1  0  0  0  0
 28 27  1  0  0  0  0
 29 30  2  0  0  0  0
 30 24  1  0  0  0  0
 31 32  1  0  0  0  0
 32 36  1  0  0  0  0
 33 32  1  0  0  0  0
 34 32  1  0  0  0  0
 36 35  1  0  0  0  0
 37 36  1  0  0  0  0
M  END
>  <minimizedAffinity>
-8.58833885

$$$$

 OpenBabel11232420303D

 37 41  0  0  1  0  0  0  0  0999 V2000
   -3.3410    4.2740   -7.5930 C   0  0  0  0  0  0  0  0  0  0  0  0
   -3.9570    4.4630   -8.6510 O   0  0  0  0  0  0  0  0  0  0  0  0
   -2.2220    5.0200   -7.2500 N   0  0  0  0  0  0  0  0  0  0  0  0
   -1.7760    6.0610   -8.2000 C   0  0  0  0  0  2  0  0  0  0  0  0
   -0.8400    7.1390   -7.6310 C   0  0  0  0  0  2  0  0  0  0  0  0
    0.2930    6.4990   -6.9540 N   0  0  0  0  0  0  0  0  0  0  0  0
   -0.0680    5.5080   -5.9300 C   0  0  1  0  0  3  0  0  0  0  0  0
   -1.2160    5.6700   -4.9740 C   0  0  0  0  0  2  0  0  0  0  0  0
   -1.3450    4.7210   -6.1330 C   0  0  1  0  0  3  0  0  0  0  0  0
    1.4290    7.3160   -6.8110 C   0  0  0  0  0  0  0  0  0  0  0  0
    2.4220    7.1690   -7.7110 N   0  0  0  0  0  0  0  0  0  0  0  0
    3.5400    7.8810   -7.5220 C   0  0  0  0  0  3  0  0  0  0  0  0
    3.7960    8.6760   -6.4820 N   0  0  0  0  0  0  0  0  0  0  0  0
    2.8180    8.7560   -5.5770 C   0  0  0  0  0  0  0  0  0  0  0  0
    1.5760    8.1540   -5.7090 C   0  0  0  0  0  0  0  0  0  0  0  0
    0.5280    8.4260   -4.6610 C   0  0  2  0  0  3  0  0  0  0  0  0
   -0.2110    9.7450   -4.9420 C   0  0  0  0  0  1  0  0  0  0  0  0
    1.1880    8.4810   -3.2820 C   0  0  0  0  0  2  0  0  0  0  0  0
    2.3700    9.4260   -3.2720 C   0  0  0  0  0  0  0  0  0  0  0  0
    2.6890   10.0590   -2.2710 O   0  0  0  0  0  0  0  0  0  0  0  0
    3.1220    9.4550   -4.4130 N   0  0  0  0  0  0  0  0  0  0  0  0
    3.9930    9.9680   -4.3940 H   0  0  0  0  0  0  0  0  0  0  0  0
   -3.7500    3.0950   -6.7050 C   0  0  1  0  0  3  0  0  0  0  0  0
   -4.9110    3.4090   -5.7730 C   0  0  0  0  0  0  0  0  0  0  0  0
   -5.9110    2.4460   -5.5570 C   0  0  0  0  0  3  0  0  0  0  0  0
   -7.0030    2.7290   -4.7330 C   0  0  0  0  0  3  0  0  0  0  0  0
   -7.1090    3.9770   -4.1240 C   0  0  0  0  0  0  0  0  0  0  0  0
   -8.4580    4.3250   -3.1180 Cl  0  0  0  0  0  0  0  0  0  0  0  0
   -6.1300    4.9440   -4.3320 C   0  0  0  0  0  3  0  0  0  0  0  0
   -5.0350    4.6640   -5.1540 C   0  0  0  0  0  3  0  0  0  0  0  0
   -4.1220    1.8720   -7.5780 C   0  0  0  0  0  2  0  0  0  0  0  0
   -3.4820    1.8760   -8.9440 N   0  0  0  0  0  4  0  0  0  0  0  0
   -3.3320    2.8830   -9.1660 H   0  0  0  0  0  0  0  0  0  0  0  0
   -4.1740    1.5650   -9.6400 H   0  0  0  0  0  0  0  0  0  0  0  0
   -2.2250    0.3890  -10.4680 C   0  0  0  0  0  1  0  0  0  0  0  0
   -2.1910    1.1400   -9.1450 C   0  0  0  0  0  3  0  0  0  0  0  0
   -1.0600    2.1620   -9.1130 C   0  0  0  0  0  1  0  0  0  0  0  0
  1  3  1  0  0  0  0
  1 23  1  0  0  0  0
  2  1  2  0  0  0  0
  3  9  1  0  0  0  0
  4  5  1  0  0  0  0
  4  3  1  0  0  0  0
  5  6  1  0  0  0  0
  6 10  1  0  0  0  0
  6  7  1  0  0  0  0
  7  8  1  1  0  0  0
  9  7  1  0  0  0  0
  9  8  1  1  0  0  0
 10 15  1  0  0  0  0
 11 12  1  0  0  0  0
 11 10  2  0  0  0  0
 12 13  2  0  0  0  0
 13 14  1  0  0  0  0
 14 21  1  0  0  0  0
 15 14  2  0  0  0  0
 15 16  1  0  0  0  0
 16 17  1  6  0  0  0
 16 18  1  0  0  0  0
 18 19  1  0  0  0  0
 19 20  2  0  0  0  0
 21 22  1  0  0  0  0
 21 19  1  0  0  0  0
 23 31  1  6  0  0  0
 23 24  1  0  0  0  0
 24 25  2  0  0  0  0
 24 30  1  0  0  0  0
 25 26  1  0  0  0  0
 26 27  2  0  0  0  0
 27 28  1  0  0  0  0
 29 27  1  0  0  0  0
 30 29  2  0  0  0  0
 32 31  1  0  0  0  0
 33 32  1  0  0  0  0
 34 32  1  0  0  0  0
 35 36  1  0  0  0  0
 36 37  1  0  0  0  0
 36 32  1  0  0  0  0
M  END
>  <minimizedAffinity>
-8.5266819

$$$$

 OpenBabel11232420303D

 37 41  0  0  1  0  0  0  0  0999 V2000
   -3.0260    3.1430   -7.0400 C   0  0  0  0  0  0  0  0  0  0  0  0
   -2.7590    1.9390   -6.9280 O   0  0  0  0  0  0  0  0  0  0  0  0
   -2.0400    4.1190   -7.0450 N   0  0  0  0  0  0  0  0  0  0  0  0
   -0.6370    3.6740   -6.9100 C   0  0  0  0  0  2  0  0  0  0  0  0
    0.4380    4.6820   -7.3480 C   0  0  0  0  0  2  0  0  0  0  0  0
    0.2080    5.9670   -6.6800 N   0  0  0  0  0  0  0  0  0  0  0  0
   -1.1440    6.5220   -6.8380 C   0  0  1  0  0  3  0  0  0  0  0  0
   -1.9340    6.4560   -8.1150 C   0  0  0  0  0  2  0  0  0  0  0  0
   -2.2940    5.5450   -6.9730 C   0  0  1  0  0  3  0  0  0  0  0  0
    1.3360    6.8020   -6.6110 C   0  0  0  0  0  0  0  0  0  0  0  0
    2.3550    6.5490   -7.4570 N   0  0  0  0  0  0  0  0  0  0  0  0
    3.4650    7.2870   -7.3300 C   0  0  0  0  0  3  0  0  0  0  0  0
    3.6890    8.2090   -6.3920 N   0  0  0  0  0  0  0  0  0  0  0  0
    2.6860    8.3970   -5.5320 C   0  0  0  0  0  0  0  0  0  0  0  0
    1.4500    7.7750   -5.6210 C   0  0  0  0  0  0  0  0  0  0  0  0
    0.3720    8.1710   -4.6450 C   0  0  2  0  0  3  0  0  0  0  0  0
   -0.3630    9.4390   -5.1120 C   0  0  0  0  0  1  0  0  0  0  0  0
    0.9930    8.4050   -3.2660 C   0  0  0  0  0  2  0  0  0  0  0  0
    2.1710    9.3510   -3.3440 C   0  0  0  0  0  0  0  0  0  0  0  0
    2.4600   10.1080   -2.4230 O   0  0  0  0  0  0  0  0  0  0  0  0
    2.9550    9.2410   -4.4580 N   0  0  0  0  0  0  0  0  0  0  0  0
    3.8240    9.7570   -4.4810 H   0  0  0  0  0  0  0  0  0  0  0  0
   -4.4980    3.5720   -7.0360 C   0  0  1  0  0  3  0  0  0  0  0  0
   -5.4680    2.4140   -6.8650 C   0  0  0  0  0  0  0  0  0  0  0  0
   -5.9500    1.7360   -7.9980 C   0  0  0  0  0  3  0  0  0  0  0  0
   -6.8690    0.6920   -7.8630 C   0  0  0  0  0  3  0  0  0  0  0  0
   -7.3190    0.3220   -6.5990 C   0  0  0  0  0  0  0  0  0  0  0  0
   -8.4570   -0.9560   -6.4370 Cl  0  0  0  0  0  0  0  0  0  0  0  0
   -6.8560    0.9870   -5.4670 C   0  0  0  0  0  3  0  0  0  0  0  0
   -5.9360    2.0300   -5.5970 C   0  0  0  0  0  3  0  0  0  0  0  0
   -4.7490    4.6100   -5.9160 C   0  0  0  0  0  2  0  0  0  0  0  0
   -6.2060    4.9140   -5.6750 N   0  0  0  0  0  4  0  0  0  0  0  0
   -6.7140    4.0630   -6.0000 H   0  0  0  0  0  0  0  0  0  0  0  0
   -6.5080    5.6510   -6.3290 H   0  0  0  0  0  0  0  0  0  0  0  0
   -8.0050    4.5900   -4.0110 C   0  0  0  0  0  1  0  0  0  0  0  0
   -6.6610    5.2480   -4.2860 C   0  0  0  0  0  3  0  0  0  0  0  0
   -5.5920    4.7610   -3.3140 C   0  0  0  0  0  1  0  0  0  0  0  0
  1 23  1  0  0  0  0
  1  2  2  0  0  0  0
  3  1  1  0  0  0  0
  3  9  1  0  0  0  0
  3  4  1  0  0  0  0
  5  4  1  0  0  0  0
  5  6  1  0  0  0  0
  6 10  1  0  0  0  0
  7  8  1  6  0  0  0
  7  6  1  0  0  0  0
  9  8  1  6  0  0  0
  9  7  1  0  0  0  0
 10 15  1  0  0  0  0
 11 12  1  0  0  0  0
 11 10  2  0  0  0  0
 12 13  2  0  0  0  0
 13 14  1  0  0  0  0
 14 21  1  0  0  0  0
 15 14  2  0  0  0  0
 15 16  1  0  0  0  0
 16 17  1  6  0  0  0
 16 18  1  0  0  0  0
 19 18  1  0  0  0  0
 19 20  2  0  0  0  0
 21 19  1  0  0  0  0
 22 21  1  0  0  0  0
 23 24  1  0  0  0  0
 23 31  1  1  0  0  0
 24 30  1  0  0  0  0
 25 26  1  0  0  0  0
 25 24  2  0  0  0  0
 26 27  2  0  0  0  0
 27 28  1  0  0  0  0
 27 29  1  0  0  0  0
 30 29  2  0  0  0  0
 31 32  1  0  0  0  0
 32 36  1  0  0  0  0
 33 32  1  0  0  0  0
 34 32  1  0  0  0  0
 36 35  1  0  0  0  0
 36 37  1  0  0  0  0
M  END
>  <minimizedAffinity>
-8.5045166

$$$$

 OpenBabel11232420303D

 37 41  0  0  1  0  0  0  0  0999 V2000
   -2.9190    4.7310   -7.7380 C   0  0  0  0  0  0  0  0  0  0  0  0
   -3.1220    4.8830   -8.9500 O   0  0  0  0  0  0  0  0  0  0  0  0
   -1.9910    5.4960   -7.0460 N   0  0  0  0  0  0  0  0  0  0  0  0
   -1.2390    6.5140   -7.8070 C   0  0  0  0  0  2  0  0  0  0  0  0
   -0.5620    7.6170   -6.9770 C   0  0  0  0  0  2  0  0  0  0  0  0
    0.2590    7.0070   -5.9260 N   0  0  0  0  0  0  0  0  0  0  0  0
   -0.4400    6.0410   -5.0670 C   0  0  1  0  0  3  0  0  0  0  0  0
   -1.8520    6.2190   -4.5810 C   0  0  0  0  0  2  0  0  0  0  0  0
   -1.5650    5.2360   -5.6830 C   0  0  1  0  0  3  0  0  0  0  0  0
    1.2720    7.8380   -5.4170 C   0  0  0  0  0  0  0  0  0  0  0  0
    1.0140    8.5110   -4.2760 N   0  0  0  0  0  0  0  0  0  0  0  0
    1.9440    9.3710   -3.8410 C   0  0  0  0  0  3  0  0  0  0  0  0
    3.0790    9.6820   -4.4680 N   0  0  0  0  0  0  0  0  0  0  0  0
    3.2790    9.0440   -5.6240 C   0  0  0  0  0  0  0  0  0  0  0  0
    2.4470    8.0560   -6.1290 C   0  0  0  0  0  0  0  0  0  0  0  0
    2.8600    7.3420   -7.3900 C   0  0  2  0  0  3  0  0  0  0  0  0
    3.8420    6.1980   -7.0860 C   0  0  0  0  0  1  0  0  0  0  0  0
    3.5050    8.3410   -8.3540 C   0  0  0  0  0  2  0  0  0  0  0  0
    4.5990    9.1360   -7.6760 C   0  0  0  0  0  0  0  0  0  0  0  0
    5.5840    9.5400   -8.2860 O   0  0  0  0  0  0  0  0  0  0  0  0
    4.3780    9.4640   -6.3690 N   0  0  0  0  0  0  0  0  0  0  0  0
    5.0190   10.1090   -5.9250 H   0  0  0  0  0  0  0  0  0  0  0  0
   -3.6160    3.5720   -7.0170 C   0  0  1  0  0  3  0  0  0  0  0  0
   -4.6310    4.0250   -5.9800 C   0  0  0  0  0  0  0  0  0  0  0  0
   -4.5000    3.6020   -4.6460 C   0  0  0  0  0  3  0  0  0  0  0  0
   -5.4430    3.9790   -3.6860 C   0  0  0  0  0  3  0  0  0  0  0  0
   -6.5260    4.7740   -4.0500 C   0  0  0  0  0  0  0  0  0  0  0  0
   -7.6890    5.2280   -2.8690 Cl  0  0  0  0  0  0  0  0  0  0  0  0
   -6.6730    5.1980   -5.3680 C   0  0  0  0  0  3  0  0  0  0  0  0
   -5.7320    4.8240   -6.3310 C   0  0  0  0  0  3  0  0  0  0  0  0
   -4.3190    2.6500   -8.0430 C   0  0  0  0  0  2  0  0  0  0  0  0
   -4.9040    1.3960   -7.4420 N   0  0  0  0  0  4  0  0  0  0  0  0
   -4.9210    1.5750   -6.4140 H   0  0  0  0  0  0  0  0  0  0  0  0
   -4.2300    0.6250   -7.5520 H   0  0  0  0  0  0  0  0  0  0  0  0
   -7.1610    0.7590   -6.6590 C   0  0  0  0  0  1  0  0  0  0  0  0
   -6.2670    0.9480   -7.8760 C   0  0  0  0  0  3  0  0  0  0  0  0
   -6.8280    2.0040   -8.8210 C   0  0  0  0  0  1  0  0  0  0  0  0
  1  3  1  0  0  0  0
  1 23  1  0  0  0  0
  2  1  2  0  0  0  0
  3  9  1  0  0  0  0
  4  3  1  0  0  0  0
  4  5  1  0  0  0  0
  5  6  1  0  0  0  0
  6 10  1  0  0  0  0
  6  7  1  0  0  0  0
  7  8  1  1  0  0  0
  9  7  1  0  0  0  0
  9  8  1  1  0  0  0
 10 11  1  0  0  0  0
 11 12  2  0  0  0  0
 13 12  1  0  0  0  0
 14 13  2  0  0  0  0
 15 14  1  0  0  0  0
 15 10  2  0  0  0  0
 16 17  1  1  0  0  0
 16 15  1  0  0  0  0
 18 19  1  0  0  0  0
 18 16  1  0  0  0  0
 19 21  1  0  0  0  0
 20 19  2  0  0  0  0
 21 22  1  0  0  0  0
 21 14  1  0  0  0  0
 23 31  1  6  0  0  0
 23 24  1  0  0  0  0
 24 25  1  0  0  0  0
 25 26  2  0  0  0  0
 27 26  1  0  0  0  0
 27 28  1  0  0  0  0
 29 27  2  0  0  0  0
 30 24  2  0  0  0  0
 30 29  1  0  0  0  0
 31 32  1  0  0  0  0
 32 33  1  0  0  0  0
 34 32  1  0  0  0  0
 36 32  1  0  0  0  0
 36 35  1  0  0  0  0
 37 36  1  0  0  0  0
M  END
>  <minimizedAffinity>
-8.46739578

$$$$

 OpenBabel11232420303D

 37 41  0  0  1  0  0  0  0  0999 V2000
   -2.5650    5.1550   -8.0370 C   0  0  0  0  0  0  0  0  0  0  0  0
   -3.2640    5.7960   -8.8330 O   0  0  0  0  0  0  0  0  0  0  0  0
   -1.5720    5.7580   -7.2780 N   0  0  0  0  0  0  0  0  0  0  0  0
   -1.3670    7.2110   -7.4490 C   0  0  0  0  0  2  0  0  0  0  0  0
   -0.5990    7.9230   -6.3250 C   0  0  0  0  0  2  0  0  0  0  0  0
    0.6640    7.2220   -6.0720 N   0  0  0  0  0  0  0  0  0  0  0  0
    0.5380    5.7810   -5.8070 C   0  0  1  0  0  3  0  0  0  0  0  0
   -0.5640    5.1730   -4.9850 C   0  0  0  0  0  2  0  0  0  0  0  0
   -0.5950    5.0380   -6.4820 C   0  0  1  0  0  3  0  0  0  0  0  0
    1.6490    7.9970   -5.4360 C   0  0  0  0  0  0  0  0  0  0  0  0
    1.3420    8.5420   -4.2420 N   0  0  0  0  0  0  0  0  0  0  0  0
    2.2460    9.3550   -3.6790 C   0  0  0  0  0  3  0  0  0  0  0  0
    3.4020    9.7360   -4.2240 N   0  0  0  0  0  0  0  0  0  0  0  0
    3.6530    9.2270   -5.4330 C   0  0  0  0  0  0  0  0  0  0  0  0
    2.8500    8.2960   -6.0740 C   0  0  0  0  0  0  0  0  0  0  0  0
    3.3190    7.7230   -7.3860 C   0  0  2  0  0  3  0  0  0  0  0  0
    4.2970    6.5570   -7.1670 C   0  0  0  0  0  1  0  0  0  0  0  0
    3.9920    8.8220   -8.2110 C   0  0  0  0  0  2  0  0  0  0  0  0
    5.0520    9.5440   -7.4080 C   0  0  0  0  0  0  0  0  0  0  0  0
    6.0570   10.0150   -7.9320 O   0  0  0  0  0  0  0  0  0  0  0  0
    4.7770    9.7290   -6.0830 N   0  0  0  0  0  0  0  0  0  0  0  0
    5.3950   10.3250   -5.5480 H   0  0  0  0  0  0  0  0  0  0  0  0
   -2.7150    3.6300   -7.9920 C   0  0  1  0  0  3  0  0  0  0  0  0
   -3.9000    3.1600   -7.1650 C   0  0  0  0  0  0  0  0  0  0  0  0
   -4.7510    2.1630   -7.6720 C   0  0  0  0  0  3  0  0  0  0  0  0
   -5.8660    1.7420   -6.9420 C   0  0  0  0  0  3  0  0  0  0  0  0
   -6.1440    2.3180   -5.7050 C   0  0  0  0  0  0  0  0  0  0  0  0
   -7.5210    1.8050   -4.8130 Cl  0  0  0  0  0  0  0  0  0  0  0  0
   -5.3140    3.3100   -5.1910 C   0  0  0  0  0  3  0  0  0  0  0  0
   -4.1980    3.7320   -5.9170 C   0  0  0  0  0  3  0  0  0  0  0  0
   -2.8440    3.0640   -9.4270 C   0  0  0  0  0  2  0  0  0  0  0  0
   -1.8350    3.6200  -10.4000 N   0  0  0  0  0  4  0  0  0  0  0  0
   -1.5130    4.5130   -9.9700 H   0  0  0  0  0  0  0  0  0  0  0  0
   -2.3240    3.9170  -11.2580 H   0  0  0  0  0  0  0  0  0  0  0  0
    0.4700    3.0220   -9.7360 C   0  0  0  0  0  1  0  0  0  0  0  0
   -0.6350    2.7960  -10.7570 C   0  0  0  0  0  3  0  0  0  0  0  0
   -1.0670    1.3340  -10.7960 C   0  0  0  0  0  1  0  0  0  0  0  0
  1 23  1  0  0  0  0
  1  3  1  0  0  0  0
  2  1  2  0  0  0  0
  3  9  1  0  0  0  0
  4  3  1  0  0  0  0
  4  5  1  0  0  0  0
  5  6  1  0  0  0  0
  6  7  1  0  0  0  0
  6 10  1  0  0  0  0
  7  8  1  1  0  0  0
  9  7  1  0  0  0  0
  9  8  1  1  0  0  0
 10 11  1  0  0  0  0
 11 12  2  0  0  0  0
 13 12  1  0  0  0  0
 14 13  2  0  0  0  0
 15 10  2  0  0  0  0
 15 14  1  0  0  0  0
 16 17  1  1  0  0  0
 16 15  1  0  0  0  0
 18 19  1  0  0  0  0
 18 16  1  0  0  0  0
 19 21  1  0  0  0  0
 20 19  2  0  0  0  0
 21 22  1  0  0  0  0
 21 14  1  0  0  0  0
 23 31  1  6  0  0  0
 23 24  1  0  0  0  0
 24 30  1  0  0  0  0
 25 24  2  0  0  0  0
 25 26  1  0  0  0  0
 26 27  2  0  0  0  0
 27 29  1  0  0  0  0
 27 28  1  0  0  0  0
 30 29  2  0  0  0  0
 32 33  1  0  0  0  0
 32 31  1  0  0  0  0
 34 32  1  0  0  0  0
 36 32  1  0  0  0  0
 36 35  1  0  0  0  0
 37 36  1  0  0  0  0
M  END
>  <minimizedAffinity>
-8.30413246

$$$$

 OpenBabel11232420303D

 37 41  0  0  1  0  0  0  0  0999 V2000
   -0.5410    3.6630   -8.8360 C   0  0  0  0  0  0  0  0  0  0  0  0
   -1.2480    3.2600   -9.7690 O   0  0  0  0  0  0  0  0  0  0  0  0
    0.8350    3.7940   -8.9580 N   0  0  0  0  0  0  0  0  0  0  0  0
    1.4450    3.4300  -10.2530 C   0  0  0  0  0  2  0  0  0  0  0  0
    2.8560    3.9790  -10.5150 C   0  0  0  0  0  2  0  0  0  0  0  0
    3.7320    3.6410   -9.3870 N   0  0  0  0  0  0  0  0  0  0  0  0
    3.2350    4.0470   -8.0650 C   0  0  1  0  0  3  0  0  0  0  0  0
    2.5270    5.3460   -7.7970 C   0  0  0  0  0  2  0  0  0  0  0  0
    1.7350    4.0690   -7.8530 C   0  0  1  0  0  3  0  0  0  0  0  0
    5.1050    3.6550   -9.6870 C   0  0  0  0  0  0  0  0  0  0  0  0
    5.5750    4.6820  -10.4220 N   0  0  0  0  0  0  0  0  0  0  0  0
    6.8640    4.6480  -10.7830 C   0  0  0  0  0  3  0  0  0  0  0  0
    7.7190    3.6520  -10.5430 N   0  0  0  0  0  0  0  0  0  0  0  0
    7.2100    2.6220   -9.8640 C   0  0  0  0  0  0  0  0  0  0  0  0
    5.9250    2.5830   -9.3440 C   0  0  0  0  0  0  0  0  0  0  0  0
    5.5250    1.4010   -8.4990 C   0  0  2  0  0  3  0  0  0  0  0  0
    5.9850    1.5770   -7.0420 C   0  0  0  0  0  1  0  0  0  0  0  0
    6.1320    0.1250   -9.0870 C   0  0  0  0  0  2  0  0  0  0  0  0
    7.6190    0.2770   -9.3200 C   0  0  0  0  0  0  0  0  0  0  0  0
    8.3920   -0.6720   -9.2310 O   0  0  0  0  0  0  0  0  0  0  0  0
    8.0370    1.5090   -9.7360 N   0  0  0  0  0  0  0  0  0  0  0  0
    8.9980    1.6100  -10.0330 H   0  0  0  0  0  0  0  0  0  0  0  0
   -1.1930    3.8960   -7.4690 C   0  0  1  0  0  3  0  0  0  0  0  0
   -1.1330    5.3420   -7.0040 C   0  0  0  0  0  0  0  0  0  0  0  0
   -0.8910    5.6300   -5.6500 C   0  0  0  0  0  3  0  0  0  0  0  0
   -0.8670    6.9520   -5.1980 C   0  0  0  0  0  3  0  0  0  0  0  0
   -1.0920    7.9950   -6.0920 C   0  0  0  0  0  0  0  0  0  0  0  0
   -1.0710    9.6200   -5.5310 Cl  0  0  0  0  0  0  0  0  0  0  0  0
   -1.3380    7.7280   -7.4350 C   0  0  0  0  0  3  0  0  0  0  0  0
   -1.3610    6.4080   -7.8910 C   0  0  0  0  0  3  0  0  0  0  0  0
   -2.6710    3.4360   -7.4970 C   0  0  0  0  0  2  0  0  0  0  0  0
   -3.1530    2.8370   -6.1990 N   0  0  0  0  0  4  0  0  0  0  0  0
   -2.5060    3.2160   -5.4740 H   0  0  0  0  0  0  0  0  0  0  0  0
   -2.9610    1.8250   -6.2030 H   0  0  0  0  0  0  0  0  0  0  0  0
   -4.8820    4.5710   -5.8560 C   0  0  0  0  0  1  0  0  0  0  0  0
   -4.5660    3.0860   -5.7620 C   0  0  0  0  0  3  0  0  0  0  0  0
   -5.4840    2.2620   -6.6580 C   0  0  0  0  0  1  0  0  0  0  0  0
  1 23  1  0  0  0  0
  2  1  2  0  0  0  0
  3  1  1  0  0  0  0
  3  9  1  0  0  0  0
  4  3  1  0  0  0  0
  5  4  1  0  0  0  0
  5  6  1  0  0  0  0
  6  7  1  0  0  0  0
  7  9  1  0  0  0  0
  7  8  1  6  0  0  0
  9  8  1  6  0  0  0
 10  6  1  0  0  0  0
 10 15  1  0  0  0  0
 11 10  2  0  0  0  0
 12 13  2  0  0  0  0
 12 11  1  0  0  0  0
 13 14  1  0  0  0  0
 14 21  1  0  0  0  0
 14 15  2  0  0  0  0
 15 16  1  0  0  0  0
 16 17  1  1  0  0  0
 18 16  1  0  0  0  0
 19 20  2  0  0  0  0
 19 18  1  0  0  0  0
 21 19  1  0  0  0  0
 22 21  1  0  0  0  0
 23 31  1  6  0  0  0
 23 24  1  0  0  0  0
 24 25  1  0  0  0  0
 25 26  2  0  0  0  0
 27 28  1  0  0  0  0
 27 26  1  0  0  0  0
 29 27  2  0  0  0  0
 30 29  1  0  0  0  0
 30 24  2  0  0  0  0
 31 32  1  0  0  0  0
 32 36  1  0  0  0  0
 32 33  1  0  0  0  0
 34 32  1  0  0  0  0
 35 36  1  0  0  0  0
 37 36  1  0  0  0  0
M  END
>  <minimizedAffinity>
-8.14282036

$$$$
