
 OpenBabel11232420303D

 37 41  0  0  1  0  0  0  0  0999 V2000
   -2.9190    4.7310   -7.7380 C   0  0  0  0  0  0  0  0  0  0  0  0
   -3.1220    4.8830   -8.9500 O   0  0  0  0  0  0  0  0  0  0  0  0
   -1.9910    5.4960   -7.0460 N   0  0  0  0  0  0  0  0  0  0  0  0
   -1.2390    6.5140   -7.8070 C   0  0  0  0  0  2  0  0  0  0  0  0
   -0.5620    7.6170   -6.9770 C   0  0  0  0  0  2  0  0  0  0  0  0
    0.2590    7.0070   -5.9260 N   0  0  0  0  0  0  0  0  0  0  0  0
   -0.4400    6.0410   -5.0670 C   0  0  1  0  0  3  0  0  0  0  0  0
   -1.8520    6.2190   -4.5810 C   0  0  0  0  0  2  0  0  0  0  0  0
   -1.5650    5.2360   -5.6830 C   0  0  1  0  0  3  0  0  0  0  0  0
    1.2720    7.8380   -5.4170 C   0  0  0  0  0  0  0  0  0  0  0  0
    1.0140    8.5110   -4.2760 N   0  0  0  0  0  0  0  0  0  0  0  0
    1.9440    9.3710   -3.8410 C   0  0  0  0  0  3  0  0  0  0  0  0
    3.0790    9.6820   -4.4680 N   0  0  0  0  0  0  0  0  0  0  0  0
    3.2790    9.0440   -5.6240 C   0  0  0  0  0  0  0  0  0  0  0  0
    2.4470    8.0560   -6.1290 C   0  0  0  0  0  0  0  0  0  0  0  0
    2.8600    7.3420   -7.3900 C   0  0  2  0  0  3  0  0  0  0  0  0
    3.8420    6.1980   -7.0860 C   0  0  0  0  0  1  0  0  0  0  0  0
    3.5050    8.3410   -8.3540 C   0  0  0  0  0  2  0  0  0  0  0  0
    4.5990    9.1360   -7.6760 C   0  0  0  0  0  0  0  0  0  0  0  0
    5.5840    9.5400   -8.2860 O   0  0  0  0  0  0  0  0  0  0  0  0
    4.3780    9.4640   -6.3690 N   0  0  0  0  0  0  0  0  0  0  0  0
    5.0190   10.1090   -5.9250 H   0  0  0  0  0  0  0  0  0  0  0  0
   -3.6160    3.5720   -7.0170 C   0  0  1  0  0  3  0  0  0  0  0  0
   -4.6310    4.0250   -5.9800 C   0  0  0  0  0  0  0  0  0  0  0  0
   -4.5000    3.6020   -4.6460 C   0  0  0  0  0  3  0  0  0  0  0  0
   -5.4430    3.9790   -3.6860 C   0  0  0  0  0  3  0  0  0  0  0  0
   -6.5260    4.7740   -4.0500 C   0  0  0  0  0  0  0  0  0  0  0  0
   -7.6890    5.2280   -2.8690 Cl  0  0  0  0  0  0  0  0  0  0  0  0
   -6.6730    5.1980   -5.3680 C   0  0  0  0  0  3  0  0  0  0  0  0
   -5.7320    4.8240   -6.3310 C   0  0  0  0  0  3  0  0  0  0  0  0
   -4.3190    2.6500   -8.0430 C   0  0  0  0  0  2  0  0  0  0  0  0
   -4.9040    1.3960   -7.4420 N   0  0  0  0  0  4  0  0  0  0  0  0
   -4.9210    1.5750   -6.4140 H   0  0  0  0  0  0  0  0  0  0  0  0
   -4.2300    0.6250   -7.5520 H   0  0  0  0  0  0  0  0  0  0  0  0
   -7.1610    0.7590   -6.6590 C   0  0  0  0  0  1  0  0  0  0  0  0
   -6.2670    0.9480   -7.8760 C   0  0  0  0  0  3  0  0  0  0  0  0
   -6.8280    2.0040   -8.8210 C   0  0  0  0  0  1  0  0  0  0  0  0
  1  3  1  0  0  0  0
  1 23  1  0  0  0  0
  2  1  2  0  0  0  0
  3  9  1  0  0  0  0
  4  3  1  0  0  0  0
  4  5  1  0  0  0  0
  5  6  1  0  0  0  0
  6 10  1  0  0  0  0
  6  7  1  0  0  0  0
  7  8  1  1  0  0  0
  9  7  1  0  0  0  0
  9  8  1  1  0  0  0
 10 11  1  0  0  0  0
 11 12  2  0  0  0  0
 13 12  1  0  0  0  0
 14 13  2  0  0  0  0
 15 14  1  0  0  0  0
 15 10  2  0  0  0  0
 16 17  1  1  0  0  0
 16 15  1  0  0  0  0
 18 19  1  0  0  0  0
 18 16  1  0  0  0  0
 19 21  1  0  0  0  0
 20 19  2  0  0  0  0
 21 22  1  0  0  0  0
 21 14  1  0  0  0  0
 23 31  1  6  0  0  0
 23 24  1  0  0  0  0
 24 25  1  0  0  0  0
 25 26  2  0  0  0  0
 27 26  1  0  0  0  0
 27 28  1  0  0  0  0
 29 27  2  0  0  0  0
 30 24  2  0  0  0  0
 30 29  1  0  0  0  0
 31 32  1  0  0  0  0
 32 33  1  0  0  0  0
 34 32  1  0  0  0  0
 36 32  1  0  0  0  0
 36 35  1  0  0  0  0
 37 36  1  0  0  0  0
M  END
>  <minimizedAffinity>
-8.46739578

$$$$
