
 OpenBabel11232420303D

 37 41  0  0  1  0  0  0  0  0999 V2000
   -3.0260    3.1430   -7.0400 C   0  0  0  0  0  0  0  0  0  0  0  0
   -2.7590    1.9390   -6.9280 O   0  0  0  0  0  0  0  0  0  0  0  0
   -2.0400    4.1190   -7.0450 N   0  0  0  0  0  0  0  0  0  0  0  0
   -0.6370    3.6740   -6.9100 C   0  0  0  0  0  2  0  0  0  0  0  0
    0.4380    4.6820   -7.3480 C   0  0  0  0  0  2  0  0  0  0  0  0
    0.2080    5.9670   -6.6800 N   0  0  0  0  0  0  0  0  0  0  0  0
   -1.1440    6.5220   -6.8380 C   0  0  1  0  0  3  0  0  0  0  0  0
   -1.9340    6.4560   -8.1150 C   0  0  0  0  0  2  0  0  0  0  0  0
   -2.2940    5.5450   -6.9730 C   0  0  1  0  0  3  0  0  0  0  0  0
    1.3360    6.8020   -6.6110 C   0  0  0  0  0  0  0  0  0  0  0  0
    2.3550    6.5490   -7.4570 N   0  0  0  0  0  0  0  0  0  0  0  0
    3.4650    7.2870   -7.3300 C   0  0  0  0  0  3  0  0  0  0  0  0
    3.6890    8.2090   -6.3920 N   0  0  0  0  0  0  0  0  0  0  0  0
    2.6860    8.3970   -5.5320 C   0  0  0  0  0  0  0  0  0  0  0  0
    1.4500    7.7750   -5.6210 C   0  0  0  0  0  0  0  0  0  0  0  0
    0.3720    8.1710   -4.6450 C   0  0  2  0  0  3  0  0  0  0  0  0
   -0.3630    9.4390   -5.1120 C   0  0  0  0  0  1  0  0  0  0  0  0
    0.9930    8.4050   -3.2660 C   0  0  0  0  0  2  0  0  0  0  0  0
    2.1710    9.3510   -3.3440 C   0  0  0  0  0  0  0  0  0  0  0  0
    2.4600   10.1080   -2.4230 O   0  0  0  0  0  0  0  0  0  0  0  0
    2.9550    9.2410   -4.4580 N   0  0  0  0  0  0  0  0  0  0  0  0
    3.8240    9.7570   -4.4810 H   0  0  0  0  0  0  0  0  0  0  0  0
   -4.4980    3.5720   -7.0360 C   0  0  1  0  0  3  0  0  0  0  0  0
   -5.4680    2.4140   -6.8650 C   0  0  0  0  0  0  0  0  0  0  0  0
   -5.9500    1.7360   -7.9980 C   0  0  0  0  0  3  0  0  0  0  0  0
   -6.8690    0.6920   -7.8630 C   0  0  0  0  0  3  0  0  0  0  0  0
   -7.3190    0.3220   -6.5990 C   0  0  0  0  0  0  0  0  0  0  0  0
   -8.4570   -0.9560   -6.4370 Cl  0  0  0  0  0  0  0  0  0  0  0  0
   -6.8560    0.9870   -5.4670 C   0  0  0  0  0  3  0  0  0  0  0  0
   -5.9360    2.0300   -5.5970 C   0  0  0  0  0  3  0  0  0  0  0  0
   -4.7490    4.6100   -5.9160 C   0  0  0  0  0  2  0  0  0  0  0  0
   -6.2060    4.9140   -5.6750 N   0  0  0  0  0  4  0  0  0  0  0  0
   -6.7140    4.0630   -6.0000 H   0  0  0  0  0  0  0  0  0  0  0  0
   -6.5080    5.6510   -6.3290 H   0  0  0  0  0  0  0  0  0  0  0  0
   -8.0050    4.5900   -4.0110 C   0  0  0  0  0  1  0  0  0  0  0  0
   -6.6610    5.2480   -4.2860 C   0  0  0  0  0  3  0  0  0  0  0  0
   -5.5920    4.7610   -3.3140 C   0  0  0  0  0  1  0  0  0  0  0  0
  1 23  1  0  0  0  0
  1  2  2  0  0  0  0
  3  1  1  0  0  0  0
  3  9  1  0  0  0  0
  3  4  1  0  0  0  0
  5  4  1  0  0  0  0
  5  6  1  0  0  0  0
  6 10  1  0  0  0  0
  7  8  1  6  0  0  0
  7  6  1  0  0  0  0
  9  8  1  6  0  0  0
  9  7  1  0  0  0  0
 10 15  1  0  0  0  0
 11 12  1  0  0  0  0
 11 10  2  0  0  0  0
 12 13  2  0  0  0  0
 13 14  1  0  0  0  0
 14 21  1  0  0  0  0
 15 14  2  0  0  0  0
 15 16  1  0  0  0  0
 16 17  1  6  0  0  0
 16 18  1  0  0  0  0
 19 18  1  0  0  0  0
 19 20  2  0  0  0  0
 21 19  1  0  0  0  0
 22 21  1  0  0  0  0
 23 24  1  0  0  0  0
 23 31  1  1  0  0  0
 24 30  1  0  0  0  0
 25 26  1  0  0  0  0
 25 24  2  0  0  0  0
 26 27  2  0  0  0  0
 27 28  1  0  0  0  0
 27 29  1  0  0  0  0
 30 29  2  0  0  0  0
 31 32  1  0  0  0  0
 32 36  1  0  0  0  0
 33 32  1  0  0  0  0
 34 32  1  0  0  0  0
 36 35  1  0  0  0  0
 36 37  1  0  0  0  0
M  END
>  <minimizedAffinity>
-8.5045166

$$$$
