
 OpenBabel11232420303D

 37 41  0  0  1  0  0  0  0  0999 V2000
   -3.3410    4.2740   -7.5930 C   0  0  0  0  0  0  0  0  0  0  0  0
   -3.9570    4.4630   -8.6510 O   0  0  0  0  0  0  0  0  0  0  0  0
   -2.2220    5.0200   -7.2500 N   0  0  0  0  0  0  0  0  0  0  0  0
   -1.7760    6.0610   -8.2000 C   0  0  0  0  0  2  0  0  0  0  0  0
   -0.8400    7.1390   -7.6310 C   0  0  0  0  0  2  0  0  0  0  0  0
    0.2930    6.4990   -6.9540 N   0  0  0  0  0  0  0  0  0  0  0  0
   -0.0680    5.5080   -5.9300 C   0  0  1  0  0  3  0  0  0  0  0  0
   -1.2160    5.6700   -4.9740 C   0  0  0  0  0  2  0  0  0  0  0  0
   -1.3450    4.7210   -6.1330 C   0  0  1  0  0  3  0  0  0  0  0  0
    1.4290    7.3160   -6.8110 C   0  0  0  0  0  0  0  0  0  0  0  0
    2.4220    7.1690   -7.7110 N   0  0  0  0  0  0  0  0  0  0  0  0
    3.5400    7.8810   -7.5220 C   0  0  0  0  0  3  0  0  0  0  0  0
    3.7960    8.6760   -6.4820 N   0  0  0  0  0  0  0  0  0  0  0  0
    2.8180    8.7560   -5.5770 C   0  0  0  0  0  0  0  0  0  0  0  0
    1.5760    8.1540   -5.7090 C   0  0  0  0  0  0  0  0  0  0  0  0
    0.5280    8.4260   -4.6610 C   0  0  2  0  0  3  0  0  0  0  0  0
   -0.2110    9.7450   -4.9420 C   0  0  0  0  0  1  0  0  0  0  0  0
    1.1880    8.4810   -3.2820 C   0  0  0  0  0  2  0  0  0  0  0  0
    2.3700    9.4260   -3.2720 C   0  0  0  0  0  0  0  0  0  0  0  0
    2.6890   10.0590   -2.2710 O   0  0  0  0  0  0  0  0  0  0  0  0
    3.1220    9.4550   -4.4130 N   0  0  0  0  0  0  0  0  0  0  0  0
    3.9930    9.9680   -4.3940 H   0  0  0  0  0  0  0  0  0  0  0  0
   -3.7500    3.0950   -6.7050 C   0  0  1  0  0  3  0  0  0  0  0  0
   -4.9110    3.4090   -5.7730 C   0  0  0  0  0  0  0  0  0  0  0  0
   -5.9110    2.4460   -5.5570 C   0  0  0  0  0  3  0  0  0  0  0  0
   -7.0030    2.7290   -4.7330 C   0  0  0  0  0  3  0  0  0  0  0  0
   -7.1090    3.9770   -4.1240 C   0  0  0  0  0  0  0  0  0  0  0  0
   -8.4580    4.3250   -3.1180 Cl  0  0  0  0  0  0  0  0  0  0  0  0
   -6.1300    4.9440   -4.3320 C   0  0  0  0  0  3  0  0  0  0  0  0
   -5.0350    4.6640   -5.1540 C   0  0  0  0  0  3  0  0  0  0  0  0
   -4.1220    1.8720   -7.5780 C   0  0  0  0  0  2  0  0  0  0  0  0
   -3.4820    1.8760   -8.9440 N   0  0  0  0  0  4  0  0  0  0  0  0
   -3.3320    2.8830   -9.1660 H   0  0  0  0  0  0  0  0  0  0  0  0
   -4.1740    1.5650   -9.6400 H   0  0  0  0  0  0  0  0  0  0  0  0
   -2.2250    0.3890  -10.4680 C   0  0  0  0  0  1  0  0  0  0  0  0
   -2.1910    1.1400   -9.1450 C   0  0  0  0  0  3  0  0  0  0  0  0
   -1.0600    2.1620   -9.1130 C   0  0  0  0  0  1  0  0  0  0  0  0
  1  3  1  0  0  0  0
  1 23  1  0  0  0  0
  2  1  2  0  0  0  0
  3  9  1  0  0  0  0
  4  5  1  0  0  0  0
  4  3  1  0  0  0  0
  5  6  1  0  0  0  0
  6 10  1  0  0  0  0
  6  7  1  0  0  0  0
  7  8  1  1  0  0  0
  9  7  1  0  0  0  0
  9  8  1  1  0  0  0
 10 15  1  0  0  0  0
 11 12  1  0  0  0  0
 11 10  2  0  0  0  0
 12 13  2  0  0  0  0
 13 14  1  0  0  0  0
 14 21  1  0  0  0  0
 15 14  2  0  0  0  0
 15 16  1  0  0  0  0
 16 17  1  6  0  0  0
 16 18  1  0  0  0  0
 18 19  1  0  0  0  0
 19 20  2  0  0  0  0
 21 22  1  0  0  0  0
 21 19  1  0  0  0  0
 23 31  1  6  0  0  0
 23 24  1  0  0  0  0
 24 25  2  0  0  0  0
 24 30  1  0  0  0  0
 25 26  1  0  0  0  0
 26 27  2  0  0  0  0
 27 28  1  0  0  0  0
 29 27  1  0  0  0  0
 30 29  2  0  0  0  0
 32 31  1  0  0  0  0
 33 32  1  0  0  0  0
 34 32  1  0  0  0  0
 35 36  1  0  0  0  0
 36 37  1  0  0  0  0
 36 32  1  0  0  0  0
M  END
>  <minimizedAffinity>
-8.5266819

$$$$
