
 OpenBabel11232420303D

 37 41  0  0  1  0  0  0  0  0999 V2000
   -2.5650    5.1550   -8.0370 C   0  0  0  0  0  0  0  0  0  0  0  0
   -3.2640    5.7960   -8.8330 O   0  0  0  0  0  0  0  0  0  0  0  0
   -1.5720    5.7580   -7.2780 N   0  0  0  0  0  0  0  0  0  0  0  0
   -1.3670    7.2110   -7.4490 C   0  0  0  0  0  2  0  0  0  0  0  0
   -0.5990    7.9230   -6.3250 C   0  0  0  0  0  2  0  0  0  0  0  0
    0.6640    7.2220   -6.0720 N   0  0  0  0  0  0  0  0  0  0  0  0
    0.5380    5.7810   -5.8070 C   0  0  1  0  0  3  0  0  0  0  0  0
   -0.5640    5.1730   -4.9850 C   0  0  0  0  0  2  0  0  0  0  0  0
   -0.5950    5.0380   -6.4820 C   0  0  1  0  0  3  0  0  0  0  0  0
    1.6490    7.9970   -5.4360 C   0  0  0  0  0  0  0  0  0  0  0  0
    1.3420    8.5420   -4.2420 N   0  0  0  0  0  0  0  0  0  0  0  0
    2.2460    9.3550   -3.6790 C   0  0  0  0  0  3  0  0  0  0  0  0
    3.4020    9.7360   -4.2240 N   0  0  0  0  0  0  0  0  0  0  0  0
    3.6530    9.2270   -5.4330 C   0  0  0  0  0  0  0  0  0  0  0  0
    2.8500    8.2960   -6.0740 C   0  0  0  0  0  0  0  0  0  0  0  0
    3.3190    7.7230   -7.3860 C   0  0  2  0  0  3  0  0  0  0  0  0
    4.2970    6.5570   -7.1670 C   0  0  0  0  0  1  0  0  0  0  0  0
    3.9920    8.8220   -8.2110 C   0  0  0  0  0  2  0  0  0  0  0  0
    5.0520    9.5440   -7.4080 C   0  0  0  0  0  0  0  0  0  0  0  0
    6.0570   10.0150   -7.9320 O   0  0  0  0  0  0  0  0  0  0  0  0
    4.7770    9.7290   -6.0830 N   0  0  0  0  0  0  0  0  0  0  0  0
    5.3950   10.3250   -5.5480 H   0  0  0  0  0  0  0  0  0  0  0  0
   -2.7150    3.6300   -7.9920 C   0  0  1  0  0  3  0  0  0  0  0  0
   -3.9000    3.1600   -7.1650 C   0  0  0  0  0  0  0  0  0  0  0  0
   -4.7510    2.1630   -7.6720 C   0  0  0  0  0  3  0  0  0  0  0  0
   -5.8660    1.7420   -6.9420 C   0  0  0  0  0  3  0  0  0  0  0  0
   -6.1440    2.3180   -5.7050 C   0  0  0  0  0  0  0  0  0  0  0  0
   -7.5210    1.8050   -4.8130 Cl  0  0  0  0  0  0  0  0  0  0  0  0
   -5.3140    3.3100   -5.1910 C   0  0  0  0  0  3  0  0  0  0  0  0
   -4.1980    3.7320   -5.9170 C   0  0  0  0  0  3  0  0  0  0  0  0
   -2.8440    3.0640   -9.4270 C   0  0  0  0  0  2  0  0  0  0  0  0
   -1.8350    3.6200  -10.4000 N   0  0  0  0  0  4  0  0  0  0  0  0
   -1.5130    4.5130   -9.9700 H   0  0  0  0  0  0  0  0  0  0  0  0
   -2.3240    3.9170  -11.2580 H   0  0  0  0  0  0  0  0  0  0  0  0
    0.4700    3.0220   -9.7360 C   0  0  0  0  0  1  0  0  0  0  0  0
   -0.6350    2.7960  -10.7570 C   0  0  0  0  0  3  0  0  0  0  0  0
   -1.0670    1.3340  -10.7960 C   0  0  0  0  0  1  0  0  0  0  0  0
  1 23  1  0  0  0  0
  1  3  1  0  0  0  0
  2  1  2  0  0  0  0
  3  9  1  0  0  0  0
  4  3  1  0  0  0  0
  4  5  1  0  0  0  0
  5  6  1  0  0  0  0
  6  7  1  0  0  0  0
  6 10  1  0  0  0  0
  7  8  1  1  0  0  0
  9  7  1  0  0  0  0
  9  8  1  1  0  0  0
 10 11  1  0  0  0  0
 11 12  2  0  0  0  0
 13 12  1  0  0  0  0
 14 13  2  0  0  0  0
 15 10  2  0  0  0  0
 15 14  1  0  0  0  0
 16 17  1  1  0  0  0
 16 15  1  0  0  0  0
 18 19  1  0  0  0  0
 18 16  1  0  0  0  0
 19 21  1  0  0  0  0
 20 19  2  0  0  0  0
 21 22  1  0  0  0  0
 21 14  1  0  0  0  0
 23 31  1  6  0  0  0
 23 24  1  0  0  0  0
 24 30  1  0  0  0  0
 25 24  2  0  0  0  0
 25 26  1  0  0  0  0
 26 27  2  0  0  0  0
 27 29  1  0  0  0  0
 27 28  1  0  0  0  0
 30 29  2  0  0  0  0
 32 33  1  0  0  0  0
 32 31  1  0  0  0  0
 34 32  1  0  0  0  0
 36 32  1  0  0  0  0
 36 35  1  0  0  0  0
 37 36  1  0  0  0  0
M  END
>  <minimizedAffinity>
-8.30413246

$$$$
