
 OpenBabel10152418433D

 41 44  0  0  1  0  0  0  0  0999 V2000
   -0.9920   -7.3660  -25.9160 C   0  0  2  0  0  3  0  0  0  0  0  0
    0.9320  -10.1860  -24.1460 C   0  0  0  0  0  0  0  0  0  0  0  0
    0.0170  -11.2350  -24.2140 C   0  0  0  0  0  3  0  0  0  0  0  0
   -1.2750  -11.0030  -24.6710 C   0  0  0  0  0  3  0  0  0  0  0  0
   -1.6300   -9.7430  -25.1560 C   0  0  0  0  0  3  0  0  0  0  0  0
   -0.6960   -8.6960  -25.2080 C   0  0  0  0  0  0  0  0  0  0  0  0
    0.5720   -8.9160  -24.6200 C   0  0  0  0  0  3  0  0  0  0  0  0
    3.0690  -11.5070  -24.1410 C   0  0  0  0  0  0  0  0  0  0  0  0
    3.8430  -12.0360  -23.3430 O   0  0  0  0  0  0  0  0  0  0  0  0
    2.2320  -10.5010  -23.7230 N   0  0  0  0  0  0  0  0  0  0  0  0
    2.5830  -10.0030  -22.9130 H   0  0  0  0  0  0  0  0  0  0  0  0
    3.5490  -11.9890  -28.3740 C   0  0  0  0  0  0  0  0  0  0  0  0
    4.6600  -11.9480  -27.5300 C   0  0  0  0  0  3  0  0  0  0  0  0
    4.4930  -11.8600  -26.1460 C   0  0  0  0  0  3  0  0  0  0  0  0
    3.2090  -11.8030  -25.5940 C   0  0  0  0  0  0  0  0  0  0  0  0
    2.0950  -11.8120  -26.4460 C   0  0  0  0  0  3  0  0  0  0  0  0
    2.2660  -11.9110  -27.8330 C   0  0  0  0  0  3  0  0  0  0  0  0
    4.3480  -10.8250  -30.2510 C   0  0  0  0  0  1  0  0  0  0  0  0
    3.8250  -12.0380  -29.7130 O   0  0  0  0  0  0  0  0  0  0  0  0
   -0.5700   -7.3920  -27.3200 N   0  0  0  0  0  0  0  0  0  0  0  0
   -1.3400   -7.3020  -27.9680 H   0  0  0  0  0  0  0  0  0  0  0  0
    0.4700   -6.5020  -27.6650 C   0  0  0  0  0  0  0  0  0  0  0  0
    0.1530   -5.3420  -28.2560 N   0  0  0  0  0  0  0  0  0  0  0  0
    1.1140   -4.7720  -28.9780 C   0  0  0  0  0  3  0  0  0  0  0  0
    2.2980   -5.3280  -29.2400 N   0  0  0  0  0  0  0  0  0  0  0  0
    2.6240   -6.4460  -28.5610 C   0  0  0  0  0  0  0  0  0  0  0  0
    3.7480   -7.2180  -28.8610 C   0  0  0  0  0  0  0  0  0  0  0  0
    4.1990   -8.2780  -28.0550 C   0  0  0  0  0  3  0  0  0  0  0  0
    3.4620   -8.6440  -26.9430 C   0  0  0  0  0  3  0  0  0  0  0  0
    2.2270   -8.0420  -26.7470 C   0  0  0  0  0  3  0  0  0  0  0  0
    1.7860   -6.9820  -27.5910 C   0  0  0  0  0  0  0  0  0  0  0  0
    4.1810   -7.2330  -30.2710 C   0  0  0  0  0  0  0  0  0  0  0  0
    3.6490   -8.2820  -30.9810 N   0  0  0  0  0  0  0  0  0  0  0  0
    4.9410   -6.4150  -30.7600 O   0  0  0  0  0  0  0  0  0  0  0  0
    3.8620   -8.3680  -31.9640 H   0  0  0  0  0  0  0  0  0  0  0  0
    3.0050   -8.9460  -30.5690 H   0  0  0  0  0  0  0  0  0  0  0  0
   -0.4000   -6.1240  -25.2070 C   0  0  0  0  0  3  0  0  0  0  0  0
   -0.7670   -5.7920  -23.7490 C   0  0  0  0  0  3  0  0  0  0  0  0
   -1.7060   -6.7380  -23.0040 C   0  0  0  0  0  2  0  0  0  0  0  0
   -1.0110   -7.7260  -22.2650 O   0  0  0  0  0  0  0  0  0  0  0  0
   -0.4090   -8.2050  -22.8700 H   0  0  0  0  0  0  0  0  0  0  0  0
  1  6  1  0  0  0  0
  1 37  1  1  0  0  0
  2 10  1  0  0  0  0
  3  2  1  0  0  0  0
  4  3  2  0  0  0  0
  5  4  1  0  0  0  0
  6  5  2  0  0  0  0
  6  7  1  0  0  0  0
  7  2  2  0  0  0  0
  8 10  1  0  0  0  0
  8  9  2  0  0  0  0
 10 11  1  0  0  0  0
 12 17  2  0  0  0  0
 12 13  1  0  0  0  0
 13 14  2  0  0  0  0
 14 15  1  0  0  0  0
 15  8  1  0  0  0  0
 16 15  2  0  0  0  0
 17 16  1  0  0  0  0
 18 19  1  0  0  0  0
 19 12  1  0  0  0  0
 20  1  1  0  0  0  0
 21 20  1  0  0  0  0
 22 31  1  0  0  0  0
 22 20  1  0  0  0  0
 23 22  2  0  0  0  0
 24 23  1  0  0  0  0
 25 24  2  0  0  0  0
 25 26  1  0  0  0  0
 26 31  1  0  0  0  0
 27 26  2  0  0  0  0
 27 28  1  0  0  0  0
 28 29  2  0  0  0  0
 29 30  1  0  0  0  0
 31 30  2  0  0  0  0
 32 27  1  0  0  0  0
 33 36  1  0  0  0  0
 33 32  1  0  0  0  0
 34 32  2  0  0  0  0
 35 33  1  0  0  0  0
 37 38  2  0  0  0  0
 38 39  1  0  0  0  0
 39 40  1  0  0  0  0
 41 40  1  0  0  0  0
M  END
>  <minimizedAffinity>
-4.97657108

$$$$
