
 OpenBabel10152418433D

 41 44  0  0  1  0  0  0  0  0999 V2000
    2.0010   -9.6870  -24.4370 C   0  0  2  0  0  3  0  0  0  0  0  0
    3.9210   -9.2100  -27.7350 C   0  0  0  0  0  0  0  0  0  0  0  0
    4.0770  -10.5280  -28.1610 C   0  0  0  0  0  3  0  0  0  0  0  0
    3.7230  -11.5780  -27.3220 C   0  0  0  0  0  3  0  0  0  0  0  0
    3.1180  -11.3160  -26.0920 C   0  0  0  0  0  3  0  0  0  0  0  0
    2.8420  -10.0010  -25.6830 C   0  0  0  0  0  0  0  0  0  0  0  0
    3.3250   -8.9460  -26.4930 C   0  0  0  0  0  3  0  0  0  0  0  0
    3.4340   -7.3110  -29.3070 C   0  0  0  0  0  0  0  0  0  0  0  0
    3.7140   -6.9430  -30.4470 O   0  0  0  0  0  0  0  0  0  0  0  0
    4.2510   -8.2000  -28.6510 N   0  0  0  0  0  0  0  0  0  0  0  0
    5.2080   -8.1790  -28.9820 H   0  0  0  0  0  0  0  0  0  0  0  0
    0.0890   -5.3280  -27.5010 C   0  0  0  0  0  0  0  0  0  0  0  0
    0.0990   -6.7150  -27.6540 C   0  0  0  0  0  3  0  0  0  0  0  0
    1.2210   -7.3610  -28.1800 C   0  0  0  0  0  3  0  0  0  0  0  0
    2.3420   -6.6190  -28.5670 C   0  0  0  0  0  0  0  0  0  0  0  0
    2.3170   -5.2230  -28.4430 C   0  0  0  0  0  3  0  0  0  0  0  0
    1.1940   -4.5800  -27.9060 C   0  0  0  0  0  3  0  0  0  0  0  0
   -0.9130   -3.5420  -26.3510 C   0  0  0  0  0  1  0  0  0  0  0  0
   -1.0720   -4.7950  -27.0130 O   0  0  0  0  0  0  0  0  0  0  0  0
    1.3720  -10.8920  -23.8880 N   0  0  0  0  0  0  0  0  0  0  0  0
    1.5760  -11.0350  -22.9080 H   0  0  0  0  0  0  0  0  0  0  0  0
   -0.0120  -11.0250  -24.1270 C   0  0  0  0  0  0  0  0  0  0  0  0
   -0.4210  -11.3700  -25.3560 N   0  0  0  0  0  0  0  0  0  0  0  0
   -1.6670  -11.0280  -25.6750 C   0  0  0  0  0  3  0  0  0  0  0  0
   -2.4680  -10.2810  -24.9130 N   0  0  0  0  0  0  0  0  0  0  0  0
   -2.0680  -10.0290  -23.6510 C   0  0  0  0  0  0  0  0  0  0  0  0
   -2.7230   -9.1260  -22.8120 C   0  0  0  0  0  0  0  0  0  0  0  0
   -2.4300   -8.9850  -21.4440 C   0  0  0  0  0  3  0  0  0  0  0  0
   -1.3890   -9.7120  -20.8960 C   0  0  0  0  0  3  0  0  0  0  0  0
   -0.5800  -10.4470  -21.7520 C   0  0  0  0  0  3  0  0  0  0  0  0
   -0.8900  -10.5580  -23.1380 C   0  0  0  0  0  0  0  0  0  0  0  0
   -3.3880   -7.9820  -23.4640 C   0  0  0  0  0  0  0  0  0  0  0  0
   -4.6580   -7.7600  -22.9860 N   0  0  0  0  0  0  0  0  0  0  0  0
   -2.8800   -7.3070  -24.3420 O   0  0  0  0  0  0  0  0  0  0  0  0
   -5.1900   -6.9820  -23.3480 H   0  0  0  0  0  0  0  0  0  0  0  0
   -5.0640   -8.3160  -22.2440 H   0  0  0  0  0  0  0  0  0  0  0  0
    0.9370   -8.5830  -24.6510 C   0  0  0  0  0  2  0  0  0  0  0  0
    1.2760   -7.0990  -24.4210 C   0  0  0  0  0  2  0  0  0  0  0  0
    0.1510   -6.1560  -24.0020 C   0  0  0  0  0  2  0  0  0  0  0  0
   -0.4310   -6.5160  -22.7620 O   0  0  0  0  0  0  0  0  0  0  0  0
   -0.7300   -7.4460  -22.8150 H   0  0  0  0  0  0  0  0  0  0  0  0
  1 37  1  6  0  0  0
  1 20  1  0  0  0  0
  2  7  1  0  0  0  0
  3  2  2  0  0  0  0
  3  4  1  0  0  0  0
  4  5  2  0  0  0  0
  5  6  1  0  0  0  0
  6  1  1  0  0  0  0
  7  6  2  0  0  0  0
  8 10  1  0  0  0  0
  8 15  1  0  0  0  0
  9  8  2  0  0  0  0
 10  2  1  0  0  0  0
 11 10  1  0  0  0  0
 12 19  1  0  0  0  0
 13 12  1  0  0  0  0
 14 13  2  0  0  0  0
 15 16  2  0  0  0  0
 15 14  1  0  0  0  0
 16 17  1  0  0  0  0
 17 12  2  0  0  0  0
 19 18  1  0  0  0  0
 20 21  1  0  0  0  0
 22 20  1  0  0  0  0
 22 31  1  0  0  0  0
 23 22  2  0  0  0  0
 24 23  1  0  0  0  0
 24 25  2  0  0  0  0
 25 26  1  0  0  0  0
 26 31  2  0  0  0  0
 26 27  1  0  0  0  0
 27 28  2  0  0  0  0
 28 29  1  0  0  0  0
 30 29  2  0  0  0  0
 31 30  1  0  0  0  0
 32 33  1  0  0  0  0
 32 27  1  0  0  0  0
 33 36  1  0  0  0  0
 34 32  2  0  0  0  0
 35 33  1  0  0  0  0
 37 38  1  0  0  0  0
 38 39  1  0  0  0  0
 39 40  1  0  0  0  0
 41 40  1  0  0  0  0
M  END
>  <minimizedAffinity>
-7.85078812

$$$$
