
 OpenBabel10152418513D

 39 42  0  0  1  0  0  0  0  0999 V2000
    6.6120  -10.5360   13.5810 C   0  0  2  0  0  3  0  0  0  0  0  0
    8.1380  -10.6450   13.4780 C   0  0  0  0  0  0  0  0  0  0  0  0
    9.0000   -9.6420   13.9310 C   0  0  0  0  0  3  0  0  0  0  0  0
   10.2810   -9.5550   13.4080 C   0  0  0  0  0  3  0  0  0  0  0  0
   10.7670  -10.5700   12.5910 C   0  0  0  0  0  3  0  0  0  0  0  0
   10.0570  -11.7520   12.4280 C   0  0  0  0  0  0  0  0  0  0  0  0
    8.7100  -11.7500   12.8140 C   0  0  0  0  0  3  0  0  0  0  0  0
   10.5900  -12.9590   11.9280 N   0  0  0  0  0  0  0  0  0  0  0  0
   10.0590  -14.2080   11.6770 C   0  0  0  0  0  0  0  0  0  0  0  0
   10.7580  -15.0740   11.1500 O   0  0  0  0  0  0  0  0  0  0  0  0
   11.5520  -12.9200   11.6090 H   0  0  0  0  0  0  0  0  0  0  0  0
    8.6960  -14.5810   12.0840 C   0  0  0  0  0  0  0  0  0  0  0  0
    8.4510  -14.7280   13.4540 C   0  0  0  0  0  3  0  0  0  0  0  0
    7.1440  -14.9060   13.9050 C   0  0  0  0  0  3  0  0  0  0  0  0
    6.0960  -14.9430   12.9850 C   0  0  0  0  0  0  0  0  0  0  0  0
    4.3140  -15.0410   13.6070 Br  0  0  0  0  0  0  0  0  0  0  0  0
    6.3480  -14.8740   11.6120 C   0  0  0  0  0  3  0  0  0  0  0  0
    7.6610  -14.7250   11.1530 C   0  0  0  0  0  3  0  0  0  0  0  0
    5.8480  -11.5750   12.8620 N   0  0  0  0  0  0  0  0  0  0  0  0
    5.1160  -12.0210   13.4090 H   0  0  0  0  0  0  0  0  0  0  0  0
    5.4100  -11.5520   11.5540 C   0  0  0  0  0  0  0  0  0  0  0  0
    4.0780  -11.3790   11.5000 N   0  0  0  0  0  0  0  0  0  0  0  0
    3.5750  -11.0050   10.3280 C   0  0  0  0  0  3  0  0  0  0  0  0
    4.2790  -10.7490    9.2220 N   0  0  0  0  0  0  0  0  0  0  0  0
    5.6080  -11.0030    9.2460 C   0  0  0  0  0  0  0  0  0  0  0  0
    6.4390  -10.7290    8.1410 C   0  0  0  0  0  0  0  0  0  0  0  0
    7.8020  -11.0800    8.1480 C   0  0  0  0  0  3  0  0  0  0  0  0
    8.3690  -11.6860    9.2580 C   0  0  0  0  0  3  0  0  0  0  0  0
    7.5850  -11.8900   10.3850 C   0  0  0  0  0  3  0  0  0  0  0  0
    6.2190  -11.5160   10.4070 C   0  0  0  0  0  0  0  0  0  0  0  0
    5.9690   -9.9890    6.9270 C   0  0  0  0  0  0  0  0  0  0  0  0
    4.6310   -9.9790    6.6500 N   0  0  0  0  0  0  0  0  0  0  0  0
    6.7430   -9.3680    6.2130 O   0  0  0  0  0  0  0  0  0  0  0  0
    4.3010   -9.4620    5.8490 H   0  0  0  0  0  0  0  0  0  0  0  0
    3.9780  -10.5170    7.2110 H   0  0  0  0  0  0  0  0  0  0  0  0
    6.1550   -9.1380   13.1340 C   0  0  0  0  0  2  0  0  0  0  0  0
    6.5150   -8.7790   11.6910 C   0  0  0  0  0  2  0  0  0  0  0  0
    8.3220   -8.9640   10.1340 C   0  0  0  0  0  1  0  0  0  0  0  0
    7.9230   -8.7210   11.4770 O   0  0  0  0  0  0  0  0  0  0  0  0
  1 36  1  6  0  0  0
  2  1  1  0  0  0  0
  2  3  1  0  0  0  0
  4  3  2  0  0  0  0
  5  4  1  0  0  0  0
  6  5  2  0  0  0  0
  6  7  1  0  0  0  0
  7  2  2  0  0  0  0
  8  6  1  0  0  0  0
  9  8  1  0  0  0  0
  9 12  1  0  0  0  0
 10  9  2  0  0  0  0
 11  8  1  0  0  0  0
 12 13  1  0  0  0  0
 13 14  2  0  0  0  0
 15 16  1  0  0  0  0
 15 14  1  0  0  0  0
 17 15  2  0  0  0  0
 18 17  1  0  0  0  0
 18 12  2  0  0  0  0
 19 20  1  0  0  0  0
 19  1  1  0  0  0  0
 21 19  1  0  0  0  0
 22 21  1  0  0  0  0
 23 22  2  0  0  0  0
 24 25  2  0  0  0  0
 24 23  1  0  0  0  0
 25 30  1  0  0  0  0
 26 27  2  0  0  0  0
 26 25  1  0  0  0  0
 27 28  1  0  0  0  0
 28 29  2  0  0  0  0
 29 30  1  0  0  0  0
 30 21  2  0  0  0  0
 31 26  1  0  0  0  0
 32 31  1  0  0  0  0
 32 35  1  0  0  0  0
 33 31  2  0  0  0  0
 34 32  1  0  0  0  0
 37 36  1  0  0  0  0
 38 39  1  0  0  0  0
 39 37  1  0  0  0  0
M  END
>  <minimizedAffinity>
14.7585697

$$$$
