
 OpenBabel11232420443D

 39 45  0  0  1  0  0  0  0  0999 V2000
  -19.8850   20.5040   11.2560 C   0  0  0  0  0  0  0  0  0  0  0  0
  -20.5720   19.9110   12.2950 N   0  0  0  0  0  0  0  0  0  0  0  0
  -20.6540   18.6350   12.0010 C   0  0  0  0  0  0  0  0  0  0  0  0
  -20.0340   18.3850   10.8060 N   0  0  0  0  0  0  0  0  0  0  0  0
  -19.5110   19.5580   10.3100 C   0  0  0  0  0  0  0  0  0  0  0  0
  -19.8840   17.0330   10.3100 C   0  0  0  0  0  2  0  0  0  0  0  0
  -20.9740   16.1810   10.7120 O   0  0  0  0  0  0  0  0  0  0  0  0
  -21.4140   16.3330   12.0060 C   0  0  0  0  0  0  0  0  0  0  0  0
  -22.0640   15.2330   12.5670 C   0  0  0  0  0  3  0  0  0  0  0  0
  -22.5660   15.3130   13.8620 C   0  0  0  0  0  3  0  0  0  0  0  0
  -22.4260   16.4950   14.5900 C   0  0  0  0  0  3  0  0  0  0  0  0
  -21.7930   17.6090   14.0220 C   0  0  0  0  0  0  0  0  0  0  0  0
  -21.6690   19.0210   15.0130 Cl  0  0  0  0  0  0  0  0  0  0  0  0
  -21.2860   17.5400   12.7160 C   0  0  0  0  0  0  0  0  0  0  0  0
  -18.7080   19.6400    9.0970 C   0  0  0  0  0  0  0  0  0  0  0  0
  -17.7510   18.6580    8.8110 C   0  0  0  0  0  3  0  0  0  0  0  0
  -16.9850   18.7430    7.6470 C   0  0  0  0  0  3  0  0  0  0  0  0
  -17.1710   19.8070    6.7650 C   0  0  0  0  0  3  0  0  0  0  0  0
  -18.1250   20.7860    7.0420 C   0  0  0  0  0  3  0  0  0  0  0  0
  -18.8930   20.7020    8.2050 C   0  0  0  0  0  3  0  0  0  0  0  0
  -19.1960   24.7570   11.0080 C   0  0  0  0  0  0  0  0  0  0  0  0
  -20.4530   24.1770   10.7500 C   0  0  0  0  0  3  0  0  0  0  0  0
  -20.6680   22.7990   10.8670 C   0  0  0  0  0  3  0  0  0  0  0  0
  -19.6390   21.9380   11.2600 C   0  0  0  0  0  0  0  0  0  0  0  0
  -18.3950   22.4930   11.5580 C   0  0  0  0  0  3  0  0  0  0  0  0
  -18.1840   23.8740   11.4410 C   0  0  0  0  0  3  0  0  0  0  0  0
  -18.9280   26.2950   10.7910 C   0  0  2  0  0  0  0  0  0  0  0  0
  -18.0610   27.0650   11.8270 C   0  0  0  0  0  2  0  0  0  0  0  0
  -18.9480   28.3270   11.5440 C   0  0  1  0  0  0  0  0  0  0  0  0
  -20.0640   27.3060   11.1310 C   0  0  0  0  0  2  0  0  0  0  0  0
  -18.4120   26.4900    9.4140 N   0  0  0  0  0  4  0  0  0  0  0  0
  -19.0820   26.1820    8.7020 H   0  0  0  0  0  0  0  0  0  0  0  0
  -17.5340   25.9810    9.2590 H   0  0  0  0  0  0  0  0  0  0  0  0
  -18.2180   27.4990    9.2530 H   0  0  0  0  0  0  0  0  0  0  0  0
  -19.1840   29.2360   12.7370 C   0  0  0  0  0  3  0  0  0  0  0  0
  -19.0630   30.7340   12.6790 C   0  0  0  0  0  2  0  0  0  0  0  0
  -20.3990   30.0970   12.9480 C   0  0  0  0  0  2  0  0  0  0  0  0
  -18.4740   29.0570   10.3730 O   0  0  0  0  0  0  0  0  0  0  0  0
  -18.8310   29.9620   10.4860 H   0  0  0  0  0  0  0  0  0  0  0  0
  1 24  1  0  0  0  0
  1  2  1  0  0  0  0
  3  2  2  0  0  0  0
  3 14  1  0  0  0  0
  4  3  1  0  0  0  0
  5  4  1  0  0  0  0
  5  1  2  0  0  0  0
  6  7  1  0  0  0  0
  6  4  1  0  0  0  0
  7  8  1  0  0  0  0
  8  9  2  0  0  0  0
  8 14  1  0  0  0  0
  9 10  1  0  0  0  0
 10 11  2  0  0  0  0
 12 11  1  0  0  0  0
 12 13  1  0  0  0  0
 14 12  2  0  0  0  0
 15  5  1  0  0  0  0
 16 15  1  0  0  0  0
 17 16  2  0  0  0  0
 18 19  2  0  0  0  0
 18 17  1  0  0  0  0
 19 20  1  0  0  0  0
 20 15  2  0  0  0  0
 21 26  1  0  0  0  0
 22 23  1  0  0  0  0
 22 21  2  0  0  0  0
 23 24  2  0  0  0  0
 24 25  1  0  0  0  0
 26 25  2  0  0  0  0
 27 31  1  6  0  0  0
 27 21  1  0  0  0  0
 27 30  1  0  0  0  0
 27 28  1  0  0  0  0
 29 38  1  6  0  0  0
 29 28  1  0  0  0  0
 29 35  1  0  0  0  0
 30 29  1  0  0  0  0
 32 31  1  0  0  0  0
 33 31  1  0  0  0  0
 34 31  1  0  0  0  0
 35 37  1  0  0  0  0
 36 35  1  0  0  0  0
 36 37  1  0  0  0  0
 38 39  1  0  0  0  0
M  END
>  <minimizedAffinity>
-12.6103048

$$$$
