
 OpenBabel11232420443D

 39 45  0  0  1  0  0  0  0  0999 V2000
  -19.3300   20.3330   10.8270 C   0  0  0  0  0  0  0  0  0  0  0  0
  -18.6860   19.4930    9.9420 N   0  0  0  0  0  0  0  0  0  0  0  0
  -18.0430   20.2670    9.1020 C   0  0  0  0  0  0  0  0  0  0  0  0
  -18.2470   21.5840    9.4210 N   0  0  0  0  0  0  0  0  0  0  0  0
  -19.0510   21.6620   10.5360 C   0  0  0  0  0  0  0  0  0  0  0  0
  -17.5530   22.6400    8.7160 C   0  0  0  0  0  2  0  0  0  0  0  0
  -17.2920   22.2990    7.3410 O   0  0  0  0  0  0  0  0  0  0  0  0
  -16.8790   21.0080    7.1070 C   0  0  0  0  0  0  0  0  0  0  0  0
  -16.1490   20.7990    5.9370 C   0  0  0  0  0  3  0  0  0  0  0  0
  -15.7180   19.5170    5.6100 C   0  0  0  0  0  3  0  0  0  0  0  0
  -16.0260   18.4460    6.4490 C   0  0  0  0  0  3  0  0  0  0  0  0
  -16.7780   18.6480    7.6150 C   0  0  0  0  0  0  0  0  0  0  0  0
  -17.0980   17.2520    8.5850 Cl  0  0  0  0  0  0  0  0  0  0  0  0
  -17.2200   19.9360    7.9510 C   0  0  0  0  0  0  0  0  0  0  0  0
  -19.3970   22.9110   11.2020 C   0  0  0  0  0  0  0  0  0  0  0  0
  -20.4490   23.7020   10.7250 C   0  0  0  0  0  3  0  0  0  0  0  0
  -20.7740   24.8980   11.3670 C   0  0  0  0  0  3  0  0  0  0  0  0
  -20.0520   25.3080   12.4880 C   0  0  0  0  0  3  0  0  0  0  0  0
  -19.0060   24.5210   12.9700 C   0  0  0  0  0  3  0  0  0  0  0  0
  -18.6790   23.3250   12.3290 C   0  0  0  0  0  3  0  0  0  0  0  0
  -21.7100   18.9010   14.1310 C   0  0  0  0  0  0  0  0  0  0  0  0
  -21.9560   20.1350   13.4980 C   0  0  0  0  0  3  0  0  0  0  0  0
  -21.1960   20.5700   12.4070 C   0  0  0  0  0  3  0  0  0  0  0  0
  -20.1620   19.7850   11.8880 C   0  0  0  0  0  0  0  0  0  0  0  0
  -19.9240   18.5420   12.4730 C   0  0  0  0  0  3  0  0  0  0  0  0
  -20.6880   18.1090   13.5650 C   0  0  0  0  0  3  0  0  0  0  0  0
  -22.5050   18.4500   15.4150 C   0  0  2  0  0  0  0  0  0  0  0  0
  -21.7240   17.8340   16.6100 C   0  0  0  0  0  2  0  0  0  0  0  0
  -22.9780   16.9360   16.8930 C   0  0  1  0  0  0  0  0  0  0  0  0
  -23.3010   17.1110   15.3680 C   0  0  0  0  0  2  0  0  0  0  0  0
  -23.3550   19.5800   15.8600 N   0  0  0  0  0  4  0  0  0  0  0  0
  -24.0380   19.8570   15.1460 H   0  0  0  0  0  0  0  0  0  0  0  0
  -22.7970   20.4080   16.0960 H   0  0  0  0  0  0  0  0  0  0  0  0
  -23.8810   19.3070   16.7140 H   0  0  0  0  0  0  0  0  0  0  0  0
  -22.6760   15.5490   17.4280 C   0  0  0  0  0  3  0  0  0  0  0  0
  -23.7310   14.6070   17.9410 C   0  0  0  0  0  2  0  0  0  0  0  0
  -22.9480   14.2580   16.7040 C   0  0  0  0  0  2  0  0  0  0  0  0
  -23.9650   17.6440   17.7010 O   0  0  0  0  0  0  0  0  0  0  0  0
  -24.5030   16.9330   18.1090 H   0  0  0  0  0  0  0  0  0  0  0  0
  1 24  1  0  0  0  0
  2  1  1  0  0  0  0
  3  4  1  0  0  0  0
  3  2  2  0  0  0  0
  4  5  1  0  0  0  0
  5  1  2  0  0  0  0
  5 15  1  0  0  0  0
  6  4  1  0  0  0  0
  7  6  1  0  0  0  0
  8  7  1  0  0  0  0
  8 14  1  0  0  0  0
  9  8  2  0  0  0  0
 10  9  1  0  0  0  0
 10 11  2  0  0  0  0
 11 12  1  0  0  0  0
 12 14  2  0  0  0  0
 12 13  1  0  0  0  0
 14  3  1  0  0  0  0
 15 20  1  0  0  0  0
 16 15  2  0  0  0  0
 16 17  1  0  0  0  0
 17 18  2  0  0  0  0
 18 19  1  0  0  0  0
 20 19  2  0  0  0  0
 21 27  1  0  0  0  0
 22 21  2  0  0  0  0
 23 22  1  0  0  0  0
 24 23  2  0  0  0  0
 24 25  1  0  0  0  0
 25 26  2  0  0  0  0
 26 21  1  0  0  0  0
 27 31  1  1  0  0  0
 27 28  1  0  0  0  0
 28 29  1  0  0  0  0
 29 35  1  0  0  0  0
 29 38  1  1  0  0  0
 30 27  1  0  0  0  0
 30 29  1  0  0  0  0
 31 33  1  0  0  0  0
 31 34  1  0  0  0  0
 32 31  1  0  0  0  0
 35 36  1  0  0  0  0
 37 35  1  0  0  0  0
 37 36  1  0  0  0  0
 38 39  1  0  0  0  0
M  END
>  <minimizedAffinity>
-10.8842793

$$$$
