
 OpenBabel11232420443D

 39 45  0  0  1  0  0  0  0  0999 V2000
  -18.5860   21.5680   10.3340 C   0  0  0  0  0  0  0  0  0  0  0  0
  -18.8010   22.7390   11.0310 N   0  0  0  0  0  0  0  0  0  0  0  0
  -18.0580   23.6530   10.4510 C   0  0  0  0  0  0  0  0  0  0  0  0
  -17.3750   23.1070    9.3970 N   0  0  0  0  0  0  0  0  0  0  0  0
  -17.7060   21.7760    9.2800 C   0  0  0  0  0  0  0  0  0  0  0  0
  -16.5720   23.9320    8.5200 C   0  0  0  0  0  2  0  0  0  0  0  0
  -15.9900   25.0560    9.2080 O   0  0  0  0  0  0  0  0  0  0  0  0
  -16.8070   25.7010   10.1080 C   0  0  0  0  0  0  0  0  0  0  0  0
  -16.4860   27.0300   10.3840 C   0  0  0  0  0  3  0  0  0  0  0  0
  -17.2440   27.7470   11.3050 C   0  0  0  0  0  3  0  0  0  0  0  0
  -18.3140   27.1310   11.9540 C   0  0  0  0  0  3  0  0  0  0  0  0
  -18.6270   25.7890   11.6950 C   0  0  0  0  0  0  0  0  0  0  0  0
  -19.9760   25.1260   12.5500 Cl  0  0  0  0  0  0  0  0  0  0  0  0
  -17.8670   25.0570   10.7710 C   0  0  0  0  0  0  0  0  0  0  0  0
  -17.2300   20.9120    8.2080 C   0  0  0  0  0  0  0  0  0  0  0  0
  -16.0770   20.1350    8.3810 C   0  0  0  0  0  3  0  0  0  0  0  0
  -15.6260   19.3100    7.3500 C   0  0  0  0  0  3  0  0  0  0  0  0
  -16.3230   19.2550    6.1430 C   0  0  0  0  0  3  0  0  0  0  0  0
  -17.4740   20.0230    5.9670 C   0  0  0  0  0  3  0  0  0  0  0  0
  -17.9270   20.8490    6.9970 C   0  0  0  0  0  3  0  0  0  0  0  0
  -20.3890   17.9060   11.7370 C   0  0  0  0  0  0  0  0  0  0  0  0
  -20.4380   19.1060   12.4740 C   0  0  0  0  0  3  0  0  0  0  0  0
  -19.8770   20.2920   11.9900 C   0  0  0  0  0  3  0  0  0  0  0  0
  -19.2520   20.3390   10.7400 C   0  0  0  0  0  0  0  0  0  0  0  0
  -19.2240   19.1740    9.9760 C   0  0  0  0  0  3  0  0  0  0  0  0
  -19.7880   17.9870   10.4630 C   0  0  0  0  0  3  0  0  0  0  0  0
  -20.9400   16.5490   12.3190 C   0  0  2  0  0  0  0  0  0  0  0  0
  -21.6870   16.5580   13.6820 C   0  0  0  0  0  2  0  0  0  0  0  0
  -21.0930   15.1320   13.9530 C   0  0  1  0  0  0  0  0  0  0  0  0
  -19.9360   15.5590   12.9830 C   0  0  0  0  0  2  0  0  0  0  0  0
  -21.7530   15.8860   11.2710 N   0  0  0  0  0  4  0  0  0  0  0  0
  -21.2030   15.6710   10.4320 H   0  0  0  0  0  0  0  0  0  0  0  0
  -22.5500   16.4650   10.9820 H   0  0  0  0  0  0  0  0  0  0  0  0
  -22.1360   14.9920   11.6370 H   0  0  0  0  0  0  0  0  0  0  0  0
  -20.7650   14.8300   15.4030 C   0  0  0  0  0  3  0  0  0  0  0  0
  -21.3090   13.6420   16.1480 C   0  0  0  0  0  2  0  0  0  0  0  0
  -19.8330   13.7480   15.8780 C   0  0  0  0  0  2  0  0  0  0  0  0
  -21.9090   14.0920   13.3360 O   0  0  0  0  0  0  0  0  0  0  0  0
  -21.6860   13.2780   13.8340 H   0  0  0  0  0  0  0  0  0  0  0  0
  1 24  1  0  0  0  0
  1  2  1  0  0  0  0
  3 14  1  0  0  0  0
  3  2  2  0  0  0  0
  4  3  1  0  0  0  0
  5  4  1  0  0  0  0
  5  1  2  0  0  0  0
  6  7  1  0  0  0  0
  6  4  1  0  0  0  0
  7  8  1  0  0  0  0
  8  9  2  0  0  0  0
  8 14  1  0  0  0  0
  9 10  1  0  0  0  0
 10 11  2  0  0  0  0
 12 11  1  0  0  0  0
 12 13  1  0  0  0  0
 14 12  2  0  0  0  0
 15 16  1  0  0  0  0
 15  5  1  0  0  0  0
 17 16  2  0  0  0  0
 18 17  1  0  0  0  0
 19 18  2  0  0  0  0
 19 20  1  0  0  0  0
 20 15  2  0  0  0  0
 21 27  1  0  0  0  0
 21 22  1  0  0  0  0
 23 22  2  0  0  0  0
 24 23  1  0  0  0  0
 25 26  1  0  0  0  0
 25 24  2  0  0  0  0
 26 21  2  0  0  0  0
 27 31  1  6  0  0  0
 27 30  1  0  0  0  0
 27 28  1  0  0  0  0
 28 29  1  0  0  0  0
 29 38  1  6  0  0  0
 29 35  1  0  0  0  0
 30 29  1  0  0  0  0
 31 34  1  0  0  0  0
 32 31  1  0  0  0  0
 33 31  1  0  0  0  0
 35 37  1  0  0  0  0
 35 36  1  0  0  0  0
 37 36  1  0  0  0  0
 38 39  1  0  0  0  0
M  END
>  <minimizedAffinity>
-12.3443108

$$$$
