
 OpenBabel11232420443D

 39 45  0  0  1  0  0  0  0  0999 V2000
  -18.2240   22.6630    9.8450 C   0  0  0  0  0  0  0  0  0  0  0  0
  -17.3170   22.3900    8.8430 N   0  0  0  0  0  0  0  0  0  0  0  0
  -17.3830   21.0970    8.6290 C   0  0  0  0  0  0  0  0  0  0  0  0
  -18.3100   20.5280    9.4610 N   0  0  0  0  0  0  0  0  0  0  0  0
  -18.8840   21.5070   10.2400 C   0  0  0  0  0  0  0  0  0  0  0  0
  -18.6570   19.1270    9.3470 C   0  0  0  0  0  2  0  0  0  0  0  0
  -17.5460   18.3240    8.9040 O   0  0  0  0  0  0  0  0  0  0  0  0
  -16.7700   18.8650    7.9050 C   0  0  0  0  0  0  0  0  0  0  0  0
  -16.0530   17.9570    7.1250 C   0  0  0  0  0  3  0  0  0  0  0  0
  -15.2220   18.4230    6.1120 C   0  0  0  0  0  3  0  0  0  0  0  0
  -15.1010   19.7950    5.8870 C   0  0  0  0  0  3  0  0  0  0  0  0
  -15.8030   20.7110    6.6830 C   0  0  0  0  0  0  0  0  0  0  0  0
  -15.5850   22.3870    6.3160 Cl  0  0  0  0  0  0  0  0  0  0  0  0
  -16.6410   20.2520    7.7090 C   0  0  0  0  0  0  0  0  0  0  0  0
  -19.9760   21.2650   11.1750 C   0  0  0  0  0  0  0  0  0  0  0  0
  -21.0500   22.1590   11.2590 C   0  0  0  0  0  3  0  0  0  0  0  0
  -22.0920   21.9210   12.1570 C   0  0  0  0  0  3  0  0  0  0  0  0
  -22.0660   20.7910   12.9730 C   0  0  0  0  0  3  0  0  0  0  0  0
  -21.0000   19.8950   12.8920 C   0  0  0  0  0  3  0  0  0  0  0  0
  -19.9580   20.1310   11.9940 C   0  0  0  0  0  3  0  0  0  0  0  0
  -18.4650   26.7520   11.2060 C   0  0  0  0  0  0  0  0  0  0  0  0
  -18.5120   26.4030    9.8420 C   0  0  0  0  0  3  0  0  0  0  0  0
  -18.4660   25.0700    9.4190 C   0  0  0  0  0  3  0  0  0  0  0  0
  -18.3840   24.0220   10.3410 C   0  0  0  0  0  0  0  0  0  0  0  0
  -18.3740   24.3400   11.6980 C   0  0  0  0  0  3  0  0  0  0  0  0
  -18.4220   25.6760   12.1190 C   0  0  0  0  0  3  0  0  0  0  0  0
  -18.4270   28.2540   11.6810 C   0  0  2  0  0  0  0  0  0  0  0  0
  -17.3320   28.7000   12.6910 C   0  0  0  0  0  2  0  0  0  0  0  0
  -18.3710   29.7150   13.2820 C   0  0  1  0  0  0  0  0  0  0  0  0
  -19.4640   28.7280   12.7420 C   0  0  0  0  0  2  0  0  0  0  0  0
  -18.4300   29.1250   10.4800 N   0  0  0  0  0  4  0  0  0  0  0  0
  -19.2730   28.9950    9.9100 H   0  0  0  0  0  0  0  0  0  0  0  0
  -17.6160   28.9510    9.8800 H   0  0  0  0  0  0  0  0  0  0  0  0
  -18.3940   30.1220   10.7710 H   0  0  0  0  0  0  0  0  0  0  0  0
  -18.2670   29.9550   14.7770 C   0  0  0  0  0  3  0  0  0  0  0  0
  -18.1150   31.3180   15.3920 C   0  0  0  0  0  2  0  0  0  0  0  0
  -19.3600   30.5140   15.6470 C   0  0  0  0  0  2  0  0  0  0  0  0
  -18.3920   30.9570   12.5170 O   0  0  0  0  0  0  0  0  0  0  0  0
  -18.7690   31.6190   13.1350 H   0  0  0  0  0  0  0  0  0  0  0  0
  1  5  2  0  0  0  0
  1 24  1  0  0  0  0
  2  1  1  0  0  0  0
  3  2  2  0  0  0  0
  3  4  1  0  0  0  0
  4  5  1  0  0  0  0
  5 15  1  0  0  0  0
  6  4  1  0  0  0  0
  7  6  1  0  0  0  0
  8  7  1  0  0  0  0
  9  8  2  0  0  0  0
 10  9  1  0  0  0  0
 11 10  2  0  0  0  0
 11 12  1  0  0  0  0
 12 14  2  0  0  0  0
 13 12  1  0  0  0  0
 14  8  1  0  0  0  0
 14  3  1  0  0  0  0
 15 16  2  0  0  0  0
 15 20  1  0  0  0  0
 16 17  1  0  0  0  0
 17 18  2  0  0  0  0
 19 18  1  0  0  0  0
 20 19  2  0  0  0  0
 21 27  1  0  0  0  0
 21 26  1  0  0  0  0
 22 21  2  0  0  0  0
 23 22  1  0  0  0  0
 23 24  2  0  0  0  0
 24 25  1  0  0  0  0
 25 26  2  0  0  0  0
 27 31  1  6  0  0  0
 27 28  1  0  0  0  0
 27 30  1  0  0  0  0
 28 29  1  0  0  0  0
 29 38  1  6  0  0  0
 29 35  1  0  0  0  0
 30 29  1  0  0  0  0
 31 34  1  0  0  0  0
 32 31  1  0  0  0  0
 33 31  1  0  0  0  0
 35 36  1  0  0  0  0
 35 37  1  0  0  0  0
 36 37  1  0  0  0  0
 38 39  1  0  0  0  0
M  END
>  <minimizedAffinity>
-11.6678991

$$$$
