
 OpenBabel11232420443D

 39 45  0  0  1  0  0  0  0  0999 V2000
  -19.8850   20.5040   11.2560 C   0  0  0  0  0  0  0  0  0  0  0  0
  -20.5720   19.9110   12.2950 N   0  0  0  0  0  0  0  0  0  0  0  0
  -20.6540   18.6350   12.0010 C   0  0  0  0  0  0  0  0  0  0  0  0
  -20.0340   18.3850   10.8060 N   0  0  0  0  0  0  0  0  0  0  0  0
  -19.5110   19.5580   10.3100 C   0  0  0  0  0  0  0  0  0  0  0  0
  -19.8840   17.0330   10.3100 C   0  0  0  0  0  2  0  0  0  0  0  0
  -20.9740   16.1810   10.7120 O   0  0  0  0  0  0  0  0  0  0  0  0
  -21.4140   16.3330   12.0060 C   0  0  0  0  0  0  0  0  0  0  0  0
  -22.0640   15.2330   12.5670 C   0  0  0  0  0  3  0  0  0  0  0  0
  -22.5660   15.3130   13.8620 C   0  0  0  0  0  3  0  0  0  0  0  0
  -22.4260   16.4950   14.5900 C   0  0  0  0  0  3  0  0  0  0  0  0
  -21.7930   17.6090   14.0220 C   0  0  0  0  0  0  0  0  0  0  0  0
  -21.6690   19.0210   15.0130 Cl  0  0  0  0  0  0  0  0  0  0  0  0
  -21.2860   17.5400   12.7160 C   0  0  0  0  0  0  0  0  0  0  0  0
  -18.7080   19.6400    9.0970 C   0  0  0  0  0  0  0  0  0  0  0  0
  -17.7510   18.6580    8.8110 C   0  0  0  0  0  3  0  0  0  0  0  0
  -16.9850   18.7430    7.6470 C   0  0  0  0  0  3  0  0  0  0  0  0
  -17.1710   19.8070    6.7650 C   0  0  0  0  0  3  0  0  0  0  0  0
  -18.1250   20.7860    7.0420 C   0  0  0  0  0  3  0  0  0  0  0  0
  -18.8930   20.7020    8.2050 C   0  0  0  0  0  3  0  0  0  0  0  0
  -19.1960   24.7570   11.0080 C   0  0  0  0  0  0  0  0  0  0  0  0
  -20.4530   24.1770   10.7500 C   0  0  0  0  0  3  0  0  0  0  0  0
  -20.6680   22.7990   10.8670 C   0  0  0  0  0  3  0  0  0  0  0  0
  -19.6390   21.9380   11.2600 C   0  0  0  0  0  0  0  0  0  0  0  0
  -18.3950   22.4930   11.5580 C   0  0  0  0  0  3  0  0  0  0  0  0
  -18.1840   23.8740   11.4410 C   0  0  0  0  0  3  0  0  0  0  0  0
  -18.9280   26.2950   10.7910 C   0  0  2  0  0  0  0  0  0  0  0  0
  -18.0610   27.0650   11.8270 C   0  0  0  0  0  2  0  0  0  0  0  0
  -18.9480   28.3270   11.5440 C   0  0  1  0  0  0  0  0  0  0  0  0
  -20.0640   27.3060   11.1310 C   0  0  0  0  0  2  0  0  0  0  0  0
  -18.4120   26.4900    9.4140 N   0  0  0  0  0  4  0  0  0  0  0  0
  -19.0820   26.1820    8.7020 H   0  0  0  0  0  0  0  0  0  0  0  0
  -17.5340   25.9810    9.2590 H   0  0  0  0  0  0  0  0  0  0  0  0
  -18.2180   27.4990    9.2530 H   0  0  0  0  0  0  0  0  0  0  0  0
  -19.1840   29.2360   12.7370 C   0  0  0  0  0  3  0  0  0  0  0  0
  -19.0630   30.7340   12.6790 C   0  0  0  0  0  2  0  0  0  0  0  0
  -20.3990   30.0970   12.9480 C   0  0  0  0  0  2  0  0  0  0  0  0
  -18.4740   29.0570   10.3730 O   0  0  0  0  0  0  0  0  0  0  0  0
  -18.8310   29.9620   10.4860 H   0  0  0  0  0  0  0  0  0  0  0  0
  1 24  1  0  0  0  0
  1  2  1  0  0  0  0
  3  2  2  0  0  0  0
  3 14  1  0  0  0  0
  4  3  1  0  0  0  0
  5  4  1  0  0  0  0
  5  1  2  0  0  0  0
  6  7  1  0  0  0  0
  6  4  1  0  0  0  0
  7  8  1  0  0  0  0
  8  9  2  0  0  0  0
  8 14  1  0  0  0  0
  9 10  1  0  0  0  0
 10 11  2  0  0  0  0
 12 11  1  0  0  0  0
 12 13  1  0  0  0  0
 14 12  2  0  0  0  0
 15  5  1  0  0  0  0
 16 15  1  0  0  0  0
 17 16  2  0  0  0  0
 18 19  2  0  0  0  0
 18 17  1  0  0  0  0
 19 20  1  0  0  0  0
 20 15  2  0  0  0  0
 21 26  1  0  0  0  0
 22 23  1  0  0  0  0
 22 21  2  0  0  0  0
 23 24  2  0  0  0  0
 24 25  1  0  0  0  0
 26 25  2  0  0  0  0
 27 31  1  6  0  0  0
 27 21  1  0  0  0  0
 27 30  1  0  0  0  0
 27 28  1  0  0  0  0
 29 38  1  6  0  0  0
 29 28  1  0  0  0  0
 29 35  1  0  0  0  0
 30 29  1  0  0  0  0
 32 31  1  0  0  0  0
 33 31  1  0  0  0  0
 34 31  1  0  0  0  0
 35 37  1  0  0  0  0
 36 35  1  0  0  0  0
 36 37  1  0  0  0  0
 38 39  1  0  0  0  0
M  END
>  <minimizedAffinity>
-12.6103048

$$$$

 OpenBabel11232420443D

 39 45  0  0  1  0  0  0  0  0999 V2000
  -19.2230   20.5380   10.4520 C   0  0  0  0  0  0  0  0  0  0  0  0
  -20.0120   20.0660   11.4800 N   0  0  0  0  0  0  0  0  0  0  0  0
  -20.2070   18.7910   11.2400 C   0  0  0  0  0  0  0  0  0  0  0  0
  -19.5620   18.4240   10.0890 N   0  0  0  0  0  0  0  0  0  0  0  0
  -18.9030   19.5150    9.5680 C   0  0  0  0  0  0  0  0  0  0  0  0
  -19.5240   17.0410    9.6620 C   0  0  0  0  0  2  0  0  0  0  0  0
  -20.7110   16.3190   10.0460 O   0  0  0  0  0  0  0  0  0  0  0  0
  -21.1910   16.5760   11.3080 C   0  0  0  0  0  0  0  0  0  0  0  0
  -21.9720   15.5730   11.8840 C   0  0  0  0  0  3  0  0  0  0  0  0
  -22.5210   15.7640   13.1480 C   0  0  0  0  0  3  0  0  0  0  0  0
  -22.2980   16.9620   13.8290 C   0  0  0  0  0  3  0  0  0  0  0  0
  -21.5320   17.9800   13.2450 C   0  0  0  0  0  0  0  0  0  0  0  0
  -21.3130   19.4200   14.1780 Cl  0  0  0  0  0  0  0  0  0  0  0  0
  -20.9770   17.7980   11.9700 C   0  0  0  0  0  0  0  0  0  0  0  0
  -18.0420   19.4600    8.3940 C   0  0  0  0  0  0  0  0  0  0  0  0
  -17.0110   18.5160    8.3140 C   0  0  0  0  0  3  0  0  0  0  0  0
  -16.1890   18.4680    7.1860 C   0  0  0  0  0  3  0  0  0  0  0  0
  -16.3940   19.3620    6.1350 C   0  0  0  0  0  3  0  0  0  0  0  0
  -17.4220   20.3010    6.2080 C   0  0  0  0  0  3  0  0  0  0  0  0
  -18.2450   20.3500    7.3340 C   0  0  0  0  0  3  0  0  0  0  0  0
  -18.0260   24.6820   10.5730 C   0  0  0  0  0  0  0  0  0  0  0  0
  -17.1210   23.6250   10.7910 C   0  0  0  0  0  3  0  0  0  0  0  0
  -17.5180   22.2860   10.7150 C   0  0  0  0  0  3  0  0  0  0  0  0
  -18.8370   21.9400   10.4060 C   0  0  0  0  0  0  0  0  0  0  0  0
  -19.7430   22.9680   10.1490 C   0  0  0  0  0  3  0  0  0  0  0  0
  -19.3410   24.3080   10.2240 C   0  0  0  0  0  3  0  0  0  0  0  0
  -17.6020   26.1910   10.7460 C   0  0  2  0  0  0  0  0  0  0  0  0
  -18.2630   27.0380   11.8690 C   0  0  0  0  0  2  0  0  0  0  0  0
  -18.1430   28.2820   10.9230 C   0  0  1  0  0  0  0  0  0  0  0  0
  -18.1710   27.2440    9.7480 C   0  0  0  0  0  2  0  0  0  0  0  0
  -16.1230   26.2550   10.8300 N   0  0  0  0  0  4  0  0  0  0  0  0
  -15.6710   25.8940    9.9830 H   0  0  0  0  0  0  0  0  0  0  0  0
  -15.7630   25.7210   11.6290 H   0  0  0  0  0  0  0  0  0  0  0  0
  -15.8230   27.2420   10.9550 H   0  0  0  0  0  0  0  0  0  0  0  0
  -19.2660   29.2970   11.0380 C   0  0  0  0  0  3  0  0  0  0  0  0
  -19.0910   30.7660   10.7680 C   0  0  0  0  0  2  0  0  0  0  0  0
  -19.9810   29.9390    9.8810 C   0  0  0  0  0  2  0  0  0  0  0  0
  -16.8240   28.8970   11.0220 O   0  0  0  0  0  0  0  0  0  0  0  0
  -16.9560   29.8150   10.7020 H   0  0  0  0  0  0  0  0  0  0  0  0
  1  2  1  0  0  0  0
  3  2  2  0  0  0  0
  3 14  1  0  0  0  0
  4  3  1  0  0  0  0
  5  4  1  0  0  0  0
  5  1  2  0  0  0  0
  6  7  1  0  0  0  0
  6  4  1  0  0  0  0
  7  8  1  0  0  0  0
  8  9  2  0  0  0  0
  8 14  1  0  0  0  0
  9 10  1  0  0  0  0
 10 11  2  0  0  0  0
 12 11  1  0  0  0  0
 12 13  1  0  0  0  0
 14 12  2  0  0  0  0
 15  5  1  0  0  0  0
 16 15  1  0  0  0  0
 17 16  2  0  0  0  0
 18 19  2  0  0  0  0
 18 17  1  0  0  0  0
 19 20  1  0  0  0  0
 20 15  2  0  0  0  0
 21 27  1  0  0  0  0
 21 22  1  0  0  0  0
 23 22  2  0  0  0  0
 24  1  1  0  0  0  0
 24 23  1  0  0  0  0
 25 26  1  0  0  0  0
 25 24  2  0  0  0  0
 26 21  2  0  0  0  0
 27 31  1  1  0  0  0
 27 28  1  0  0  0  0
 29 38  1  1  0  0  0
 29 35  1  0  0  0  0
 29 28  1  0  0  0  0
 30 27  1  0  0  0  0
 30 29  1  0  0  0  0
 31 34  1  0  0  0  0
 31 33  1  0  0  0  0
 32 31  1  0  0  0  0
 36 35  1  0  0  0  0
 37 36  1  0  0  0  0
 37 35  1  0  0  0  0
 39 38  1  0  0  0  0
M  END
>  <minimizedAffinity>
-12.3582411

$$$$

 OpenBabel11232420443D

 39 45  0  0  1  0  0  0  0  0999 V2000
  -18.5860   21.5680   10.3340 C   0  0  0  0  0  0  0  0  0  0  0  0
  -18.8010   22.7390   11.0310 N   0  0  0  0  0  0  0  0  0  0  0  0
  -18.0580   23.6530   10.4510 C   0  0  0  0  0  0  0  0  0  0  0  0
  -17.3750   23.1070    9.3970 N   0  0  0  0  0  0  0  0  0  0  0  0
  -17.7060   21.7760    9.2800 C   0  0  0  0  0  0  0  0  0  0  0  0
  -16.5720   23.9320    8.5200 C   0  0  0  0  0  2  0  0  0  0  0  0
  -15.9900   25.0560    9.2080 O   0  0  0  0  0  0  0  0  0  0  0  0
  -16.8070   25.7010   10.1080 C   0  0  0  0  0  0  0  0  0  0  0  0
  -16.4860   27.0300   10.3840 C   0  0  0  0  0  3  0  0  0  0  0  0
  -17.2440   27.7470   11.3050 C   0  0  0  0  0  3  0  0  0  0  0  0
  -18.3140   27.1310   11.9540 C   0  0  0  0  0  3  0  0  0  0  0  0
  -18.6270   25.7890   11.6950 C   0  0  0  0  0  0  0  0  0  0  0  0
  -19.9760   25.1260   12.5500 Cl  0  0  0  0  0  0  0  0  0  0  0  0
  -17.8670   25.0570   10.7710 C   0  0  0  0  0  0  0  0  0  0  0  0
  -17.2300   20.9120    8.2080 C   0  0  0  0  0  0  0  0  0  0  0  0
  -16.0770   20.1350    8.3810 C   0  0  0  0  0  3  0  0  0  0  0  0
  -15.6260   19.3100    7.3500 C   0  0  0  0  0  3  0  0  0  0  0  0
  -16.3230   19.2550    6.1430 C   0  0  0  0  0  3  0  0  0  0  0  0
  -17.4740   20.0230    5.9670 C   0  0  0  0  0  3  0  0  0  0  0  0
  -17.9270   20.8490    6.9970 C   0  0  0  0  0  3  0  0  0  0  0  0
  -20.3890   17.9060   11.7370 C   0  0  0  0  0  0  0  0  0  0  0  0
  -20.4380   19.1060   12.4740 C   0  0  0  0  0  3  0  0  0  0  0  0
  -19.8770   20.2920   11.9900 C   0  0  0  0  0  3  0  0  0  0  0  0
  -19.2520   20.3390   10.7400 C   0  0  0  0  0  0  0  0  0  0  0  0
  -19.2240   19.1740    9.9760 C   0  0  0  0  0  3  0  0  0  0  0  0
  -19.7880   17.9870   10.4630 C   0  0  0  0  0  3  0  0  0  0  0  0
  -20.9400   16.5490   12.3190 C   0  0  2  0  0  0  0  0  0  0  0  0
  -21.6870   16.5580   13.6820 C   0  0  0  0  0  2  0  0  0  0  0  0
  -21.0930   15.1320   13.9530 C   0  0  1  0  0  0  0  0  0  0  0  0
  -19.9360   15.5590   12.9830 C   0  0  0  0  0  2  0  0  0  0  0  0
  -21.7530   15.8860   11.2710 N   0  0  0  0  0  4  0  0  0  0  0  0
  -21.2030   15.6710   10.4320 H   0  0  0  0  0  0  0  0  0  0  0  0
  -22.5500   16.4650   10.9820 H   0  0  0  0  0  0  0  0  0  0  0  0
  -22.1360   14.9920   11.6370 H   0  0  0  0  0  0  0  0  0  0  0  0
  -20.7650   14.8300   15.4030 C   0  0  0  0  0  3  0  0  0  0  0  0
  -21.3090   13.6420   16.1480 C   0  0  0  0  0  2  0  0  0  0  0  0
  -19.8330   13.7480   15.8780 C   0  0  0  0  0  2  0  0  0  0  0  0
  -21.9090   14.0920   13.3360 O   0  0  0  0  0  0  0  0  0  0  0  0
  -21.6860   13.2780   13.8340 H   0  0  0  0  0  0  0  0  0  0  0  0
  1 24  1  0  0  0  0
  1  2  1  0  0  0  0
  3 14  1  0  0  0  0
  3  2  2  0  0  0  0
  4  3  1  0  0  0  0
  5  4  1  0  0  0  0
  5  1  2  0  0  0  0
  6  7  1  0  0  0  0
  6  4  1  0  0  0  0
  7  8  1  0  0  0  0
  8  9  2  0  0  0  0
  8 14  1  0  0  0  0
  9 10  1  0  0  0  0
 10 11  2  0  0  0  0
 12 11  1  0  0  0  0
 12 13  1  0  0  0  0
 14 12  2  0  0  0  0
 15 16  1  0  0  0  0
 15  5  1  0  0  0  0
 17 16  2  0  0  0  0
 18 17  1  0  0  0  0
 19 18  2  0  0  0  0
 19 20  1  0  0  0  0
 20 15  2  0  0  0  0
 21 27  1  0  0  0  0
 21 22  1  0  0  0  0
 23 22  2  0  0  0  0
 24 23  1  0  0  0  0
 25 26  1  0  0  0  0
 25 24  2  0  0  0  0
 26 21  2  0  0  0  0
 27 31  1  6  0  0  0
 27 30  1  0  0  0  0
 27 28  1  0  0  0  0
 28 29  1  0  0  0  0
 29 38  1  6  0  0  0
 29 35  1  0  0  0  0
 30 29  1  0  0  0  0
 31 34  1  0  0  0  0
 32 31  1  0  0  0  0
 33 31  1  0  0  0  0
 35 37  1  0  0  0  0
 35 36  1  0  0  0  0
 37 36  1  0  0  0  0
 38 39  1  0  0  0  0
M  END
>  <minimizedAffinity>
-12.3443108

$$$$

 OpenBabel11232420443D

 39 45  0  0  1  0  0  0  0  0999 V2000
  -19.2620   20.7010   10.3690 C   0  0  0  0  0  0  0  0  0  0  0  0
  -20.0370   20.2150   11.4020 N   0  0  0  0  0  0  0  0  0  0  0  0
  -20.1660   18.9270   11.1900 C   0  0  0  0  0  0  0  0  0  0  0  0
  -19.4920   18.5650   10.0540 N   0  0  0  0  0  0  0  0  0  0  0  0
  -18.8830   19.6760    9.5130 C   0  0  0  0  0  0  0  0  0  0  0  0
  -19.3820   17.1770    9.6600 C   0  0  0  0  0  2  0  0  0  0  0  0
  -20.5350   16.4060   10.0510 O   0  0  0  0  0  0  0  0  0  0  0  0
  -21.0400   16.6680   11.3030 C   0  0  0  0  0  0  0  0  0  0  0  0
  -21.7750   15.6410   11.8960 C   0  0  0  0  0  3  0  0  0  0  0  0
  -22.3450   15.8340   13.1500 C   0  0  0  0  0  3  0  0  0  0  0  0
  -22.1880   17.0570   13.8040 C   0  0  0  0  0  3  0  0  0  0  0  0
  -21.4680   18.0980   13.2030 C   0  0  0  0  0  0  0  0  0  0  0  0
  -21.3300   19.5690   14.1030 Cl  0  0  0  0  0  0  0  0  0  0  0  0
  -20.8920   17.9140   11.9370 C   0  0  0  0  0  0  0  0  0  0  0  0
  -18.0090   19.6360    8.3480 C   0  0  0  0  0  0  0  0  0  0  0  0
  -18.1970   20.5300    7.2880 C   0  0  0  0  0  3  0  0  0  0  0  0
  -17.3560   20.4860    6.1740 C   0  0  0  0  0  3  0  0  0  0  0  0
  -16.3250   19.5500    6.1150 C   0  0  0  0  0  3  0  0  0  0  0  0
  -16.1290   18.6590    7.1700 C   0  0  0  0  0  3  0  0  0  0  0  0
  -16.9690   18.7020    8.2850 C   0  0  0  0  0  3  0  0  0  0  0  0
  -18.4110   24.9320   10.3900 C   0  0  0  0  0  0  0  0  0  0  0  0
  -17.7170   24.0160   11.2030 C   0  0  0  0  0  3  0  0  0  0  0  0
  -17.9820   22.6430   11.1610 C   0  0  0  0  0  3  0  0  0  0  0  0
  -18.9450   22.1200   10.2920 C   0  0  0  0  0  0  0  0  0  0  0  0
  -19.6190   23.0020    9.4500 C   0  0  0  0  0  3  0  0  0  0  0  0
  -19.3500   24.3770    9.4940 C   0  0  0  0  0  3  0  0  0  0  0  0
  -18.1780   26.4870   10.5000 C   0  0  2  0  0  0  0  0  0  0  0  0
  -16.8070   27.0110   11.0140 C   0  0  0  0  0  2  0  0  0  0  0  0
  -17.5750   28.2160   11.6610 C   0  0  1  0  0  0  0  0  0  0  0  0
  -18.8130   27.2540   11.6990 C   0  0  0  0  0  2  0  0  0  0  0  0
  -18.5320   27.1070    9.2000 N   0  0  0  0  0  4  0  0  0  0  0  0
  -19.5150   26.9520    8.9520 H   0  0  0  0  0  0  0  0  0  0  0  0
  -17.9540   26.7440    8.4340 H   0  0  0  0  0  0  0  0  0  0  0  0
  -18.3750   28.1340    9.2480 H   0  0  0  0  0  0  0  0  0  0  0  0
  -16.9980   28.7270   12.9680 C   0  0  0  0  0  3  0  0  0  0  0  0
  -16.3160   30.0600   13.1120 C   0  0  0  0  0  2  0  0  0  0  0  0
  -17.6100   29.7960   13.8310 C   0  0  0  0  0  2  0  0  0  0  0  0
  -17.7960   29.2850   10.6930 O   0  0  0  0  0  0  0  0  0  0  0  0
  -17.9390   30.0860   11.2400 H   0  0  0  0  0  0  0  0  0  0  0  0
  1  2  1  0  0  0  0
  3  2  2  0  0  0  0
  3 14  1  0  0  0  0
  4  3  1  0  0  0  0
  5  4  1  0  0  0  0
  5  1  2  0  0  0  0
  6  7  1  0  0  0  0
  6  4  1  0  0  0  0
  7  8  1  0  0  0  0
  8  9  2  0  0  0  0
  8 14  1  0  0  0  0
  9 10  1  0  0  0  0
 10 11  2  0  0  0  0
 12 11  1  0  0  0  0
 12 13  1  0  0  0  0
 14 12  2  0  0  0  0
 15  5  1  0  0  0  0
 16 15  2  0  0  0  0
 17 16  1  0  0  0  0
 18 17  2  0  0  0  0
 18 19  1  0  0  0  0
 19 20  2  0  0  0  0
 20 15  1  0  0  0  0
 21 27  1  0  0  0  0
 21 22  1  0  0  0  0
 23 22  2  0  0  0  0
 24  1  1  0  0  0  0
 24 23  1  0  0  0  0
 25 26  1  0  0  0  0
 25 24  2  0  0  0  0
 26 21  2  0  0  0  0
 27 31  1  6  0  0  0
 27 28  1  0  0  0  0
 27 30  1  0  0  0  0
 28 29  1  0  0  0  0
 29 38  1  6  0  0  0
 29 30  1  0  0  0  0
 29 35  1  0  0  0  0
 31 34  1  0  0  0  0
 32 31  1  0  0  0  0
 33 31  1  0  0  0  0
 35 36  1  0  0  0  0
 35 37  1  0  0  0  0
 36 37  1  0  0  0  0
 38 39  1  0  0  0  0
M  END
>  <minimizedAffinity>
-12.3103104

$$$$

 OpenBabel11232420443D

 39 45  0  0  1  0  0  0  0  0999 V2000
  -18.2240   22.6630    9.8450 C   0  0  0  0  0  0  0  0  0  0  0  0
  -17.3170   22.3900    8.8430 N   0  0  0  0  0  0  0  0  0  0  0  0
  -17.3830   21.0970    8.6290 C   0  0  0  0  0  0  0  0  0  0  0  0
  -18.3100   20.5280    9.4610 N   0  0  0  0  0  0  0  0  0  0  0  0
  -18.8840   21.5070   10.2400 C   0  0  0  0  0  0  0  0  0  0  0  0
  -18.6570   19.1270    9.3470 C   0  0  0  0  0  2  0  0  0  0  0  0
  -17.5460   18.3240    8.9040 O   0  0  0  0  0  0  0  0  0  0  0  0
  -16.7700   18.8650    7.9050 C   0  0  0  0  0  0  0  0  0  0  0  0
  -16.0530   17.9570    7.1250 C   0  0  0  0  0  3  0  0  0  0  0  0
  -15.2220   18.4230    6.1120 C   0  0  0  0  0  3  0  0  0  0  0  0
  -15.1010   19.7950    5.8870 C   0  0  0  0  0  3  0  0  0  0  0  0
  -15.8030   20.7110    6.6830 C   0  0  0  0  0  0  0  0  0  0  0  0
  -15.5850   22.3870    6.3160 Cl  0  0  0  0  0  0  0  0  0  0  0  0
  -16.6410   20.2520    7.7090 C   0  0  0  0  0  0  0  0  0  0  0  0
  -19.9760   21.2650   11.1750 C   0  0  0  0  0  0  0  0  0  0  0  0
  -21.0500   22.1590   11.2590 C   0  0  0  0  0  3  0  0  0  0  0  0
  -22.0920   21.9210   12.1570 C   0  0  0  0  0  3  0  0  0  0  0  0
  -22.0660   20.7910   12.9730 C   0  0  0  0  0  3  0  0  0  0  0  0
  -21.0000   19.8950   12.8920 C   0  0  0  0  0  3  0  0  0  0  0  0
  -19.9580   20.1310   11.9940 C   0  0  0  0  0  3  0  0  0  0  0  0
  -18.4650   26.7520   11.2060 C   0  0  0  0  0  0  0  0  0  0  0  0
  -18.5120   26.4030    9.8420 C   0  0  0  0  0  3  0  0  0  0  0  0
  -18.4660   25.0700    9.4190 C   0  0  0  0  0  3  0  0  0  0  0  0
  -18.3840   24.0220   10.3410 C   0  0  0  0  0  0  0  0  0  0  0  0
  -18.3740   24.3400   11.6980 C   0  0  0  0  0  3  0  0  0  0  0  0
  -18.4220   25.6760   12.1190 C   0  0  0  0  0  3  0  0  0  0  0  0
  -18.4270   28.2540   11.6810 C   0  0  2  0  0  0  0  0  0  0  0  0
  -17.3320   28.7000   12.6910 C   0  0  0  0  0  2  0  0  0  0  0  0
  -18.3710   29.7150   13.2820 C   0  0  1  0  0  0  0  0  0  0  0  0
  -19.4640   28.7280   12.7420 C   0  0  0  0  0  2  0  0  0  0  0  0
  -18.4300   29.1250   10.4800 N   0  0  0  0  0  4  0  0  0  0  0  0
  -19.2730   28.9950    9.9100 H   0  0  0  0  0  0  0  0  0  0  0  0
  -17.6160   28.9510    9.8800 H   0  0  0  0  0  0  0  0  0  0  0  0
  -18.3940   30.1220   10.7710 H   0  0  0  0  0  0  0  0  0  0  0  0
  -18.2670   29.9550   14.7770 C   0  0  0  0  0  3  0  0  0  0  0  0
  -18.1150   31.3180   15.3920 C   0  0  0  0  0  2  0  0  0  0  0  0
  -19.3600   30.5140   15.6470 C   0  0  0  0  0  2  0  0  0  0  0  0
  -18.3920   30.9570   12.5170 O   0  0  0  0  0  0  0  0  0  0  0  0
  -18.7690   31.6190   13.1350 H   0  0  0  0  0  0  0  0  0  0  0  0
  1  5  2  0  0  0  0
  1 24  1  0  0  0  0
  2  1  1  0  0  0  0
  3  2  2  0  0  0  0
  3  4  1  0  0  0  0
  4  5  1  0  0  0  0
  5 15  1  0  0  0  0
  6  4  1  0  0  0  0
  7  6  1  0  0  0  0
  8  7  1  0  0  0  0
  9  8  2  0  0  0  0
 10  9  1  0  0  0  0
 11 10  2  0  0  0  0
 11 12  1  0  0  0  0
 12 14  2  0  0  0  0
 13 12  1  0  0  0  0
 14  8  1  0  0  0  0
 14  3  1  0  0  0  0
 15 16  2  0  0  0  0
 15 20  1  0  0  0  0
 16 17  1  0  0  0  0
 17 18  2  0  0  0  0
 19 18  1  0  0  0  0
 20 19  2  0  0  0  0
 21 27  1  0  0  0  0
 21 26  1  0  0  0  0
 22 21  2  0  0  0  0
 23 22  1  0  0  0  0
 23 24  2  0  0  0  0
 24 25  1  0  0  0  0
 25 26  2  0  0  0  0
 27 31  1  6  0  0  0
 27 28  1  0  0  0  0
 27 30  1  0  0  0  0
 28 29  1  0  0  0  0
 29 38  1  6  0  0  0
 29 35  1  0  0  0  0
 30 29  1  0  0  0  0
 31 34  1  0  0  0  0
 32 31  1  0  0  0  0
 33 31  1  0  0  0  0
 35 36  1  0  0  0  0
 35 37  1  0  0  0  0
 36 37  1  0  0  0  0
 38 39  1  0  0  0  0
M  END
>  <minimizedAffinity>
-11.6678991

$$$$

 OpenBabel11232420443D

 39 45  0  0  1  0  0  0  0  0999 V2000
  -19.3300   20.3330   10.8270 C   0  0  0  0  0  0  0  0  0  0  0  0
  -18.6860   19.4930    9.9420 N   0  0  0  0  0  0  0  0  0  0  0  0
  -18.0430   20.2670    9.1020 C   0  0  0  0  0  0  0  0  0  0  0  0
  -18.2470   21.5840    9.4210 N   0  0  0  0  0  0  0  0  0  0  0  0
  -19.0510   21.6620   10.5360 C   0  0  0  0  0  0  0  0  0  0  0  0
  -17.5530   22.6400    8.7160 C   0  0  0  0  0  2  0  0  0  0  0  0
  -17.2920   22.2990    7.3410 O   0  0  0  0  0  0  0  0  0  0  0  0
  -16.8790   21.0080    7.1070 C   0  0  0  0  0  0  0  0  0  0  0  0
  -16.1490   20.7990    5.9370 C   0  0  0  0  0  3  0  0  0  0  0  0
  -15.7180   19.5170    5.6100 C   0  0  0  0  0  3  0  0  0  0  0  0
  -16.0260   18.4460    6.4490 C   0  0  0  0  0  3  0  0  0  0  0  0
  -16.7780   18.6480    7.6150 C   0  0  0  0  0  0  0  0  0  0  0  0
  -17.0980   17.2520    8.5850 Cl  0  0  0  0  0  0  0  0  0  0  0  0
  -17.2200   19.9360    7.9510 C   0  0  0  0  0  0  0  0  0  0  0  0
  -19.3970   22.9110   11.2020 C   0  0  0  0  0  0  0  0  0  0  0  0
  -20.4490   23.7020   10.7250 C   0  0  0  0  0  3  0  0  0  0  0  0
  -20.7740   24.8980   11.3670 C   0  0  0  0  0  3  0  0  0  0  0  0
  -20.0520   25.3080   12.4880 C   0  0  0  0  0  3  0  0  0  0  0  0
  -19.0060   24.5210   12.9700 C   0  0  0  0  0  3  0  0  0  0  0  0
  -18.6790   23.3250   12.3290 C   0  0  0  0  0  3  0  0  0  0  0  0
  -21.7100   18.9010   14.1310 C   0  0  0  0  0  0  0  0  0  0  0  0
  -21.9560   20.1350   13.4980 C   0  0  0  0  0  3  0  0  0  0  0  0
  -21.1960   20.5700   12.4070 C   0  0  0  0  0  3  0  0  0  0  0  0
  -20.1620   19.7850   11.8880 C   0  0  0  0  0  0  0  0  0  0  0  0
  -19.9240   18.5420   12.4730 C   0  0  0  0  0  3  0  0  0  0  0  0
  -20.6880   18.1090   13.5650 C   0  0  0  0  0  3  0  0  0  0  0  0
  -22.5050   18.4500   15.4150 C   0  0  2  0  0  0  0  0  0  0  0  0
  -21.7240   17.8340   16.6100 C   0  0  0  0  0  2  0  0  0  0  0  0
  -22.9780   16.9360   16.8930 C   0  0  1  0  0  0  0  0  0  0  0  0
  -23.3010   17.1110   15.3680 C   0  0  0  0  0  2  0  0  0  0  0  0
  -23.3550   19.5800   15.8600 N   0  0  0  0  0  4  0  0  0  0  0  0
  -24.0380   19.8570   15.1460 H   0  0  0  0  0  0  0  0  0  0  0  0
  -22.7970   20.4080   16.0960 H   0  0  0  0  0  0  0  0  0  0  0  0
  -23.8810   19.3070   16.7140 H   0  0  0  0  0  0  0  0  0  0  0  0
  -22.6760   15.5490   17.4280 C   0  0  0  0  0  3  0  0  0  0  0  0
  -23.7310   14.6070   17.9410 C   0  0  0  0  0  2  0  0  0  0  0  0
  -22.9480   14.2580   16.7040 C   0  0  0  0  0  2  0  0  0  0  0  0
  -23.9650   17.6440   17.7010 O   0  0  0  0  0  0  0  0  0  0  0  0
  -24.5030   16.9330   18.1090 H   0  0  0  0  0  0  0  0  0  0  0  0
  1 24  1  0  0  0  0
  2  1  1  0  0  0  0
  3  4  1  0  0  0  0
  3  2  2  0  0  0  0
  4  5  1  0  0  0  0
  5  1  2  0  0  0  0
  5 15  1  0  0  0  0
  6  4  1  0  0  0  0
  7  6  1  0  0  0  0
  8  7  1  0  0  0  0
  8 14  1  0  0  0  0
  9  8  2  0  0  0  0
 10  9  1  0  0  0  0
 10 11  2  0  0  0  0
 11 12  1  0  0  0  0
 12 14  2  0  0  0  0
 12 13  1  0  0  0  0
 14  3  1  0  0  0  0
 15 20  1  0  0  0  0
 16 15  2  0  0  0  0
 16 17  1  0  0  0  0
 17 18  2  0  0  0  0
 18 19  1  0  0  0  0
 20 19  2  0  0  0  0
 21 27  1  0  0  0  0
 22 21  2  0  0  0  0
 23 22  1  0  0  0  0
 24 23  2  0  0  0  0
 24 25  1  0  0  0  0
 25 26  2  0  0  0  0
 26 21  1  0  0  0  0
 27 31  1  1  0  0  0
 27 28  1  0  0  0  0
 28 29  1  0  0  0  0
 29 35  1  0  0  0  0
 29 38  1  1  0  0  0
 30 27  1  0  0  0  0
 30 29  1  0  0  0  0
 31 33  1  0  0  0  0
 31 34  1  0  0  0  0
 32 31  1  0  0  0  0
 35 36  1  0  0  0  0
 37 35  1  0  0  0  0
 37 36  1  0  0  0  0
 38 39  1  0  0  0  0
M  END
>  <minimizedAffinity>
-10.8842793

$$$$

 OpenBabel11232420443D

 39 45  0  0  1  0  0  0  0  0999 V2000
  -17.2240   30.4400   11.9090 C   0  0  0  0  0  0  0  0  0  0  0  0
  -16.2650   30.9890   11.0830 N   0  0  0  0  0  0  0  0  0  0  0  0
  -15.9000   32.1180   11.6430 C   0  0  0  0  0  0  0  0  0  0  0  0
  -16.5910   32.3120   12.8100 N   0  0  0  0  0  0  0  0  0  0  0  0
  -17.4340   31.2440   13.0220 C   0  0  0  0  0  0  0  0  0  0  0  0
  -16.2910   33.4300   13.6790 C   0  0  0  0  0  2  0  0  0  0  0  0
  -15.8410   34.5860   12.9470 O   0  0  0  0  0  0  0  0  0  0  0  0
  -14.9710   34.3420   11.9100 C   0  0  0  0  0  0  0  0  0  0  0  0
  -14.1460   35.4040   11.5390 C   0  0  0  0  0  3  0  0  0  0  0  0
  -13.2560   35.2510   10.4800 C   0  0  0  0  0  3  0  0  0  0  0  0
  -13.2000   34.0400    9.7890 C   0  0  0  0  0  3  0  0  0  0  0  0
  -14.0430   32.9780   10.1450 C   0  0  0  0  0  0  0  0  0  0  0  0
  -13.8870   31.5210    9.2260 Cl  0  0  0  0  0  0  0  0  0  0  0  0
  -14.9450   33.1240   11.2080 C   0  0  0  0  0  0  0  0  0  0  0  0
  -18.2530   31.0810   14.2160 C   0  0  0  0  0  0  0  0  0  0  0  0
  -19.5730   31.5450   14.2410 C   0  0  0  0  0  3  0  0  0  0  0  0
  -20.3520   31.3850   15.3890 C   0  0  0  0  0  3  0  0  0  0  0  0
  -19.8160   30.7620   16.5150 C   0  0  0  0  0  3  0  0  0  0  0  0
  -18.5020   30.2930   16.4940 C   0  0  0  0  0  3  0  0  0  0  0  0
  -17.7220   30.4510   15.3480 C   0  0  0  0  0  3  0  0  0  0  0  0
  -19.2540   26.7200   11.0930 C   0  0  0  0  0  0  0  0  0  0  0  0
  -19.9140   27.9640   11.0720 C   0  0  0  0  0  3  0  0  0  0  0  0
  -19.2350   29.1640   11.3060 C   0  0  0  0  0  3  0  0  0  0  0  0
  -17.8590   29.1780   11.5600 C   0  0  0  0  0  0  0  0  0  0  0  0
  -17.1770   27.9630   11.5480 C   0  0  0  0  0  3  0  0  0  0  0  0
  -17.8600   26.7630   11.3120 C   0  0  0  0  0  3  0  0  0  0  0  0
  -20.0330   25.3610   10.9190 C   0  0  2  0  0  0  0  0  0  0  0  0
  -20.1020   24.3700   12.1150 C   0  0  0  0  0  2  0  0  0  0  0  0
  -20.0910   23.1990   11.0730 C   0  0  1  0  0  0  0  0  0  0  0  0
  -19.3500   24.2060   10.1260 C   0  0  0  0  0  2  0  0  0  0  0  0
  -21.3870   25.6610   10.3970 N   0  0  0  0  0  4  0  0  0  0  0  0
  -21.3560   26.1270    9.4830 H   0  0  0  0  0  0  0  0  0  0  0  0
  -21.9190   26.2620   11.0370 H   0  0  0  0  0  0  0  0  0  0  0  0
  -21.9230   24.7770   10.2840 H   0  0  0  0  0  0  0  0  0  0  0  0
  -19.3710   21.9400   11.5180 C   0  0  0  0  0  3  0  0  0  0  0  0
  -20.0770   20.6620   11.8810 C   0  0  0  0  0  2  0  0  0  0  0  0
  -19.1740   20.7060   10.6790 C   0  0  0  0  0  2  0  0  0  0  0  0
  -21.4320   22.9260   10.5680 O   0  0  0  0  0  0  0  0  0  0  0  0
  -21.3850   22.0070   10.2310 H   0  0  0  0  0  0  0  0  0  0  0  0
  1  5  2  0  0  0  0
  2  3  2  0  0  0  0
  2  1  1  0  0  0  0
  3  4  1  0  0  0  0
  4  5  1  0  0  0  0
  4  6  1  0  0  0  0
  5 15  1  0  0  0  0
  7  6  1  0  0  0  0
  8  7  1  0  0  0  0
  9  8  1  0  0  0  0
 10  9  2  0  0  0  0
 11 12  2  0  0  0  0
 11 10  1  0  0  0  0
 12 14  1  0  0  0  0
 13 12  1  0  0  0  0
 14  3  1  0  0  0  0
 14  8  2  0  0  0  0
 15 16  2  0  0  0  0
 15 20  1  0  0  0  0
 16 17  1  0  0  0  0
 17 18  2  0  0  0  0
 19 18  1  0  0  0  0
 20 19  2  0  0  0  0
 21 26  1  0  0  0  0
 22 21  2  0  0  0  0
 22 23  1  0  0  0  0
 23 24  2  0  0  0  0
 24  1  1  0  0  0  0
 25 24  1  0  0  0  0
 26 25  2  0  0  0  0
 27 31  1  6  0  0  0
 27 21  1  0  0  0  0
 27 28  1  0  0  0  0
 29 38  1  6  0  0  0
 29 35  1  0  0  0  0
 29 28  1  0  0  0  0
 30 27  1  0  0  0  0
 30 29  1  0  0  0  0
 31 33  1  0  0  0  0
 32 31  1  0  0  0  0
 34 31  1  0  0  0  0
 35 36  1  0  0  0  0
 37 35  1  0  0  0  0
 37 36  1  0  0  0  0
 39 38  1  0  0  0  0
M  END
>  <minimizedAffinity>
-10.8530617

$$$$

 OpenBabel11232420443D

 39 45  0  0  1  0  0  0  0  0999 V2000
  -18.7460   30.4290   12.9690 C   0  0  0  0  0  0  0  0  0  0  0  0
  -19.5960   30.7540   14.0060 N   0  0  0  0  0  0  0  0  0  0  0  0
  -19.2250   31.9400   14.4270 C   0  0  0  0  0  0  0  0  0  0  0  0
  -18.1640   32.3930   13.6890 N   0  0  0  0  0  0  0  0  0  0  0  0
  -17.8440   31.4580   12.7310 C   0  0  0  0  0  0  0  0  0  0  0  0
  -17.6370   33.7280   13.8780 C   0  0  0  0  0  2  0  0  0  0  0  0
  -17.7700   34.1790   15.2400 O   0  0  0  0  0  0  0  0  0  0  0  0
  -18.9580   33.8760   15.8630 C   0  0  0  0  0  0  0  0  0  0  0  0
  -19.3200   34.7010   16.9280 C   0  0  0  0  0  3  0  0  0  0  0  0
  -20.4930   34.4460   17.6320 C   0  0  0  0  0  3  0  0  0  0  0  0
  -21.2960   33.3610   17.2760 C   0  0  0  0  0  3  0  0  0  0  0  0
  -20.9240   32.5170   16.2200 C   0  0  0  0  0  0  0  0  0  0  0  0
  -21.9930   31.2070   15.8590 Cl  0  0  0  0  0  0  0  0  0  0  0  0
  -19.7420   32.7640   15.5060 C   0  0  0  0  0  0  0  0  0  0  0  0
  -16.8190   31.6550   11.7130 C   0  0  0  0  0  0  0  0  0  0  0  0
  -15.5440   31.0990   11.8720 C   0  0  0  0  0  3  0  0  0  0  0  0
  -14.5670   31.2920   10.8940 C   0  0  0  0  0  3  0  0  0  0  0  0
  -14.8600   32.0400    9.7540 C   0  0  0  0  0  3  0  0  0  0  0  0
  -16.1290   32.5930    9.5880 C   0  0  0  0  0  3  0  0  0  0  0  0
  -17.1080   32.4000   10.5650 C   0  0  0  0  0  3  0  0  0  0  0  0
  -19.3020   26.5640   11.1320 C   0  0  0  0  0  0  0  0  0  0  0  0
  -20.3230   27.5330   11.1820 C   0  0  0  0  0  3  0  0  0  0  0  0
  -20.1160   28.7930   11.7520 C   0  0  0  0  0  3  0  0  0  0  0  0
  -18.8740   29.1500   12.2870 C   0  0  0  0  0  0  0  0  0  0  0  0
  -17.8370   28.2210   12.2160 C   0  0  0  0  0  3  0  0  0  0  0  0
  -18.0470   26.9600   11.6430 C   0  0  0  0  0  3  0  0  0  0  0  0
  -19.5580   25.1130   10.5720 C   0  0  2  0  0  0  0  0  0  0  0  0
  -19.0720   23.8880   11.3960 C   0  0  0  0  0  2  0  0  0  0  0  0
  -18.8100   23.1490   10.0380 C   0  0  1  0  0  0  0  0  0  0  0  0
  -18.6440   24.5830    9.4260 C   0  0  0  0  0  2  0  0  0  0  0  0
  -20.9950   24.9890   10.2310 N   0  0  0  0  0  4  0  0  0  0  0  0
  -21.2820   25.6610    9.5110 H   0  0  0  0  0  0  0  0  0  0  0  0
  -21.5960   25.1330   11.0510 H   0  0  0  0  0  0  0  0  0  0  0  0
  -21.1880   24.0340    9.8690 H   0  0  0  0  0  0  0  0  0  0  0  0
  -17.6240   22.2020   10.0320 C   0  0  0  0  0  3  0  0  0  0  0  0
  -17.7390   20.7260    9.7680 C   0  0  0  0  0  2  0  0  0  0  0  0
  -16.9930   21.6060    8.8030 C   0  0  0  0  0  2  0  0  0  0  0  0
  -20.0270   22.5230    9.5330 O   0  0  0  0  0  0  0  0  0  0  0  0
  -19.7080   21.8250    8.9210 H   0  0  0  0  0  0  0  0  0  0  0  0
  1  2  1  0  0  0  0
  2  3  2  0  0  0  0
  3 14  1  0  0  0  0
  4  6  1  0  0  0  0
  4  3  1  0  0  0  0
  5  1  2  0  0  0  0
  5  4  1  0  0  0  0
  6  7  1  0  0  0  0
  7  8  1  0  0  0  0
  8  9  1  0  0  0  0
  9 10  2  0  0  0  0
 11 10  1  0  0  0  0
 12 11  2  0  0  0  0
 13 12  1  0  0  0  0
 14  8  2  0  0  0  0
 14 12  1  0  0  0  0
 15 16  1  0  0  0  0
 15  5  1  0  0  0  0
 17 16  2  0  0  0  0
 18 17  1  0  0  0  0
 19 18  2  0  0  0  0
 19 20  1  0  0  0  0
 20 15  2  0  0  0  0
 21 22  2  0  0  0  0
 21 26  1  0  0  0  0
 22 23  1  0  0  0  0
 23 24  2  0  0  0  0
 24  1  1  0  0  0  0
 25 24  1  0  0  0  0
 26 25  2  0  0  0  0
 27 31  1  6  0  0  0
 27 21  1  0  0  0  0
 27 28  1  0  0  0  0
 29 38  1  6  0  0  0
 29 28  1  0  0  0  0
 30 29  1  0  0  0  0
 30 27  1  0  0  0  0
 31 33  1  0  0  0  0
 32 31  1  0  0  0  0
 34 31  1  0  0  0  0
 35 29  1  0  0  0  0
 36 35  1  0  0  0  0
 37 36  1  0  0  0  0
 37 35  1  0  0  0  0
 39 38  1  0  0  0  0
M  END
>  <minimizedAffinity>
-10.778533

$$$$

 OpenBabel11232420443D

 39 45  0  0  1  0  0  0  0  0999 V2000
  -18.1470   22.7050    9.6710 C   0  0  0  0  0  0  0  0  0  0  0  0
  -17.2400   22.3790    8.6840 N   0  0  0  0  0  0  0  0  0  0  0  0
  -17.3260   21.0810    8.5180 C   0  0  0  0  0  0  0  0  0  0  0  0
  -18.2670   20.5580    9.3650 N   0  0  0  0  0  0  0  0  0  0  0  0
  -18.8290   21.5750   10.1040 C   0  0  0  0  0  0  0  0  0  0  0  0
  -18.6370   19.1600    9.3000 C   0  0  0  0  0  2  0  0  0  0  0  0
  -17.5370   18.3230    8.8940 O   0  0  0  0  0  0  0  0  0  0  0  0
  -16.7470   18.8140    7.8810 C   0  0  0  0  0  0  0  0  0  0  0  0
  -16.0410   17.8670    7.1390 C   0  0  0  0  0  3  0  0  0  0  0  0
  -15.1970   18.2810    6.1140 C   0  0  0  0  0  3  0  0  0  0  0  0
  -15.0510   19.6410    5.8400 C   0  0  0  0  0  3  0  0  0  0  0  0
  -15.7420   20.5980    6.5970 C   0  0  0  0  0  0  0  0  0  0  0  0
  -15.4950   22.2550    6.1690 Cl  0  0  0  0  0  0  0  0  0  0  0  0
  -16.5940   20.1900    7.6340 C   0  0  0  0  0  0  0  0  0  0  0  0
  -19.9290   21.3860   11.0410 C   0  0  0  0  0  0  0  0  0  0  0  0
  -19.9170   20.3170   11.9440 C   0  0  0  0  0  3  0  0  0  0  0  0
  -20.9740   20.1410   12.8390 C   0  0  0  0  0  3  0  0  0  0  0  0
  -22.0470   21.0320   12.8350 C   0  0  0  0  0  3  0  0  0  0  0  0
  -22.0630   22.1010   11.9400 C   0  0  0  0  0  3  0  0  0  0  0  0
  -21.0070   22.2790   11.0450 C   0  0  0  0  0  3  0  0  0  0  0  0
  -18.8230   26.7520   11.0070 C   0  0  0  0  0  0  0  0  0  0  0  0
  -19.0430   25.6340   11.8340 C   0  0  0  0  0  3  0  0  0  0  0  0
  -18.7880   24.3310   11.3980 C   0  0  0  0  0  3  0  0  0  0  0  0
  -18.2870   24.0830   10.1150 C   0  0  0  0  0  0  0  0  0  0  0  0
  -18.0260   25.1760    9.2900 C   0  0  0  0  0  3  0  0  0  0  0  0
  -18.2820   26.4810    9.7320 C   0  0  0  0  0  3  0  0  0  0  0  0
  -19.1940   28.2140   11.4650 C   0  0  2  0  0  0  0  0  0  0  0  0
  -19.7530   29.2160   10.4150 C   0  0  0  0  0  2  0  0  0  0  0  0
  -19.0290   30.3600   11.2050 C   0  0  1  0  0  0  0  0  0  0  0  0
  -18.0440   29.2400   11.6910 C   0  0  0  0  0  2  0  0  0  0  0  0
  -20.0890   28.1220   12.6430 N   0  0  0  0  0  4  0  0  0  0  0  0
  -19.6410   27.6470   13.4340 H   0  0  0  0  0  0  0  0  0  0  0  0
  -20.9560   27.6180   12.4260 H   0  0  0  0  0  0  0  0  0  0  0  0
  -20.3560   29.0770   12.9560 H   0  0  0  0  0  0  0  0  0  0  0  0
  -18.4920   31.4970   10.3560 C   0  0  0  0  0  3  0  0  0  0  0  0
  -18.2590   32.8880   10.8790 C   0  0  0  0  0  2  0  0  0  0  0  0
  -17.0950   32.0500   10.4240 C   0  0  0  0  0  2  0  0  0  0  0  0
  -19.8430   30.8320   12.3200 O   0  0  0  0  0  0  0  0  0  0  0  0
  -19.4990   31.7300   12.5120 H   0  0  0  0  0  0  0  0  0  0  0  0
  1  5  2  0  0  0  0
  1 24  1  0  0  0  0
  2  1  1  0  0  0  0
  3  2  2  0  0  0  0
  3  4  1  0  0  0  0
  4  5  1  0  0  0  0
  5 15  1  0  0  0  0
  6  4  1  0  0  0  0
  7  6  1  0  0  0  0
  8  7  1  0  0  0  0
  9  8  2  0  0  0  0
 10  9  1  0  0  0  0
 11 10  2  0  0  0  0
 11 12  1  0  0  0  0
 12 14  2  0  0  0  0
 13 12  1  0  0  0  0
 14  8  1  0  0  0  0
 14  3  1  0  0  0  0
 15 20  2  0  0  0  0
 15 16  1  0  0  0  0
 16 17  2  0  0  0  0
 18 17  1  0  0  0  0
 19 18  2  0  0  0  0
 20 19  1  0  0  0  0
 21 27  1  0  0  0  0
 21 22  1  0  0  0  0
 23 22  2  0  0  0  0
 24 23  1  0  0  0  0
 25 26  1  0  0  0  0
 25 24  2  0  0  0  0
 26 21  2  0  0  0  0
 27 30  1  0  0  0  0
 27 31  1  1  0  0  0
 28 29  1  0  0  0  0
 28 27  1  0  0  0  0
 29 30  1  0  0  0  0
 29 38  1  1  0  0  0
 31 34  1  0  0  0  0
 31 32  1  0  0  0  0
 33 31  1  0  0  0  0
 35 37  1  0  0  0  0
 35 36  1  0  0  0  0
 35 29  1  0  0  0  0
 37 36  1  0  0  0  0
 38 39  1  0  0  0  0
M  END
>  <minimizedAffinity>
-10.7029495

$$$$
