
 OpenBabel11232420443D

 39 45  0  0  1  0  0  0  0  0999 V2000
  -18.1470   22.7050    9.6710 C   0  0  0  0  0  0  0  0  0  0  0  0
  -17.2400   22.3790    8.6840 N   0  0  0  0  0  0  0  0  0  0  0  0
  -17.3260   21.0810    8.5180 C   0  0  0  0  0  0  0  0  0  0  0  0
  -18.2670   20.5580    9.3650 N   0  0  0  0  0  0  0  0  0  0  0  0
  -18.8290   21.5750   10.1040 C   0  0  0  0  0  0  0  0  0  0  0  0
  -18.6370   19.1600    9.3000 C   0  0  0  0  0  2  0  0  0  0  0  0
  -17.5370   18.3230    8.8940 O   0  0  0  0  0  0  0  0  0  0  0  0
  -16.7470   18.8140    7.8810 C   0  0  0  0  0  0  0  0  0  0  0  0
  -16.0410   17.8670    7.1390 C   0  0  0  0  0  3  0  0  0  0  0  0
  -15.1970   18.2810    6.1140 C   0  0  0  0  0  3  0  0  0  0  0  0
  -15.0510   19.6410    5.8400 C   0  0  0  0  0  3  0  0  0  0  0  0
  -15.7420   20.5980    6.5970 C   0  0  0  0  0  0  0  0  0  0  0  0
  -15.4950   22.2550    6.1690 Cl  0  0  0  0  0  0  0  0  0  0  0  0
  -16.5940   20.1900    7.6340 C   0  0  0  0  0  0  0  0  0  0  0  0
  -19.9290   21.3860   11.0410 C   0  0  0  0  0  0  0  0  0  0  0  0
  -19.9170   20.3170   11.9440 C   0  0  0  0  0  3  0  0  0  0  0  0
  -20.9740   20.1410   12.8390 C   0  0  0  0  0  3  0  0  0  0  0  0
  -22.0470   21.0320   12.8350 C   0  0  0  0  0  3  0  0  0  0  0  0
  -22.0630   22.1010   11.9400 C   0  0  0  0  0  3  0  0  0  0  0  0
  -21.0070   22.2790   11.0450 C   0  0  0  0  0  3  0  0  0  0  0  0
  -18.8230   26.7520   11.0070 C   0  0  0  0  0  0  0  0  0  0  0  0
  -19.0430   25.6340   11.8340 C   0  0  0  0  0  3  0  0  0  0  0  0
  -18.7880   24.3310   11.3980 C   0  0  0  0  0  3  0  0  0  0  0  0
  -18.2870   24.0830   10.1150 C   0  0  0  0  0  0  0  0  0  0  0  0
  -18.0260   25.1760    9.2900 C   0  0  0  0  0  3  0  0  0  0  0  0
  -18.2820   26.4810    9.7320 C   0  0  0  0  0  3  0  0  0  0  0  0
  -19.1940   28.2140   11.4650 C   0  0  2  0  0  0  0  0  0  0  0  0
  -19.7530   29.2160   10.4150 C   0  0  0  0  0  2  0  0  0  0  0  0
  -19.0290   30.3600   11.2050 C   0  0  1  0  0  0  0  0  0  0  0  0
  -18.0440   29.2400   11.6910 C   0  0  0  0  0  2  0  0  0  0  0  0
  -20.0890   28.1220   12.6430 N   0  0  0  0  0  4  0  0  0  0  0  0
  -19.6410   27.6470   13.4340 H   0  0  0  0  0  0  0  0  0  0  0  0
  -20.9560   27.6180   12.4260 H   0  0  0  0  0  0  0  0  0  0  0  0
  -20.3560   29.0770   12.9560 H   0  0  0  0  0  0  0  0  0  0  0  0
  -18.4920   31.4970   10.3560 C   0  0  0  0  0  3  0  0  0  0  0  0
  -18.2590   32.8880   10.8790 C   0  0  0  0  0  2  0  0  0  0  0  0
  -17.0950   32.0500   10.4240 C   0  0  0  0  0  2  0  0  0  0  0  0
  -19.8430   30.8320   12.3200 O   0  0  0  0  0  0  0  0  0  0  0  0
  -19.4990   31.7300   12.5120 H   0  0  0  0  0  0  0  0  0  0  0  0
  1  5  2  0  0  0  0
  1 24  1  0  0  0  0
  2  1  1  0  0  0  0
  3  2  2  0  0  0  0
  3  4  1  0  0  0  0
  4  5  1  0  0  0  0
  5 15  1  0  0  0  0
  6  4  1  0  0  0  0
  7  6  1  0  0  0  0
  8  7  1  0  0  0  0
  9  8  2  0  0  0  0
 10  9  1  0  0  0  0
 11 10  2  0  0  0  0
 11 12  1  0  0  0  0
 12 14  2  0  0  0  0
 13 12  1  0  0  0  0
 14  8  1  0  0  0  0
 14  3  1  0  0  0  0
 15 20  2  0  0  0  0
 15 16  1  0  0  0  0
 16 17  2  0  0  0  0
 18 17  1  0  0  0  0
 19 18  2  0  0  0  0
 20 19  1  0  0  0  0
 21 27  1  0  0  0  0
 21 22  1  0  0  0  0
 23 22  2  0  0  0  0
 24 23  1  0  0  0  0
 25 26  1  0  0  0  0
 25 24  2  0  0  0  0
 26 21  2  0  0  0  0
 27 30  1  0  0  0  0
 27 31  1  1  0  0  0
 28 29  1  0  0  0  0
 28 27  1  0  0  0  0
 29 30  1  0  0  0  0
 29 38  1  1  0  0  0
 31 34  1  0  0  0  0
 31 32  1  0  0  0  0
 33 31  1  0  0  0  0
 35 37  1  0  0  0  0
 35 36  1  0  0  0  0
 35 29  1  0  0  0  0
 37 36  1  0  0  0  0
 38 39  1  0  0  0  0
M  END
>  <minimizedAffinity>
-10.7029495

$$$$
