
 OpenBabel11232420443D

 39 45  0  0  1  0  0  0  0  0999 V2000
  -19.2230   20.5380   10.4520 C   0  0  0  0  0  0  0  0  0  0  0  0
  -20.0120   20.0660   11.4800 N   0  0  0  0  0  0  0  0  0  0  0  0
  -20.2070   18.7910   11.2400 C   0  0  0  0  0  0  0  0  0  0  0  0
  -19.5620   18.4240   10.0890 N   0  0  0  0  0  0  0  0  0  0  0  0
  -18.9030   19.5150    9.5680 C   0  0  0  0  0  0  0  0  0  0  0  0
  -19.5240   17.0410    9.6620 C   0  0  0  0  0  2  0  0  0  0  0  0
  -20.7110   16.3190   10.0460 O   0  0  0  0  0  0  0  0  0  0  0  0
  -21.1910   16.5760   11.3080 C   0  0  0  0  0  0  0  0  0  0  0  0
  -21.9720   15.5730   11.8840 C   0  0  0  0  0  3  0  0  0  0  0  0
  -22.5210   15.7640   13.1480 C   0  0  0  0  0  3  0  0  0  0  0  0
  -22.2980   16.9620   13.8290 C   0  0  0  0  0  3  0  0  0  0  0  0
  -21.5320   17.9800   13.2450 C   0  0  0  0  0  0  0  0  0  0  0  0
  -21.3130   19.4200   14.1780 Cl  0  0  0  0  0  0  0  0  0  0  0  0
  -20.9770   17.7980   11.9700 C   0  0  0  0  0  0  0  0  0  0  0  0
  -18.0420   19.4600    8.3940 C   0  0  0  0  0  0  0  0  0  0  0  0
  -17.0110   18.5160    8.3140 C   0  0  0  0  0  3  0  0  0  0  0  0
  -16.1890   18.4680    7.1860 C   0  0  0  0  0  3  0  0  0  0  0  0
  -16.3940   19.3620    6.1350 C   0  0  0  0  0  3  0  0  0  0  0  0
  -17.4220   20.3010    6.2080 C   0  0  0  0  0  3  0  0  0  0  0  0
  -18.2450   20.3500    7.3340 C   0  0  0  0  0  3  0  0  0  0  0  0
  -18.0260   24.6820   10.5730 C   0  0  0  0  0  0  0  0  0  0  0  0
  -17.1210   23.6250   10.7910 C   0  0  0  0  0  3  0  0  0  0  0  0
  -17.5180   22.2860   10.7150 C   0  0  0  0  0  3  0  0  0  0  0  0
  -18.8370   21.9400   10.4060 C   0  0  0  0  0  0  0  0  0  0  0  0
  -19.7430   22.9680   10.1490 C   0  0  0  0  0  3  0  0  0  0  0  0
  -19.3410   24.3080   10.2240 C   0  0  0  0  0  3  0  0  0  0  0  0
  -17.6020   26.1910   10.7460 C   0  0  2  0  0  0  0  0  0  0  0  0
  -18.2630   27.0380   11.8690 C   0  0  0  0  0  2  0  0  0  0  0  0
  -18.1430   28.2820   10.9230 C   0  0  1  0  0  0  0  0  0  0  0  0
  -18.1710   27.2440    9.7480 C   0  0  0  0  0  2  0  0  0  0  0  0
  -16.1230   26.2550   10.8300 N   0  0  0  0  0  4  0  0  0  0  0  0
  -15.6710   25.8940    9.9830 H   0  0  0  0  0  0  0  0  0  0  0  0
  -15.7630   25.7210   11.6290 H   0  0  0  0  0  0  0  0  0  0  0  0
  -15.8230   27.2420   10.9550 H   0  0  0  0  0  0  0  0  0  0  0  0
  -19.2660   29.2970   11.0380 C   0  0  0  0  0  3  0  0  0  0  0  0
  -19.0910   30.7660   10.7680 C   0  0  0  0  0  2  0  0  0  0  0  0
  -19.9810   29.9390    9.8810 C   0  0  0  0  0  2  0  0  0  0  0  0
  -16.8240   28.8970   11.0220 O   0  0  0  0  0  0  0  0  0  0  0  0
  -16.9560   29.8150   10.7020 H   0  0  0  0  0  0  0  0  0  0  0  0
  1  2  1  0  0  0  0
  3  2  2  0  0  0  0
  3 14  1  0  0  0  0
  4  3  1  0  0  0  0
  5  4  1  0  0  0  0
  5  1  2  0  0  0  0
  6  7  1  0  0  0  0
  6  4  1  0  0  0  0
  7  8  1  0  0  0  0
  8  9  2  0  0  0  0
  8 14  1  0  0  0  0
  9 10  1  0  0  0  0
 10 11  2  0  0  0  0
 12 11  1  0  0  0  0
 12 13  1  0  0  0  0
 14 12  2  0  0  0  0
 15  5  1  0  0  0  0
 16 15  1  0  0  0  0
 17 16  2  0  0  0  0
 18 19  2  0  0  0  0
 18 17  1  0  0  0  0
 19 20  1  0  0  0  0
 20 15  2  0  0  0  0
 21 27  1  0  0  0  0
 21 22  1  0  0  0  0
 23 22  2  0  0  0  0
 24  1  1  0  0  0  0
 24 23  1  0  0  0  0
 25 26  1  0  0  0  0
 25 24  2  0  0  0  0
 26 21  2  0  0  0  0
 27 31  1  1  0  0  0
 27 28  1  0  0  0  0
 29 38  1  1  0  0  0
 29 35  1  0  0  0  0
 29 28  1  0  0  0  0
 30 27  1  0  0  0  0
 30 29  1  0  0  0  0
 31 34  1  0  0  0  0
 31 33  1  0  0  0  0
 32 31  1  0  0  0  0
 36 35  1  0  0  0  0
 37 36  1  0  0  0  0
 37 35  1  0  0  0  0
 39 38  1  0  0  0  0
M  END
>  <minimizedAffinity>
-12.3582411

$$$$
