
 OpenBabel11232419533D

 36 40  0  0  1  0  0  0  0  0999 V2000
    1.6740    6.1030   -7.0230 C   0  0  0  0  0  0  0  0  0  0  0  0
    0.6930    6.7580   -6.3140 C   0  0  0  0  0  3  0  0  0  0  0  0
   -0.4860    6.1490   -6.6680 N   0  0  0  0  0  0  0  0  0  0  0  0
   -0.1800    5.0940   -7.5020 C   0  0  0  0  0  0  0  0  0  0  0  0
    1.1040    5.1200   -7.7920 N   0  0  0  0  0  0  0  0  0  0  0  0
    5.6470    8.6810   -5.3330 C   0  0  0  0  0  1  0  0  0  0  0  0
    5.0450    7.6270   -6.2130 C   0  0  0  0  0  0  0  0  0  0  0  0
    3.6600    7.3920   -6.2170 C   0  0  0  0  0  3  0  0  0  0  0  0
    3.1030    6.3720   -7.0060 C   0  0  0  0  0  0  0  0  0  0  0  0
    3.9590    5.5740   -7.7810 C   0  0  0  0  0  3  0  0  0  0  0  0
    5.3380    5.7940   -7.7760 C   0  0  0  0  0  3  0  0  0  0  0  0
    5.8680    6.8110   -6.9920 C   0  0  0  0  0  0  0  0  0  0  0  0
    7.1940    7.0000   -6.9870 F   0  0  0  0  0  0  0  0  0  0  0  0
   -1.1620    4.0740   -8.0200 C   0  0  2  0  0  3  0  0  0  0  0  0
   -2.5360    4.7100   -8.2780 C   0  0  0  0  0  2  0  0  0  0  0  0
   -3.3500    4.8920   -6.9960 C   0  0  0  0  0  2  0  0  0  0  0  0
   -3.4050    3.6500   -6.2310 N   0  0  0  0  0  0  0  0  0  0  0  0
   -2.1130    3.0870   -5.8480 C   0  0  0  0  0  2  0  0  0  0  0  0
   -1.2630    2.8440   -7.0990 C   0  0  0  0  0  2  0  0  0  0  0  0
   -4.4470    2.7630   -6.4830 C   0  0  0  0  0  0  0  0  0  0  0  0
   -4.2900    1.9140   -7.5210 N   0  0  0  0  0  0  0  0  0  0  0  0
   -5.2770    1.0370   -7.7480 C   0  0  0  0  0  3  0  0  0  0  0  0
   -6.4060    0.9150   -7.0450 N   0  0  0  0  0  0  0  0  0  0  0  0
   -6.5720    1.7870   -6.0410 C   0  0  0  0  0  0  0  0  0  0  0  0
   -7.7440    1.6240   -5.3200 N   0  0  0  0  0  0  0  0  0  0  0  0
   -5.6110    2.7370   -5.7090 C   0  0  0  0  0  0  0  0  0  0  0  0
   -5.9590    4.0050   -4.3310 Br  0  0  0  0  0  0  0  0  0  0  0  0
   -8.3500    0.9030   -5.6890 H   0  0  0  0  0  0  0  0  0  0  0  0
   -8.1790    2.4540   -4.9420 H   0  0  0  0  0  0  0  0  0  0  0  0
   -1.7870    6.5650   -6.1930 C   0  0  0  0  0  2  0  0  0  0  0  0
   -1.8160    7.0770   -4.7390 C   0  0  0  0  0  2  0  0  0  0  0  0
   -1.3410    8.4490   -4.3970 N   0  0  0  0  0  4  0  0  0  0  0  0
   -2.2860    9.2960   -3.6470 C   0  0  0  0  0  2  0  0  0  0  0  0
   -1.0830    9.8200   -2.8470 C   0  0  0  0  0  2  0  0  0  0  0  0
   -0.3560    8.5480   -3.3100 C   0  0  0  0  0  2  0  0  0  0  0  0
   -1.0150    8.9350   -5.2470 H   0  0  0  0  0  0  0  0  0  0  0  0
  1  9  1  0  0  0  0
  1  2  2  0  0  0  0
  3  2  1  0  0  0  0
  3 30  1  0  0  0  0
  4  3  1  0  0  0  0
  5  4  2  0  0  0  0
  5  1  1  0  0  0  0
  7  6  1  0  0  0  0
  8  7  1  0  0  0  0
  9  8  2  0  0  0  0
 10 11  2  0  0  0  0
 10  9  1  0  0  0  0
 11 12  1  0  0  0  0
 12 13  1  0  0  0  0
 12  7  2  0  0  0  0
 14  4  1  1  0  0  0
 14 19  1  0  0  0  0
 15 14  1  0  0  0  0
 15 16  1  0  0  0  0
 16 17  1  0  0  0  0
 17 18  1  0  0  0  0
 19 18  1  0  0  0  0
 20 17  1  0  0  0  0
 20 26  1  0  0  0  0
 21 20  2  0  0  0  0
 22 21  1  0  0  0  0
 22 23  2  0  0  0  0
 23 24  1  0  0  0  0
 24 26  2  0  0  0  0
 24 25  1  0  0  0  0
 25 29  1  0  0  0  0
 26 27  1  0  0  0  0
 28 25  1  0  0  0  0
 30 31  1  0  0  0  0
 31 32  1  0  0  0  0
 32 33  1  0  0  0  0
 32 35  1  0  0  0  0
 33 34  1  0  0  0  0
 35 34  1  0  0  0  0
 36 32  1  0  0  0  0
M  END
>  <minimizedAffinity>
-8.9638586

$$$$
