
 OpenBabel11232419533D

 36 40  0  0  1  0  0  0  0  0999 V2000
    1.2330    5.5640   -7.4620 C   0  0  0  0  0  0  0  0  0  0  0  0
    0.7900    6.4590   -6.5160 C   0  0  0  0  0  3  0  0  0  0  0  0
   -0.5780    6.4750   -6.6360 N   0  0  0  0  0  0  0  0  0  0  0  0
   -0.9280    5.5310   -7.5780 C   0  0  0  0  0  0  0  0  0  0  0  0
    0.1590    5.0480   -8.1430 N   0  0  0  0  0  0  0  0  0  0  0  0
    6.1720    6.4950   -7.2870 C   0  0  0  0  0  1  0  0  0  0  0  0
    5.0130    5.6330   -7.6890 C   0  0  0  0  0  0  0  0  0  0  0  0
    3.6920    6.0210   -7.4110 C   0  0  0  0  0  3  0  0  0  0  0  0
    2.6100    5.1890   -7.7450 C   0  0  0  0  0  0  0  0  0  0  0  0
    2.8710    3.9500   -8.3480 C   0  0  0  0  0  3  0  0  0  0  0  0
    4.1820    3.5510   -8.6200 C   0  0  0  0  0  3  0  0  0  0  0  0
    5.2380    4.3910   -8.2860 C   0  0  0  0  0  0  0  0  0  0  0  0
    6.4900    3.9880   -8.5400 F   0  0  0  0  0  0  0  0  0  0  0  0
   -2.3360    5.1200   -7.9260 C   0  0  2  0  0  3  0  0  0  0  0  0
   -3.2700    5.2670   -6.7140 C   0  0  0  0  0  2  0  0  0  0  0  0
   -3.1400    4.1070   -5.7270 C   0  0  0  0  0  2  0  0  0  0  0  0
   -3.2530    2.8230   -6.4100 N   0  0  0  0  0  0  0  0  0  0  0  0
   -2.2880    2.5910   -7.4820 C   0  0  0  0  0  2  0  0  0  0  0  0
   -2.3980    3.7040   -8.5280 C   0  0  0  0  0  2  0  0  0  0  0  0
   -4.5160    2.2540   -6.5440 C   0  0  0  0  0  0  0  0  0  0  0  0
   -4.7290    1.4880   -7.6360 N   0  0  0  0  0  0  0  0  0  0  0  0
   -5.9340    0.9130   -7.7530 C   0  0  0  0  0  3  0  0  0  0  0  0
   -6.9490    1.0180   -6.8920 N   0  0  0  0  0  0  0  0  0  0  0  0
   -6.7430    1.8120   -5.8310 C   0  0  0  0  0  0  0  0  0  0  0  0
   -7.8080    1.8870   -4.9480 N   0  0  0  0  0  0  0  0  0  0  0  0
   -5.5300    2.4550   -5.6030 C   0  0  0  0  0  0  0  0  0  0  0  0
   -5.3420    3.6420   -4.1260 Br  0  0  0  0  0  0  0  0  0  0  0  0
   -8.6260    1.3780   -5.2560 H   0  0  0  0  0  0  0  0  0  0  0  0
   -7.9540    2.7630   -4.4660 H   0  0  0  0  0  0  0  0  0  0  0  0
   -1.4500    7.3310   -5.8610 C   0  0  0  0  0  2  0  0  0  0  0  0
   -1.1250    8.8350   -5.9430 C   0  0  0  0  0  2  0  0  0  0  0  0
   -0.9970    9.6630   -4.7090 N   0  0  0  0  0  4  0  0  0  0  0  0
   -2.1930    9.7420   -3.8520 C   0  0  0  0  0  2  0  0  0  0  0  0
   -1.2510    9.6800   -2.6400 C   0  0  0  0  0  2  0  0  0  0  0  0
   -0.2200    9.0790   -3.6070 C   0  0  0  0  0  2  0  0  0  0  0  0
   -0.6610   10.6090   -4.9490 H   0  0  0  0  0  0  0  0  0  0  0  0
  1  2  2  0  0  0  0
  3  2  1  0  0  0  0
  3 30  1  0  0  0  0
  4  3  1  0  0  0  0
  5  4  2  0  0  0  0
  5  1  1  0  0  0  0
  7  8  1  0  0  0  0
  7  6  1  0  0  0  0
  9  1  1  0  0  0  0
  9  8  2  0  0  0  0
 10  9  1  0  0  0  0
 11 10  2  0  0  0  0
 11 12  1  0  0  0  0
 12  7  2  0  0  0  0
 13 12  1  0  0  0  0
 14  4  1  1  0  0  0
 14 15  1  0  0  0  0
 15 16  1  0  0  0  0
 17 16  1  0  0  0  0
 18 17  1  0  0  0  0
 19 14  1  0  0  0  0
 19 18  1  0  0  0  0
 20 17  1  0  0  0  0
 20 26  1  0  0  0  0
 21 20  2  0  0  0  0
 22 21  1  0  0  0  0
 22 23  2  0  0  0  0
 23 24  1  0  0  0  0
 24 26  2  0  0  0  0
 24 25  1  0  0  0  0
 25 29  1  0  0  0  0
 26 27  1  0  0  0  0
 28 25  1  0  0  0  0
 31 30  1  0  0  0  0
 31 32  1  0  0  0  0
 32 33  1  0  0  0  0
 32 35  1  0  0  0  0
 33 34  1  0  0  0  0
 35 34  1  0  0  0  0
 36 32  1  0  0  0  0
M  END
>  <minimizedAffinity>
-8.98147392

$$$$
