
 OpenBabel11232419533D

 36 40  0  0  1  0  0  0  0  0999 V2000
    2.4030    6.0650   -7.1770 C   0  0  0  0  0  0  0  0  0  0  0  0
    2.4220    7.1430   -6.3230 C   0  0  0  0  0  3  0  0  0  0  0  0
    1.1120    7.3510   -5.9640 N   0  0  0  0  0  0  0  0  0  0  0  0
    0.3570    6.3470   -6.5320 C   0  0  0  0  0  0  0  0  0  0  0  0
    1.1120    5.6270   -7.3350 N   0  0  0  0  0  0  0  0  0  0  0  0
    4.3760    2.4690  -10.0870 C   0  0  0  0  0  1  0  0  0  0  0  0
    4.5220    3.6960   -9.2380 C   0  0  0  0  0  0  0  0  0  0  0  0
    3.4100    4.2690   -8.5990 C   0  0  0  0  0  3  0  0  0  0  0  0
    3.5390    5.4470   -7.8430 C   0  0  0  0  0  0  0  0  0  0  0  0
    4.8000    6.0560   -7.7520 C   0  0  0  0  0  3  0  0  0  0  0  0
    5.9090    5.4980   -8.3920 C   0  0  0  0  0  3  0  0  0  0  0  0
    5.7610    4.3310   -9.1300 C   0  0  0  0  0  0  0  0  0  0  0  0
    6.8310    3.8160   -9.7500 F   0  0  0  0  0  0  0  0  0  0  0  0
   -1.1120    6.1110   -6.2870 C   0  0  2  0  0  3  0  0  0  0  0  0
   -1.3280    5.0890   -5.1600 C   0  0  0  0  0  2  0  0  0  0  0  0
   -1.1410    3.6460   -5.6320 C   0  0  0  0  0  2  0  0  0  0  0  0
   -1.9280    3.3810   -6.8320 N   0  0  0  0  0  0  0  0  0  0  0  0
   -1.6510    4.2500   -7.9730 C   0  0  0  0  0  2  0  0  0  0  0  0
   -1.8600    5.7130   -7.5730 C   0  0  0  0  0  2  0  0  0  0  0  0
   -3.2300    2.9110   -6.6790 C   0  0  0  0  0  0  0  0  0  0  0  0
   -3.9360    3.3950   -5.6350 N   0  0  0  0  0  0  0  0  0  0  0  0
   -5.1990    2.9690   -5.5030 C   0  0  0  0  0  3  0  0  0  0  0  0
   -5.8340    2.1120   -6.3060 N   0  0  0  0  0  0  0  0  0  0  0  0
   -5.1140    1.6060   -7.3170 C   0  0  0  0  0  0  0  0  0  0  0  0
   -5.8050    0.7340   -8.1420 N   0  0  0  0  0  0  0  0  0  0  0  0
   -3.7950    1.9810   -7.5560 C   0  0  0  0  0  0  0  0  0  0  0  0
   -2.8040    1.1480   -8.9530 Br  0  0  0  0  0  0  0  0  0  0  0  0
   -6.7500    0.5460   -7.8330 H   0  0  0  0  0  0  0  0  0  0  0  0
   -5.2870   -0.0300   -8.5540 H   0  0  0  0  0  0  0  0  0  0  0  0
    0.6680    8.4320   -5.1120 C   0  0  0  0  0  2  0  0  0  0  0  0
    1.3630    8.5050   -3.7380 C   0  0  0  0  0  2  0  0  0  0  0  0
    2.3580    9.5740   -3.4350 N   0  0  0  0  0  4  0  0  0  0  0  0
    3.2230    9.3440   -2.2630 C   0  0  0  0  0  2  0  0  0  0  0  0
    4.3740    9.9650   -3.0700 C   0  0  0  0  0  2  0  0  0  0  0  0
    3.5330    9.6420   -4.3150 C   0  0  0  0  0  2  0  0  0  0  0  0
    1.8870   10.4890   -3.3630 H   0  0  0  0  0  0  0  0  0  0  0  0
  1  2  2  0  0  0  0
  2  3  1  0  0  0  0
  3 30  1  0  0  0  0
  4  3  1  0  0  0  0
  5  1  1  0  0  0  0
  5  4  2  0  0  0  0
  6  7  1  0  0  0  0
  7 12  2  0  0  0  0
  7  8  1  0  0  0  0
  8  9  2  0  0  0  0
  9 10  1  0  0  0  0
  9  1  1  0  0  0  0
 11 10  2  0  0  0  0
 12 11  1  0  0  0  0
 13 12  1  0  0  0  0
 14  4  1  6  0  0  0
 14 15  1  0  0  0  0
 16 15  1  0  0  0  0
 17 20  1  0  0  0  0
 17 16  1  0  0  0  0
 18 19  1  0  0  0  0
 18 17  1  0  0  0  0
 19 14  1  0  0  0  0
 20 21  1  0  0  0  0
 21 22  2  0  0  0  0
 23 22  1  0  0  0  0
 24 23  2  0  0  0  0
 25 28  1  0  0  0  0
 25 24  1  0  0  0  0
 26 24  1  0  0  0  0
 26 20  2  0  0  0  0
 27 26  1  0  0  0  0
 29 25  1  0  0  0  0
 30 31  1  0  0  0  0
 31 32  1  0  0  0  0
 32 36  1  0  0  0  0
 32 33  1  0  0  0  0
 34 33  1  0  0  0  0
 35 32  1  0  0  0  0
 35 34  1  0  0  0  0
M  END
>  <minimizedAffinity>
-9.6677494

$$$$
