
 OpenBabel11232419533D

 36 40  0  0  1  0  0  0  0  0999 V2000
    1.6400    6.0770   -6.8690 C   0  0  0  0  0  0  0  0  0  0  0  0
    2.4320    5.4130   -7.7760 C   0  0  0  0  0  3  0  0  0  0  0  0
    1.6150    4.4800   -8.3660 N   0  0  0  0  0  0  0  0  0  0  0  0
    0.3410    4.6650   -7.8700 C   0  0  0  0  0  0  0  0  0  0  0  0
    0.3690    5.5590   -6.9050 N   0  0  0  0  0  0  0  0  0  0  0  0
    5.1270    9.1580   -4.9610 C   0  0  0  0  0  1  0  0  0  0  0  0
    3.7160    8.6530   -5.0260 C   0  0  0  0  0  0  0  0  0  0  0  0
    3.3640    7.6000   -5.8860 C   0  0  0  0  0  3  0  0  0  0  0  0
    2.0320    7.1600   -5.9810 C   0  0  0  0  0  0  0  0  0  0  0  0
    1.0520    7.8050   -5.2120 C   0  0  0  0  0  3  0  0  0  0  0  0
    1.3920    8.8590   -4.3610 C   0  0  0  0  0  3  0  0  0  0  0  0
    2.7150    9.2750   -4.2780 C   0  0  0  0  0  0  0  0  0  0  0  0
    3.0220   10.2970   -3.4680 F   0  0  0  0  0  0  0  0  0  0  0  0
   -0.8960    3.9460   -8.3450 C   0  0  2  0  0  3  0  0  0  0  0  0
   -2.1460    4.8220   -8.1700 C   0  0  0  0  0  2  0  0  0  0  0  0
   -2.6630    4.8290   -6.7300 C   0  0  0  0  0  2  0  0  0  0  0  0
   -2.8150    3.4700   -6.2230 N   0  0  0  0  0  0  0  0  0  0  0  0
   -1.6080    2.6480   -6.2460 C   0  0  0  0  0  2  0  0  0  0  0  0
   -1.0620    2.5690   -7.6750 C   0  0  0  0  0  2  0  0  0  0  0  0
   -4.0370    2.8280   -6.4050 C   0  0  0  0  0  0  0  0  0  0  0  0
   -4.1430    2.0070   -7.4720 N   0  0  0  0  0  0  0  0  0  0  0  0
   -5.3070    1.3630   -7.6330 C   0  0  0  0  0  3  0  0  0  0  0  0
   -6.3770    1.4500   -6.8400 N   0  0  0  0  0  0  0  0  0  0  0  0
   -6.2780    2.2980   -5.8060 C   0  0  0  0  0  0  0  0  0  0  0  0
   -7.3970    2.3530   -4.9920 N   0  0  0  0  0  0  0  0  0  0  0  0
   -5.1160    3.0140   -5.5360 C   0  0  0  0  0  0  0  0  0  0  0  0
   -5.0810    4.2720   -4.1060 Br  0  0  0  0  0  0  0  0  0  0  0  0
   -8.1690    1.7880   -5.3250 H   0  0  0  0  0  0  0  0  0  0  0  0
   -7.6180    3.2400   -4.5600 H   0  0  0  0  0  0  0  0  0  0  0  0
    2.0610    3.5190   -9.3500 C   0  0  0  0  0  2  0  0  0  0  0  0
    3.4950    3.7390   -9.8710 C   0  0  0  0  0  2  0  0  0  0  0  0
    4.6210    2.8750   -9.4150 N   0  0  0  0  0  4  0  0  0  0  0  0
    5.5240    3.4610   -8.4090 C   0  0  0  0  0  2  0  0  0  0  0  0
    5.5810    2.0770   -7.7440 C   0  0  0  0  0  2  0  0  0  0  0  0
    4.2740    1.7800   -8.4960 C   0  0  0  0  0  2  0  0  0  0  0  0
    5.1570    2.5310  -10.2260 H   0  0  0  0  0  0  0  0  0  0  0  0
  1  9  1  0  0  0  0
  2  1  2  0  0  0  0
  3  4  1  0  0  0  0
  3  2  1  0  0  0  0
  4  5  2  0  0  0  0
  5  1  1  0  0  0  0
  7  6  1  0  0  0  0
  7 12  1  0  0  0  0
  8  7  2  0  0  0  0
  9  8  1  0  0  0  0
  9 10  2  0  0  0  0
 10 11  1  0  0  0  0
 11 12  2  0  0  0  0
 12 13  1  0  0  0  0
 14 15  1  0  0  0  0
 14  4  1  1  0  0  0
 14 19  1  0  0  0  0
 15 16  1  0  0  0  0
 16 17  1  0  0  0  0
 18 17  1  0  0  0  0
 19 18  1  0  0  0  0
 20 17  1  0  0  0  0
 20 26  1  0  0  0  0
 21 20  2  0  0  0  0
 22 21  1  0  0  0  0
 22 23  2  0  0  0  0
 23 24  1  0  0  0  0
 24 26  2  0  0  0  0
 24 25  1  0  0  0  0
 25 29  1  0  0  0  0
 26 27  1  0  0  0  0
 28 25  1  0  0  0  0
 30  3  1  0  0  0  0
 31 32  1  0  0  0  0
 31 30  1  0  0  0  0
 32 35  1  0  0  0  0
 32 33  1  0  0  0  0
 33 34  1  0  0  0  0
 35 34  1  0  0  0  0
 36 32  1  0  0  0  0
M  END
>  <minimizedAffinity>
-9.97109032

$$$$

 OpenBabel11232419533D

 36 40  0  0  1  0  0  0  0  0999 V2000
    2.6440    5.7250   -7.3880 C   0  0  0  0  0  0  0  0  0  0  0  0
    2.6920    6.8820   -6.6450 C   0  0  0  0  0  3  0  0  0  0  0  0
    1.3860    7.1790   -6.3410 N   0  0  0  0  0  0  0  0  0  0  0  0
    0.6000    6.1550   -6.8250 C   0  0  0  0  0  0  0  0  0  0  0  0
    1.3390    5.3280   -7.5330 N   0  0  0  0  0  0  0  0  0  0  0  0
    4.7650    1.4510   -8.9770 C   0  0  0  0  0  1  0  0  0  0  0  0
    4.8220    2.9270   -8.7190 C   0  0  0  0  0  0  0  0  0  0  0  0
    3.7280    3.6060   -8.1570 C   0  0  0  0  0  3  0  0  0  0  0  0
    3.7660    4.9970   -7.9600 C   0  0  0  0  0  0  0  0  0  0  0  0
    4.9120    5.7040   -8.3520 C   0  0  0  0  0  3  0  0  0  0  0  0
    6.0010    5.0390   -8.9210 C   0  0  0  0  0  3  0  0  0  0  0  0
    5.9450    3.6620   -9.1020 C   0  0  0  0  0  0  0  0  0  0  0  0
    6.9920    3.0410   -9.6610 F   0  0  0  0  0  0  0  0  0  0  0  0
   -0.8840    6.0070   -6.5940 C   0  0  2  0  0  3  0  0  0  0  0  0
   -1.1670    5.1270   -5.3670 C   0  0  0  0  0  2  0  0  0  0  0  0
   -1.0300    3.6340   -5.6680 C   0  0  0  0  0  2  0  0  0  0  0  0
   -1.8010    3.2670   -6.8520 N   0  0  0  0  0  0  0  0  0  0  0  0
   -1.4620    3.9890   -8.0750 C   0  0  0  0  0  2  0  0  0  0  0  0
   -1.6180    5.4960   -7.8480 C   0  0  0  0  0  2  0  0  0  0  0  0
   -3.1240    2.8680   -6.6830 C   0  0  0  0  0  0  0  0  0  0  0  0
   -3.7930    3.3970   -5.6350 N   0  0  0  0  0  0  0  0  0  0  0  0
   -5.0750    3.0400   -5.4870 C   0  0  0  0  0  3  0  0  0  0  0  0
   -5.7640    2.2130   -6.2770 N   0  0  0  0  0  0  0  0  0  0  0  0
   -5.0820    1.6620   -7.2920 C   0  0  0  0  0  0  0  0  0  0  0  0
   -5.8290    0.8230   -8.1030 N   0  0  0  0  0  0  0  0  0  0  0  0
   -3.7480    1.9640   -7.5470 C   0  0  0  0  0  0  0  0  0  0  0  0
   -2.8190    1.0700   -8.9480 Br  0  0  0  0  0  0  0  0  0  0  0  0
   -6.7790    0.6890   -7.7830 H   0  0  0  0  0  0  0  0  0  0  0  0
   -5.3560    0.0300   -8.5150 H   0  0  0  0  0  0  0  0  0  0  0  0
    0.9720    8.3580   -5.6110 C   0  0  0  0  0  2  0  0  0  0  0  0
    0.5350    8.1020   -4.1550 C   0  0  0  0  0  2  0  0  0  0  0  0
   -0.8430    8.4390   -3.6960 N   0  0  0  0  0  4  0  0  0  0  0  0
   -0.9600    9.5840   -2.7740 C   0  0  0  0  0  2  0  0  0  0  0  0
   -2.2480    9.9700   -3.5180 C   0  0  0  0  0  2  0  0  0  0  0  0
   -1.7130    9.1100   -4.6730 C   0  0  0  0  0  2  0  0  0  0  0  0
   -1.2990    7.6040   -3.2950 H   0  0  0  0  0  0  0  0  0  0  0  0
  1  2  2  0  0  0  0
  2  3  1  0  0  0  0
  3 30  1  0  0  0  0
  4  3  1  0  0  0  0
  5  1  1  0  0  0  0
  5  4  2  0  0  0  0
  6  7  1  0  0  0  0
  7  8  1  0  0  0  0
  8  9  2  0  0  0  0
  9  1  1  0  0  0  0
 10  9  1  0  0  0  0
 11 10  2  0  0  0  0
 12 11  1  0  0  0  0
 12  7  2  0  0  0  0
 13 12  1  0  0  0  0
 14  4  1  6  0  0  0
 14 15  1  0  0  0  0
 16 15  1  0  0  0  0
 17 20  1  0  0  0  0
 17 16  1  0  0  0  0
 18 19  1  0  0  0  0
 18 17  1  0  0  0  0
 19 14  1  0  0  0  0
 20 21  1  0  0  0  0
 21 22  2  0  0  0  0
 23 22  1  0  0  0  0
 24 23  2  0  0  0  0
 25 28  1  0  0  0  0
 25 24  1  0  0  0  0
 26 24  1  0  0  0  0
 26 20  2  0  0  0  0
 27 26  1  0  0  0  0
 29 25  1  0  0  0  0
 30 31  1  0  0  0  0
 31 32  1  0  0  0  0
 32 36  1  0  0  0  0
 32 33  1  0  0  0  0
 34 33  1  0  0  0  0
 35 32  1  0  0  0  0
 35 34  1  0  0  0  0
M  END
>  <minimizedAffinity>
-9.86203384

$$$$

 OpenBabel11232419533D

 36 40  0  0  1  0  0  0  0  0999 V2000
    2.4030    6.0650   -7.1770 C   0  0  0  0  0  0  0  0  0  0  0  0
    2.4220    7.1430   -6.3230 C   0  0  0  0  0  3  0  0  0  0  0  0
    1.1120    7.3510   -5.9640 N   0  0  0  0  0  0  0  0  0  0  0  0
    0.3570    6.3470   -6.5320 C   0  0  0  0  0  0  0  0  0  0  0  0
    1.1120    5.6270   -7.3350 N   0  0  0  0  0  0  0  0  0  0  0  0
    4.3760    2.4690  -10.0870 C   0  0  0  0  0  1  0  0  0  0  0  0
    4.5220    3.6960   -9.2380 C   0  0  0  0  0  0  0  0  0  0  0  0
    3.4100    4.2690   -8.5990 C   0  0  0  0  0  3  0  0  0  0  0  0
    3.5390    5.4470   -7.8430 C   0  0  0  0  0  0  0  0  0  0  0  0
    4.8000    6.0560   -7.7520 C   0  0  0  0  0  3  0  0  0  0  0  0
    5.9090    5.4980   -8.3920 C   0  0  0  0  0  3  0  0  0  0  0  0
    5.7610    4.3310   -9.1300 C   0  0  0  0  0  0  0  0  0  0  0  0
    6.8310    3.8160   -9.7500 F   0  0  0  0  0  0  0  0  0  0  0  0
   -1.1120    6.1110   -6.2870 C   0  0  2  0  0  3  0  0  0  0  0  0
   -1.3280    5.0890   -5.1600 C   0  0  0  0  0  2  0  0  0  0  0  0
   -1.1410    3.6460   -5.6320 C   0  0  0  0  0  2  0  0  0  0  0  0
   -1.9280    3.3810   -6.8320 N   0  0  0  0  0  0  0  0  0  0  0  0
   -1.6510    4.2500   -7.9730 C   0  0  0  0  0  2  0  0  0  0  0  0
   -1.8600    5.7130   -7.5730 C   0  0  0  0  0  2  0  0  0  0  0  0
   -3.2300    2.9110   -6.6790 C   0  0  0  0  0  0  0  0  0  0  0  0
   -3.9360    3.3950   -5.6350 N   0  0  0  0  0  0  0  0  0  0  0  0
   -5.1990    2.9690   -5.5030 C   0  0  0  0  0  3  0  0  0  0  0  0
   -5.8340    2.1120   -6.3060 N   0  0  0  0  0  0  0  0  0  0  0  0
   -5.1140    1.6060   -7.3170 C   0  0  0  0  0  0  0  0  0  0  0  0
   -5.8050    0.7340   -8.1420 N   0  0  0  0  0  0  0  0  0  0  0  0
   -3.7950    1.9810   -7.5560 C   0  0  0  0  0  0  0  0  0  0  0  0
   -2.8040    1.1480   -8.9530 Br  0  0  0  0  0  0  0  0  0  0  0  0
   -6.7500    0.5460   -7.8330 H   0  0  0  0  0  0  0  0  0  0  0  0
   -5.2870   -0.0300   -8.5540 H   0  0  0  0  0  0  0  0  0  0  0  0
    0.6680    8.4320   -5.1120 C   0  0  0  0  0  2  0  0  0  0  0  0
    1.3630    8.5050   -3.7380 C   0  0  0  0  0  2  0  0  0  0  0  0
    2.3580    9.5740   -3.4350 N   0  0  0  0  0  4  0  0  0  0  0  0
    3.2230    9.3440   -2.2630 C   0  0  0  0  0  2  0  0  0  0  0  0
    4.3740    9.9650   -3.0700 C   0  0  0  0  0  2  0  0  0  0  0  0
    3.5330    9.6420   -4.3150 C   0  0  0  0  0  2  0  0  0  0  0  0
    1.8870   10.4890   -3.3630 H   0  0  0  0  0  0  0  0  0  0  0  0
  1  2  2  0  0  0  0
  2  3  1  0  0  0  0
  3 30  1  0  0  0  0
  4  3  1  0  0  0  0
  5  1  1  0  0  0  0
  5  4  2  0  0  0  0
  6  7  1  0  0  0  0
  7 12  2  0  0  0  0
  7  8  1  0  0  0  0
  8  9  2  0  0  0  0
  9 10  1  0  0  0  0
  9  1  1  0  0  0  0
 11 10  2  0  0  0  0
 12 11  1  0  0  0  0
 13 12  1  0  0  0  0
 14  4  1  6  0  0  0
 14 15  1  0  0  0  0
 16 15  1  0  0  0  0
 17 20  1  0  0  0  0
 17 16  1  0  0  0  0
 18 19  1  0  0  0  0
 18 17  1  0  0  0  0
 19 14  1  0  0  0  0
 20 21  1  0  0  0  0
 21 22  2  0  0  0  0
 23 22  1  0  0  0  0
 24 23  2  0  0  0  0
 25 28  1  0  0  0  0
 25 24  1  0  0  0  0
 26 24  1  0  0  0  0
 26 20  2  0  0  0  0
 27 26  1  0  0  0  0
 29 25  1  0  0  0  0
 30 31  1  0  0  0  0
 31 32  1  0  0  0  0
 32 36  1  0  0  0  0
 32 33  1  0  0  0  0
 34 33  1  0  0  0  0
 35 32  1  0  0  0  0
 35 34  1  0  0  0  0
M  END
>  <minimizedAffinity>
-9.6677494

$$$$

 OpenBabel11232419533D

 36 40  0  0  1  0  0  0  0  0999 V2000
    1.2330    5.5640   -7.4620 C   0  0  0  0  0  0  0  0  0  0  0  0
    0.7900    6.4590   -6.5160 C   0  0  0  0  0  3  0  0  0  0  0  0
   -0.5780    6.4750   -6.6360 N   0  0  0  0  0  0  0  0  0  0  0  0
   -0.9280    5.5310   -7.5780 C   0  0  0  0  0  0  0  0  0  0  0  0
    0.1590    5.0480   -8.1430 N   0  0  0  0  0  0  0  0  0  0  0  0
    6.1720    6.4950   -7.2870 C   0  0  0  0  0  1  0  0  0  0  0  0
    5.0130    5.6330   -7.6890 C   0  0  0  0  0  0  0  0  0  0  0  0
    3.6920    6.0210   -7.4110 C   0  0  0  0  0  3  0  0  0  0  0  0
    2.6100    5.1890   -7.7450 C   0  0  0  0  0  0  0  0  0  0  0  0
    2.8710    3.9500   -8.3480 C   0  0  0  0  0  3  0  0  0  0  0  0
    4.1820    3.5510   -8.6200 C   0  0  0  0  0  3  0  0  0  0  0  0
    5.2380    4.3910   -8.2860 C   0  0  0  0  0  0  0  0  0  0  0  0
    6.4900    3.9880   -8.5400 F   0  0  0  0  0  0  0  0  0  0  0  0
   -2.3360    5.1200   -7.9260 C   0  0  2  0  0  3  0  0  0  0  0  0
   -3.2700    5.2670   -6.7140 C   0  0  0  0  0  2  0  0  0  0  0  0
   -3.1400    4.1070   -5.7270 C   0  0  0  0  0  2  0  0  0  0  0  0
   -3.2530    2.8230   -6.4100 N   0  0  0  0  0  0  0  0  0  0  0  0
   -2.2880    2.5910   -7.4820 C   0  0  0  0  0  2  0  0  0  0  0  0
   -2.3980    3.7040   -8.5280 C   0  0  0  0  0  2  0  0  0  0  0  0
   -4.5160    2.2540   -6.5440 C   0  0  0  0  0  0  0  0  0  0  0  0
   -4.7290    1.4880   -7.6360 N   0  0  0  0  0  0  0  0  0  0  0  0
   -5.9340    0.9130   -7.7530 C   0  0  0  0  0  3  0  0  0  0  0  0
   -6.9490    1.0180   -6.8920 N   0  0  0  0  0  0  0  0  0  0  0  0
   -6.7430    1.8120   -5.8310 C   0  0  0  0  0  0  0  0  0  0  0  0
   -7.8080    1.8870   -4.9480 N   0  0  0  0  0  0  0  0  0  0  0  0
   -5.5300    2.4550   -5.6030 C   0  0  0  0  0  0  0  0  0  0  0  0
   -5.3420    3.6420   -4.1260 Br  0  0  0  0  0  0  0  0  0  0  0  0
   -8.6260    1.3780   -5.2560 H   0  0  0  0  0  0  0  0  0  0  0  0
   -7.9540    2.7630   -4.4660 H   0  0  0  0  0  0  0  0  0  0  0  0
   -1.4500    7.3310   -5.8610 C   0  0  0  0  0  2  0  0  0  0  0  0
   -1.1250    8.8350   -5.9430 C   0  0  0  0  0  2  0  0  0  0  0  0
   -0.9970    9.6630   -4.7090 N   0  0  0  0  0  4  0  0  0  0  0  0
   -2.1930    9.7420   -3.8520 C   0  0  0  0  0  2  0  0  0  0  0  0
   -1.2510    9.6800   -2.6400 C   0  0  0  0  0  2  0  0  0  0  0  0
   -0.2200    9.0790   -3.6070 C   0  0  0  0  0  2  0  0  0  0  0  0
   -0.6610   10.6090   -4.9490 H   0  0  0  0  0  0  0  0  0  0  0  0
  1  2  2  0  0  0  0
  3  2  1  0  0  0  0
  3 30  1  0  0  0  0
  4  3  1  0  0  0  0
  5  4  2  0  0  0  0
  5  1  1  0  0  0  0
  7  8  1  0  0  0  0
  7  6  1  0  0  0  0
  9  1  1  0  0  0  0
  9  8  2  0  0  0  0
 10  9  1  0  0  0  0
 11 10  2  0  0  0  0
 11 12  1  0  0  0  0
 12  7  2  0  0  0  0
 13 12  1  0  0  0  0
 14  4  1  1  0  0  0
 14 15  1  0  0  0  0
 15 16  1  0  0  0  0
 17 16  1  0  0  0  0
 18 17  1  0  0  0  0
 19 14  1  0  0  0  0
 19 18  1  0  0  0  0
 20 17  1  0  0  0  0
 20 26  1  0  0  0  0
 21 20  2  0  0  0  0
 22 21  1  0  0  0  0
 22 23  2  0  0  0  0
 23 24  1  0  0  0  0
 24 26  2  0  0  0  0
 24 25  1  0  0  0  0
 25 29  1  0  0  0  0
 26 27  1  0  0  0  0
 28 25  1  0  0  0  0
 31 30  1  0  0  0  0
 31 32  1  0  0  0  0
 32 33  1  0  0  0  0
 32 35  1  0  0  0  0
 33 34  1  0  0  0  0
 35 34  1  0  0  0  0
 36 32  1  0  0  0  0
M  END
>  <minimizedAffinity>
-8.98147392

$$$$

 OpenBabel11232419533D

 36 40  0  0  1  0  0  0  0  0999 V2000
    1.6740    6.1030   -7.0230 C   0  0  0  0  0  0  0  0  0  0  0  0
    0.6930    6.7580   -6.3140 C   0  0  0  0  0  3  0  0  0  0  0  0
   -0.4860    6.1490   -6.6680 N   0  0  0  0  0  0  0  0  0  0  0  0
   -0.1800    5.0940   -7.5020 C   0  0  0  0  0  0  0  0  0  0  0  0
    1.1040    5.1200   -7.7920 N   0  0  0  0  0  0  0  0  0  0  0  0
    5.6470    8.6810   -5.3330 C   0  0  0  0  0  1  0  0  0  0  0  0
    5.0450    7.6270   -6.2130 C   0  0  0  0  0  0  0  0  0  0  0  0
    3.6600    7.3920   -6.2170 C   0  0  0  0  0  3  0  0  0  0  0  0
    3.1030    6.3720   -7.0060 C   0  0  0  0  0  0  0  0  0  0  0  0
    3.9590    5.5740   -7.7810 C   0  0  0  0  0  3  0  0  0  0  0  0
    5.3380    5.7940   -7.7760 C   0  0  0  0  0  3  0  0  0  0  0  0
    5.8680    6.8110   -6.9920 C   0  0  0  0  0  0  0  0  0  0  0  0
    7.1940    7.0000   -6.9870 F   0  0  0  0  0  0  0  0  0  0  0  0
   -1.1620    4.0740   -8.0200 C   0  0  2  0  0  3  0  0  0  0  0  0
   -2.5360    4.7100   -8.2780 C   0  0  0  0  0  2  0  0  0  0  0  0
   -3.3500    4.8920   -6.9960 C   0  0  0  0  0  2  0  0  0  0  0  0
   -3.4050    3.6500   -6.2310 N   0  0  0  0  0  0  0  0  0  0  0  0
   -2.1130    3.0870   -5.8480 C   0  0  0  0  0  2  0  0  0  0  0  0
   -1.2630    2.8440   -7.0990 C   0  0  0  0  0  2  0  0  0  0  0  0
   -4.4470    2.7630   -6.4830 C   0  0  0  0  0  0  0  0  0  0  0  0
   -4.2900    1.9140   -7.5210 N   0  0  0  0  0  0  0  0  0  0  0  0
   -5.2770    1.0370   -7.7480 C   0  0  0  0  0  3  0  0  0  0  0  0
   -6.4060    0.9150   -7.0450 N   0  0  0  0  0  0  0  0  0  0  0  0
   -6.5720    1.7870   -6.0410 C   0  0  0  0  0  0  0  0  0  0  0  0
   -7.7440    1.6240   -5.3200 N   0  0  0  0  0  0  0  0  0  0  0  0
   -5.6110    2.7370   -5.7090 C   0  0  0  0  0  0  0  0  0  0  0  0
   -5.9590    4.0050   -4.3310 Br  0  0  0  0  0  0  0  0  0  0  0  0
   -8.3500    0.9030   -5.6890 H   0  0  0  0  0  0  0  0  0  0  0  0
   -8.1790    2.4540   -4.9420 H   0  0  0  0  0  0  0  0  0  0  0  0
   -1.7870    6.5650   -6.1930 C   0  0  0  0  0  2  0  0  0  0  0  0
   -1.8160    7.0770   -4.7390 C   0  0  0  0  0  2  0  0  0  0  0  0
   -1.3410    8.4490   -4.3970 N   0  0  0  0  0  4  0  0  0  0  0  0
   -2.2860    9.2960   -3.6470 C   0  0  0  0  0  2  0  0  0  0  0  0
   -1.0830    9.8200   -2.8470 C   0  0  0  0  0  2  0  0  0  0  0  0
   -0.3560    8.5480   -3.3100 C   0  0  0  0  0  2  0  0  0  0  0  0
   -1.0150    8.9350   -5.2470 H   0  0  0  0  0  0  0  0  0  0  0  0
  1  9  1  0  0  0  0
  1  2  2  0  0  0  0
  3  2  1  0  0  0  0
  3 30  1  0  0  0  0
  4  3  1  0  0  0  0
  5  4  2  0  0  0  0
  5  1  1  0  0  0  0
  7  6  1  0  0  0  0
  8  7  1  0  0  0  0
  9  8  2  0  0  0  0
 10 11  2  0  0  0  0
 10  9  1  0  0  0  0
 11 12  1  0  0  0  0
 12 13  1  0  0  0  0
 12  7  2  0  0  0  0
 14  4  1  1  0  0  0
 14 19  1  0  0  0  0
 15 14  1  0  0  0  0
 15 16  1  0  0  0  0
 16 17  1  0  0  0  0
 17 18  1  0  0  0  0
 19 18  1  0  0  0  0
 20 17  1  0  0  0  0
 20 26  1  0  0  0  0
 21 20  2  0  0  0  0
 22 21  1  0  0  0  0
 22 23  2  0  0  0  0
 23 24  1  0  0  0  0
 24 26  2  0  0  0  0
 24 25  1  0  0  0  0
 25 29  1  0  0  0  0
 26 27  1  0  0  0  0
 28 25  1  0  0  0  0
 30 31  1  0  0  0  0
 31 32  1  0  0  0  0
 32 33  1  0  0  0  0
 32 35  1  0  0  0  0
 33 34  1  0  0  0  0
 35 34  1  0  0  0  0
 36 32  1  0  0  0  0
M  END
>  <minimizedAffinity>
-8.9638586

$$$$

 OpenBabel11232419533D

 36 40  0  0  1  0  0  0  0  0999 V2000
    3.1910    6.3160   -7.4250 C   0  0  0  0  0  0  0  0  0  0  0  0
    1.9440    5.7340   -7.4300 C   0  0  0  0  0  3  0  0  0  0  0  0
    2.0540    4.6340   -8.2450 N   0  0  0  0  0  0  0  0  0  0  0  0
    3.3730    4.5300   -8.6330 C   0  0  0  0  0  0  0  0  0  0  0  0
    4.0390    5.5870   -8.2200 N   0  0  0  0  0  0  0  0  0  0  0  0
    2.9010    9.3990   -3.4620 C   0  0  0  0  0  1  0  0  0  0  0  0
    3.4600    9.0390   -4.8070 C   0  0  0  0  0  0  0  0  0  0  0  0
    3.0410    7.8780   -5.4760 C   0  0  0  0  0  3  0  0  0  0  0  0
    3.6010    7.5170   -6.7140 C   0  0  0  0  0  0  0  0  0  0  0  0
    4.6030    8.3290   -7.2640 C   0  0  0  0  0  3  0  0  0  0  0  0
    5.0330    9.4810   -6.6010 C   0  0  0  0  0  3  0  0  0  0  0  0
    4.4630    9.8230   -5.3810 C   0  0  0  0  0  0  0  0  0  0  0  0
    4.8960   10.9220   -4.7500 F   0  0  0  0  0  0  0  0  0  0  0  0
    3.9660    3.3910   -9.4230 C   0  0  2  0  0  3  0  0  0  0  0  0
    3.9220    2.0810   -8.6210 C   0  0  0  0  0  2  0  0  0  0  0  0
    5.0420    1.9880   -7.5840 C   0  0  0  0  0  2  0  0  0  0  0  0
    6.3390    2.2710   -8.1880 N   0  0  0  0  0  0  0  0  0  0  0  0
    6.4620    3.5700   -8.8430 C   0  0  0  0  0  2  0  0  0  0  0  0
    5.3870    3.7080   -9.9250 C   0  0  0  0  0  2  0  0  0  0  0  0
    7.0680    1.2090   -8.7180 C   0  0  0  0  0  0  0  0  0  0  0  0
    7.1250    1.1190  -10.0650 N   0  0  0  0  0  0  0  0  0  0  0  0
    7.8500    0.1170  -10.5790 C   0  0  0  0  0  3  0  0  0  0  0  0
    8.5290   -0.8040   -9.8910 N   0  0  0  0  0  0  0  0  0  0  0  0
    8.4360   -0.7310   -8.5560 C   0  0  0  0  0  0  0  0  0  0  0  0
    9.1650   -1.6890   -7.8700 N   0  0  0  0  0  0  0  0  0  0  0  0
    7.7160    0.2700   -7.9110 C   0  0  0  0  0  0  0  0  0  0  0  0
    7.5490    0.2540   -6.0130 Br  0  0  0  0  0  0  0  0  0  0  0  0
    9.6250   -2.3580   -8.4740 H   0  0  0  0  0  0  0  0  0  0  0  0
    8.7860   -2.0290   -6.9970 H   0  0  0  0  0  0  0  0  0  0  0  0
    0.9520    3.7590   -8.5770 C   0  0  0  0  0  2  0  0  0  0  0  0
   -0.1900    3.7280   -7.5420 C   0  0  0  0  0  2  0  0  0  0  0  0
   -1.5230    4.3210   -7.8490 N   0  0  0  0  0  4  0  0  0  0  0  0
   -2.6920    3.6140   -7.2950 C   0  0  0  0  0  2  0  0  0  0  0  0
   -3.3160    4.9920   -7.0220 C   0  0  0  0  0  2  0  0  0  0  0  0
   -1.8830    5.5390   -7.1100 C   0  0  0  0  0  2  0  0  0  0  0  0
   -1.6290    4.4520   -8.8670 H   0  0  0  0  0  0  0  0  0  0  0  0
  1  9  1  0  0  0  0
  2  1  2  0  0  0  0
  3  2  1  0  0  0  0
  4  3  1  0  0  0  0
  4  5  2  0  0  0  0
  5  1  1  0  0  0  0
  7  6  1  0  0  0  0
  8  7  2  0  0  0  0
  9  8  1  0  0  0  0
 10  9  2  0  0  0  0
 10 11  1  0  0  0  0
 11 12  2  0  0  0  0
 12  7  1  0  0  0  0
 12 13  1  0  0  0  0
 14  4  1  1  0  0  0
 14 15  1  0  0  0  0
 15 16  1  0  0  0  0
 17 16  1  0  0  0  0
 18 17  1  0  0  0  0
 19 14  1  0  0  0  0
 19 18  1  0  0  0  0
 20 17  1  0  0  0  0
 20 26  1  0  0  0  0
 21 20  2  0  0  0  0
 22 21  1  0  0  0  0
 22 23  2  0  0  0  0
 23 24  1  0  0  0  0
 24 26  2  0  0  0  0
 24 25  1  0  0  0  0
 25 29  1  0  0  0  0
 26 27  1  0  0  0  0
 28 25  1  0  0  0  0
 30  3  1  0  0  0  0
 30 31  1  0  0  0  0
 32 31  1  0  0  0  0
 32 33  1  0  0  0  0
 32 35  1  0  0  0  0
 33 34  1  0  0  0  0
 35 34  1  0  0  0  0
 36 32  1  0  0  0  0
M  END
>  <minimizedAffinity>
-8.32095432

$$$$

 OpenBabel11232419533D

 36 40  0  0  1  0  0  0  0  0999 V2000
   -4.1080    4.1350   -6.8920 C   0  0  0  0  0  0  0  0  0  0  0  0
   -3.8230    3.4820   -8.0690 C   0  0  0  0  0  3  0  0  0  0  0  0
   -2.6500    4.0350   -8.5220 N   0  0  0  0  0  0  0  0  0  0  0  0
   -2.2150    4.9330   -7.5710 C   0  0  0  0  0  0  0  0  0  0  0  0
   -3.1330    5.0650   -6.6360 N   0  0  0  0  0  0  0  0  0  0  0  0
   -7.6070    1.1360   -4.8800 C   0  0  0  0  0  1  0  0  0  0  0  0
   -6.9740    2.4850   -5.0460 C   0  0  0  0  0  0  0  0  0  0  0  0
   -5.8750    2.6660   -5.9010 C   0  0  0  0  0  3  0  0  0  0  0  0
   -5.2520    3.9210   -6.0190 C   0  0  0  0  0  0  0  0  0  0  0  0
   -5.7360    4.9910   -5.2510 C   0  0  0  0  0  3  0  0  0  0  0  0
   -6.8220    4.8160   -4.3910 C   0  0  0  0  0  3  0  0  0  0  0  0
   -7.4270    3.5690   -4.2920 C   0  0  0  0  0  0  0  0  0  0  0  0
   -8.4580    3.4140   -3.4520 F   0  0  0  0  0  0  0  0  0  0  0  0
   -0.8980    5.6680   -7.5980 C   0  0  2  0  0  3  0  0  0  0  0  0
    0.0760    5.0940   -6.5580 C   0  0  0  0  0  2  0  0  0  0  0  0
   -0.2130    5.5960   -5.1420 C   0  0  0  0  0  2  0  0  0  0  0  0
   -0.3220    7.0510   -5.1150 N   0  0  0  0  0  0  0  0  0  0  0  0
   -1.3370    7.6250   -5.9930 C   0  0  0  0  0  2  0  0  0  0  0  0
   -1.0780    7.1890   -7.4390 C   0  0  0  0  0  2  0  0  0  0  0  0
    0.8320    7.7970   -4.8870 C   0  0  0  0  0  0  0  0  0  0  0  0
    1.8550    7.6190   -5.7500 N   0  0  0  0  0  0  0  0  0  0  0  0
    2.9550    8.3580   -5.5520 C   0  0  0  0  0  3  0  0  0  0  0  0
    3.1420    9.2590   -4.5850 N   0  0  0  0  0  0  0  0  0  0  0  0
    2.1360    9.4020   -3.7100 C   0  0  0  0  0  0  0  0  0  0  0  0
    2.3520   10.3560   -2.7300 N   0  0  0  0  0  0  0  0  0  0  0  0
    0.9440    8.6920   -3.8190 C   0  0  0  0  0  0  0  0  0  0  0  0
   -0.4020    8.8760   -2.4840 Br  0  0  0  0  0  0  0  0  0  0  0  0
    3.2710   10.7780   -2.7690 H   0  0  0  0  0  0  0  0  0  0  0  0
    1.9530   10.1870   -1.8160 H   0  0  0  0  0  0  0  0  0  0  0  0
   -2.0150    3.6750   -9.7710 C   0  0  0  0  0  2  0  0  0  0  0  0
   -1.2250    2.3510   -9.7420 C   0  0  0  0  0  2  0  0  0  0  0  0
    0.2650    2.3430   -9.7930 N   0  0  0  0  0  4  0  0  0  0  0  0
    0.9000    3.5100  -10.4310 C   0  0  0  0  0  2  0  0  0  0  0  0
    1.9870    3.4320   -9.3470 C   0  0  0  0  0  2  0  0  0  0  0  0
    0.9640    2.6260   -8.5310 C   0  0  0  0  0  2  0  0  0  0  0  0
    0.6010    1.4670  -10.2220 H   0  0  0  0  0  0  0  0  0  0  0  0
  1  5  1  0  0  0  0
  1  9  1  0  0  0  0
  2  1  2  0  0  0  0
  3  2  1  0  0  0  0
  3  4  1  0  0  0  0
  4  5  2  0  0  0  0
  7  6  1  0  0  0  0
  7 12  1  0  0  0  0
  8  7  2  0  0  0  0
  9  8  1  0  0  0  0
  9 10  2  0  0  0  0
 10 11  1  0  0  0  0
 11 12  2  0  0  0  0
 12 13  1  0  0  0  0
 14  4  1  1  0  0  0
 14 19  1  0  0  0  0
 14 15  1  0  0  0  0
 15 16  1  0  0  0  0
 16 17  1  0  0  0  0
 17 20  1  0  0  0  0
 18 17  1  0  0  0  0
 19 18  1  0  0  0  0
 20 26  1  0  0  0  0
 21 22  1  0  0  0  0
 21 20  2  0  0  0  0
 22 23  2  0  0  0  0
 23 24  1  0  0  0  0
 24 25  1  0  0  0  0
 25 29  1  0  0  0  0
 26 24  2  0  0  0  0
 26 27  1  0  0  0  0
 28 25  1  0  0  0  0
 30 31  1  0  0  0  0
 30  3  1  0  0  0  0
 32 31  1  0  0  0  0
 32 35  1  0  0  0  0
 33 32  1  0  0  0  0
 33 34  1  0  0  0  0
 34 35  1  0  0  0  0
 36 32  1  0  0  0  0
M  END
>  <minimizedAffinity>
-8.27950954

$$$$

 OpenBabel11232419533D

 36 40  0  0  1  0  0  0  0  0999 V2000
    2.0410    5.9990   -7.2290 C   0  0  0  0  0  0  0  0  0  0  0  0
    2.9020    7.0720   -7.2420 C   0  0  0  0  0  3  0  0  0  0  0  0
    4.0330    6.6270   -7.8820 N   0  0  0  0  0  0  0  0  0  0  0  0
    3.7930    5.3400   -8.3140 C   0  0  0  0  0  0  0  0  0  0  0  0
    2.6340    4.9260   -7.8450 N   0  0  0  0  0  0  0  0  0  0  0  0
   -1.5950    7.9540   -4.3560 C   0  0  0  0  0  1  0  0  0  0  0  0
   -1.0690    6.8730   -5.2520 C   0  0  0  0  0  0  0  0  0  0  0  0
    0.2290    6.9400   -5.7820 C   0  0  0  0  0  3  0  0  0  0  0  0
    0.7030    5.9500   -6.6600 C   0  0  0  0  0  0  0  0  0  0  0  0
   -0.1530    4.8960   -7.0150 C   0  0  0  0  0  3  0  0  0  0  0  0
   -1.4500    4.8270   -6.5000 C   0  0  0  0  0  3  0  0  0  0  0  0
   -1.8960    5.8130   -5.6300 C   0  0  0  0  0  0  0  0  0  0  0  0
   -3.1470    5.7400   -5.1560 F   0  0  0  0  0  0  0  0  0  0  0  0
    4.7160    4.5200   -9.1800 C   0  0  2  0  0  3  0  0  0  0  0  0
    4.0260    3.2330   -9.6590 C   0  0  0  0  0  2  0  0  0  0  0  0
    4.0070    2.1420   -8.5870 C   0  0  0  0  0  2  0  0  0  0  0  0
    5.3400    1.9300   -8.0330 N   0  0  0  0  0  0  0  0  0  0  0  0
    5.9730    3.1060   -7.4430 C   0  0  0  0  0  2  0  0  0  0  0  0
    6.0580    4.2260   -8.4840 C   0  0  0  0  0  2  0  0  0  0  0  0
    6.1670    0.9870   -8.6390 C   0  0  0  0  0  0  0  0  0  0  0  0
    6.2600    1.0310   -9.9850 N   0  0  0  0  0  0  0  0  0  0  0  0
    7.0780    0.1460  -10.5700 C   0  0  0  0  0  3  0  0  0  0  0  0
    7.8180   -0.7780   -9.9510 N   0  0  0  0  0  0  0  0  0  0  0  0
    7.6900   -0.8400   -8.6180 C   0  0  0  0  0  0  0  0  0  0  0  0
    8.4830   -1.7960   -8.0050 N   0  0  0  0  0  0  0  0  0  0  0  0
    6.8750    0.0320   -7.9040 C   0  0  0  0  0  0  0  0  0  0  0  0
    6.6690   -0.1790   -6.0220 Br  0  0  0  0  0  0  0  0  0  0  0  0
    9.0100   -2.3650   -8.6550 H   0  0  0  0  0  0  0  0  0  0  0  0
    8.1150   -2.2490   -7.1790 H   0  0  0  0  0  0  0  0  0  0  0  0
    5.2260    7.4250   -8.0670 C   0  0  0  0  0  2  0  0  0  0  0  0
    5.0310    8.9420   -7.8740 C   0  0  0  0  0  2  0  0  0  0  0  0
    5.2840    9.5880   -6.5550 N   0  0  0  0  0  4  0  0  0  0  0  0
    4.1300   10.2530   -5.9240 C   0  0  0  0  0  2  0  0  0  0  0  0
    4.6410    9.7210   -4.5750 C   0  0  0  0  0  2  0  0  0  0  0  0
    5.4230    8.6880   -5.4010 C   0  0  0  0  0  2  0  0  0  0  0  0
    6.0830   10.2380   -6.6240 H   0  0  0  0  0  0  0  0  0  0  0  0
  1  9  1  0  0  0  0
  2  1  2  0  0  0  0
  3  2  1  0  0  0  0
  4  3  1  0  0  0  0
  4  5  2  0  0  0  0
  5  1  1  0  0  0  0
  7  6  1  0  0  0  0
  8  7  2  0  0  0  0
  9  8  1  0  0  0  0
 10  9  2  0  0  0  0
 10 11  1  0  0  0  0
 11 12  2  0  0  0  0
 12  7  1  0  0  0  0
 12 13  1  0  0  0  0
 14 19  1  0  0  0  0
 14  4  1  1  0  0  0
 15 14  1  0  0  0  0
 15 16  1  0  0  0  0
 16 17  1  0  0  0  0
 17 18  1  0  0  0  0
 19 18  1  0  0  0  0
 20 17  1  0  0  0  0
 20 26  1  0  0  0  0
 21 20  2  0  0  0  0
 22 21  1  0  0  0  0
 22 23  2  0  0  0  0
 23 24  1  0  0  0  0
 24 25  1  0  0  0  0
 24 26  2  0  0  0  0
 25 29  1  0  0  0  0
 26 27  1  0  0  0  0
 28 25  1  0  0  0  0
 30  3  1  0  0  0  0
 30 31  1  0  0  0  0
 31 32  1  0  0  0  0
 32 33  1  0  0  0  0
 32 35  1  0  0  0  0
 33 34  1  0  0  0  0
 35 34  1  0  0  0  0
 36 32  1  0  0  0  0
M  END
>  <minimizedAffinity>
-8.25862408

$$$$

 OpenBabel11232419533D

 36 40  0  0  1  0  0  0  0  0999 V2000
    1.3110    5.2510   -7.4220 C   0  0  0  0  0  0  0  0  0  0  0  0
    2.0040    6.3790   -7.0470 C   0  0  0  0  0  3  0  0  0  0  0  0
    3.2800    6.2020   -7.5220 N   0  0  0  0  0  0  0  0  0  0  0  0
    3.3010    5.0270   -8.2430 C   0  0  0  0  0  0  0  0  0  0  0  0
    2.1470    4.4070   -8.1080 N   0  0  0  0  0  0  0  0  0  0  0  0
   -2.4970    1.9790   -7.1330 C   0  0  0  0  0  1  0  0  0  0  0  0
   -1.9540    3.3730   -7.0290 C   0  0  0  0  0  0  0  0  0  0  0  0
   -0.6030    3.6450   -7.3000 C   0  0  0  0  0  3  0  0  0  0  0  0
   -0.0860    4.9440   -7.1550 C   0  0  0  0  0  0  0  0  0  0  0  0
   -0.9400    5.9660   -6.7160 C   0  0  0  0  0  3  0  0  0  0  0  0
   -2.2820    5.7030   -6.4350 C   0  0  0  0  0  3  0  0  0  0  0  0
   -2.7750    4.4130   -6.5890 C   0  0  0  0  0  0  0  0  0  0  0  0
   -4.0620    4.1740   -6.3020 F   0  0  0  0  0  0  0  0  0  0  0  0
    4.4670    4.5160   -9.0510 C   0  0  2  0  0  3  0  0  0  0  0  0
    4.0560    3.3130   -9.9140 C   0  0  0  0  0  2  0  0  0  0  0  0
    3.9960    2.0100   -9.1160 C   0  0  0  0  0  2  0  0  0  0  0  0
    5.2250    1.8040   -8.3570 N   0  0  0  0  0  0  0  0  0  0  0  0
    5.5760    2.8700   -7.4220 C   0  0  0  0  0  2  0  0  0  0  0  0
    5.6910    4.2000   -8.1720 C   0  0  0  0  0  2  0  0  0  0  0  0
    6.2670    1.1060   -8.9620 C   0  0  0  0  0  0  0  0  0  0  0  0
    6.7100    1.5760  -10.1480 N   0  0  0  0  0  0  0  0  0  0  0  0
    7.7330    0.9260  -10.7180 C   0  0  0  0  0  3  0  0  0  0  0  0
    8.3650   -0.1430  -10.2280 N   0  0  0  0  0  0  0  0  0  0  0  0
    7.8940   -0.6260   -9.0690 C   0  0  0  0  0  0  0  0  0  0  0  0
    8.5810   -1.7240   -8.5780 N   0  0  0  0  0  0  0  0  0  0  0  0
    6.8400   -0.0300   -8.3840 C   0  0  0  0  0  0  0  0  0  0  0  0
    6.1620   -0.8290   -6.7930 Br  0  0  0  0  0  0  0  0  0  0  0  0
    9.3120   -2.0550   -9.1940 H   0  0  0  0  0  0  0  0  0  0  0  0
    8.0500   -2.4170   -8.0670 H   0  0  0  0  0  0  0  0  0  0  0  0
    4.3630    7.1350   -7.3000 C   0  0  0  0  0  2  0  0  0  0  0  0
    3.9780    8.6220   -7.4250 C   0  0  0  0  0  2  0  0  0  0  0  0
    3.8770    9.4950   -6.2200 N   0  0  0  0  0  4  0  0  0  0  0  0
    3.8250    8.8040   -4.9190 C   0  0  0  0  0  2  0  0  0  0  0  0
    4.7140    9.9260   -4.3590 C   0  0  0  0  0  2  0  0  0  0  0  0
    5.1030   10.2010   -5.8200 C   0  0  0  0  0  2  0  0  0  0  0  0
    3.0810   10.1450   -6.3160 H   0  0  0  0  0  0  0  0  0  0  0  0
  1  9  1  0  0  0  0
  1  2  2  0  0  0  0
  3 30  1  0  0  0  0
  3  2  1  0  0  0  0
  4  5  2  0  0  0  0
  4  3  1  0  0  0  0
  5  1  1  0  0  0  0
  6  7  1  0  0  0  0
  7 12  1  0  0  0  0
  8  9  1  0  0  0  0
  8  7  2  0  0  0  0
  9 10  2  0  0  0  0
 10 11  1  0  0  0  0
 12 11  2  0  0  0  0
 12 13  1  0  0  0  0
 14  4  1  1  0  0  0
 14 19  1  0  0  0  0
 15 16  1  0  0  0  0
 15 14  1  0  0  0  0
 16 17  1  0  0  0  0
 17 18  1  0  0  0  0
 19 18  1  0  0  0  0
 20 26  1  0  0  0  0
 20 17  1  0  0  0  0
 21 20  2  0  0  0  0
 22 23  2  0  0  0  0
 22 21  1  0  0  0  0
 23 24  1  0  0  0  0
 24 25  1  0  0  0  0
 24 26  2  0  0  0  0
 25 29  1  0  0  0  0
 26 27  1  0  0  0  0
 28 25  1  0  0  0  0
 31 30  1  0  0  0  0
 31 32  1  0  0  0  0
 32 35  1  0  0  0  0
 32 33  1  0  0  0  0
 33 34  1  0  0  0  0
 35 34  1  0  0  0  0
 36 32  1  0  0  0  0
M  END
>  <minimizedAffinity>
-7.83181429

$$$$
