
 OpenBabel11232419533D

 36 40  0  0  1  0  0  0  0  0999 V2000
   -4.1080    4.1350   -6.8920 C   0  0  0  0  0  0  0  0  0  0  0  0
   -3.8230    3.4820   -8.0690 C   0  0  0  0  0  3  0  0  0  0  0  0
   -2.6500    4.0350   -8.5220 N   0  0  0  0  0  0  0  0  0  0  0  0
   -2.2150    4.9330   -7.5710 C   0  0  0  0  0  0  0  0  0  0  0  0
   -3.1330    5.0650   -6.6360 N   0  0  0  0  0  0  0  0  0  0  0  0
   -7.6070    1.1360   -4.8800 C   0  0  0  0  0  1  0  0  0  0  0  0
   -6.9740    2.4850   -5.0460 C   0  0  0  0  0  0  0  0  0  0  0  0
   -5.8750    2.6660   -5.9010 C   0  0  0  0  0  3  0  0  0  0  0  0
   -5.2520    3.9210   -6.0190 C   0  0  0  0  0  0  0  0  0  0  0  0
   -5.7360    4.9910   -5.2510 C   0  0  0  0  0  3  0  0  0  0  0  0
   -6.8220    4.8160   -4.3910 C   0  0  0  0  0  3  0  0  0  0  0  0
   -7.4270    3.5690   -4.2920 C   0  0  0  0  0  0  0  0  0  0  0  0
   -8.4580    3.4140   -3.4520 F   0  0  0  0  0  0  0  0  0  0  0  0
   -0.8980    5.6680   -7.5980 C   0  0  2  0  0  3  0  0  0  0  0  0
    0.0760    5.0940   -6.5580 C   0  0  0  0  0  2  0  0  0  0  0  0
   -0.2130    5.5960   -5.1420 C   0  0  0  0  0  2  0  0  0  0  0  0
   -0.3220    7.0510   -5.1150 N   0  0  0  0  0  0  0  0  0  0  0  0
   -1.3370    7.6250   -5.9930 C   0  0  0  0  0  2  0  0  0  0  0  0
   -1.0780    7.1890   -7.4390 C   0  0  0  0  0  2  0  0  0  0  0  0
    0.8320    7.7970   -4.8870 C   0  0  0  0  0  0  0  0  0  0  0  0
    1.8550    7.6190   -5.7500 N   0  0  0  0  0  0  0  0  0  0  0  0
    2.9550    8.3580   -5.5520 C   0  0  0  0  0  3  0  0  0  0  0  0
    3.1420    9.2590   -4.5850 N   0  0  0  0  0  0  0  0  0  0  0  0
    2.1360    9.4020   -3.7100 C   0  0  0  0  0  0  0  0  0  0  0  0
    2.3520   10.3560   -2.7300 N   0  0  0  0  0  0  0  0  0  0  0  0
    0.9440    8.6920   -3.8190 C   0  0  0  0  0  0  0  0  0  0  0  0
   -0.4020    8.8760   -2.4840 Br  0  0  0  0  0  0  0  0  0  0  0  0
    3.2710   10.7780   -2.7690 H   0  0  0  0  0  0  0  0  0  0  0  0
    1.9530   10.1870   -1.8160 H   0  0  0  0  0  0  0  0  0  0  0  0
   -2.0150    3.6750   -9.7710 C   0  0  0  0  0  2  0  0  0  0  0  0
   -1.2250    2.3510   -9.7420 C   0  0  0  0  0  2  0  0  0  0  0  0
    0.2650    2.3430   -9.7930 N   0  0  0  0  0  4  0  0  0  0  0  0
    0.9000    3.5100  -10.4310 C   0  0  0  0  0  2  0  0  0  0  0  0
    1.9870    3.4320   -9.3470 C   0  0  0  0  0  2  0  0  0  0  0  0
    0.9640    2.6260   -8.5310 C   0  0  0  0  0  2  0  0  0  0  0  0
    0.6010    1.4670  -10.2220 H   0  0  0  0  0  0  0  0  0  0  0  0
  1  5  1  0  0  0  0
  1  9  1  0  0  0  0
  2  1  2  0  0  0  0
  3  2  1  0  0  0  0
  3  4  1  0  0  0  0
  4  5  2  0  0  0  0
  7  6  1  0  0  0  0
  7 12  1  0  0  0  0
  8  7  2  0  0  0  0
  9  8  1  0  0  0  0
  9 10  2  0  0  0  0
 10 11  1  0  0  0  0
 11 12  2  0  0  0  0
 12 13  1  0  0  0  0
 14  4  1  1  0  0  0
 14 19  1  0  0  0  0
 14 15  1  0  0  0  0
 15 16  1  0  0  0  0
 16 17  1  0  0  0  0
 17 20  1  0  0  0  0
 18 17  1  0  0  0  0
 19 18  1  0  0  0  0
 20 26  1  0  0  0  0
 21 22  1  0  0  0  0
 21 20  2  0  0  0  0
 22 23  2  0  0  0  0
 23 24  1  0  0  0  0
 24 25  1  0  0  0  0
 25 29  1  0  0  0  0
 26 24  2  0  0  0  0
 26 27  1  0  0  0  0
 28 25  1  0  0  0  0
 30 31  1  0  0  0  0
 30  3  1  0  0  0  0
 32 31  1  0  0  0  0
 32 35  1  0  0  0  0
 33 32  1  0  0  0  0
 33 34  1  0  0  0  0
 34 35  1  0  0  0  0
 36 32  1  0  0  0  0
M  END
>  <minimizedAffinity>
-8.27950954

$$$$
