
 OpenBabel11232419533D

 36 40  0  0  1  0  0  0  0  0999 V2000
    2.6440    5.7250   -7.3880 C   0  0  0  0  0  0  0  0  0  0  0  0
    2.6920    6.8820   -6.6450 C   0  0  0  0  0  3  0  0  0  0  0  0
    1.3860    7.1790   -6.3410 N   0  0  0  0  0  0  0  0  0  0  0  0
    0.6000    6.1550   -6.8250 C   0  0  0  0  0  0  0  0  0  0  0  0
    1.3390    5.3280   -7.5330 N   0  0  0  0  0  0  0  0  0  0  0  0
    4.7650    1.4510   -8.9770 C   0  0  0  0  0  1  0  0  0  0  0  0
    4.8220    2.9270   -8.7190 C   0  0  0  0  0  0  0  0  0  0  0  0
    3.7280    3.6060   -8.1570 C   0  0  0  0  0  3  0  0  0  0  0  0
    3.7660    4.9970   -7.9600 C   0  0  0  0  0  0  0  0  0  0  0  0
    4.9120    5.7040   -8.3520 C   0  0  0  0  0  3  0  0  0  0  0  0
    6.0010    5.0390   -8.9210 C   0  0  0  0  0  3  0  0  0  0  0  0
    5.9450    3.6620   -9.1020 C   0  0  0  0  0  0  0  0  0  0  0  0
    6.9920    3.0410   -9.6610 F   0  0  0  0  0  0  0  0  0  0  0  0
   -0.8840    6.0070   -6.5940 C   0  0  2  0  0  3  0  0  0  0  0  0
   -1.1670    5.1270   -5.3670 C   0  0  0  0  0  2  0  0  0  0  0  0
   -1.0300    3.6340   -5.6680 C   0  0  0  0  0  2  0  0  0  0  0  0
   -1.8010    3.2670   -6.8520 N   0  0  0  0  0  0  0  0  0  0  0  0
   -1.4620    3.9890   -8.0750 C   0  0  0  0  0  2  0  0  0  0  0  0
   -1.6180    5.4960   -7.8480 C   0  0  0  0  0  2  0  0  0  0  0  0
   -3.1240    2.8680   -6.6830 C   0  0  0  0  0  0  0  0  0  0  0  0
   -3.7930    3.3970   -5.6350 N   0  0  0  0  0  0  0  0  0  0  0  0
   -5.0750    3.0400   -5.4870 C   0  0  0  0  0  3  0  0  0  0  0  0
   -5.7640    2.2130   -6.2770 N   0  0  0  0  0  0  0  0  0  0  0  0
   -5.0820    1.6620   -7.2920 C   0  0  0  0  0  0  0  0  0  0  0  0
   -5.8290    0.8230   -8.1030 N   0  0  0  0  0  0  0  0  0  0  0  0
   -3.7480    1.9640   -7.5470 C   0  0  0  0  0  0  0  0  0  0  0  0
   -2.8190    1.0700   -8.9480 Br  0  0  0  0  0  0  0  0  0  0  0  0
   -6.7790    0.6890   -7.7830 H   0  0  0  0  0  0  0  0  0  0  0  0
   -5.3560    0.0300   -8.5150 H   0  0  0  0  0  0  0  0  0  0  0  0
    0.9720    8.3580   -5.6110 C   0  0  0  0  0  2  0  0  0  0  0  0
    0.5350    8.1020   -4.1550 C   0  0  0  0  0  2  0  0  0  0  0  0
   -0.8430    8.4390   -3.6960 N   0  0  0  0  0  4  0  0  0  0  0  0
   -0.9600    9.5840   -2.7740 C   0  0  0  0  0  2  0  0  0  0  0  0
   -2.2480    9.9700   -3.5180 C   0  0  0  0  0  2  0  0  0  0  0  0
   -1.7130    9.1100   -4.6730 C   0  0  0  0  0  2  0  0  0  0  0  0
   -1.2990    7.6040   -3.2950 H   0  0  0  0  0  0  0  0  0  0  0  0
  1  2  2  0  0  0  0
  2  3  1  0  0  0  0
  3 30  1  0  0  0  0
  4  3  1  0  0  0  0
  5  1  1  0  0  0  0
  5  4  2  0  0  0  0
  6  7  1  0  0  0  0
  7  8  1  0  0  0  0
  8  9  2  0  0  0  0
  9  1  1  0  0  0  0
 10  9  1  0  0  0  0
 11 10  2  0  0  0  0
 12 11  1  0  0  0  0
 12  7  2  0  0  0  0
 13 12  1  0  0  0  0
 14  4  1  6  0  0  0
 14 15  1  0  0  0  0
 16 15  1  0  0  0  0
 17 20  1  0  0  0  0
 17 16  1  0  0  0  0
 18 19  1  0  0  0  0
 18 17  1  0  0  0  0
 19 14  1  0  0  0  0
 20 21  1  0  0  0  0
 21 22  2  0  0  0  0
 23 22  1  0  0  0  0
 24 23  2  0  0  0  0
 25 28  1  0  0  0  0
 25 24  1  0  0  0  0
 26 24  1  0  0  0  0
 26 20  2  0  0  0  0
 27 26  1  0  0  0  0
 29 25  1  0  0  0  0
 30 31  1  0  0  0  0
 31 32  1  0  0  0  0
 32 36  1  0  0  0  0
 32 33  1  0  0  0  0
 34 33  1  0  0  0  0
 35 32  1  0  0  0  0
 35 34  1  0  0  0  0
M  END
>  <minimizedAffinity>
-9.86203384

$$$$
