
 OpenBabel11232419023D

 35 39  0  0  1  0  0  0  0  0999 V2000
   23.9690   68.6000   16.0090 O   0  0  0  0  0  0  0  0  0  0  0  0
   22.8520   67.2680   19.2990 C   0  0  0  0  0  0  0  0  0  0  0  0
   23.5720   68.1770   20.0690 C   0  0  0  0  0  3  0  0  0  0  0  0
   24.3370   69.1630   19.5490 N   0  0  0  0  0  0  0  0  0  0  0  0
   24.3770   69.2640   18.2040 C   0  0  0  0  0  3  0  0  0  0  0  0
   23.7180   68.4020   17.3340 C   0  0  0  0  0  0  0  0  0  0  0  0
   22.9300   67.4040   17.9010 C   0  0  0  0  0  3  0  0  0  0  0  0
   23.4230   61.8540   21.2400 C   0  0  0  0  0  1  0  0  0  0  0  0
   22.1430   62.6040   21.2470 C   0  0  0  0  0  0  0  0  0  0  0  0
   21.0270   62.0240   21.7040 N   0  0  0  0  0  0  0  0  0  0  0  0
   20.0900   62.9790   21.5800 N   0  0  0  0  0  0  0  0  0  0  0  0
   20.5520   64.1480   21.0340 C   0  0  0  0  0  0  0  0  0  0  0  0
   19.9120   65.3520   20.7370 C   0  0  0  0  0  3  0  0  0  0  0  0
   20.6950   66.3690   20.1720 C   0  0  0  0  0  3  0  0  0  0  0  0
   22.0630   66.1950   19.9120 C   0  0  0  0  0  0  0  0  0  0  0  0
   22.6740   64.9680   20.2390 C   0  0  0  0  0  3  0  0  0  0  0  0
   21.9040   63.9320   20.8030 C   0  0  0  0  0  0  0  0  0  0  0  0
   19.1460   62.7670   21.8850 H   0  0  0  0  0  0  0  0  0  0  0  0
   23.0160   69.2730   15.1790 C   0  0  0  0  0  2  0  0  0  0  0  0
   21.7240   68.4360   15.0700 C   0  0  1  0  0  3  0  0  0  0  0  0
   20.6210   69.2700   14.4730 N   0  0  0  0  0  4  0  0  0  0  0  0
   20.8220   69.5730   13.5120 H   0  0  0  0  0  0  0  0  0  0  0  0
   19.7240   68.7680   14.4730 H   0  0  0  0  0  0  0  0  0  0  0  0
   20.4860   70.1190   15.0420 H   0  0  0  0  0  0  0  0  0  0  0  0
   21.9050   67.1690   14.2210 C   0  0  0  0  0  2  0  0  0  0  0  0
   21.3310   65.9630   14.8850 C   0  0  0  0  0  0  0  0  0  0  0  0
   20.0080   65.5670   14.8330 C   0  0  0  0  0  3  0  0  0  0  0  0
   19.8730   64.4160   15.5630 N   0  0  0  0  0  0  0  0  0  0  0  0
   21.0840   64.0550   16.1020 C   0  0  0  0  0  0  0  0  0  0  0  0
   21.4100   62.9620   16.9120 C   0  0  0  0  0  3  0  0  0  0  0  0
   22.7410   62.8240   17.3080 C   0  0  0  0  0  3  0  0  0  0  0  0
   23.7060   63.7420   16.9060 C   0  0  0  0  0  3  0  0  0  0  0  0
   23.3650   64.8310   16.0940 C   0  0  0  0  0  3  0  0  0  0  0  0
   22.0240   64.9970   15.6850 C   0  0  0  0  0  0  0  0  0  0  0  0
   19.0140   63.8950   15.6870 H   0  0  0  0  0  0  0  0  0  0  0  0
  1  6  1  0  0  0  0
  2 15  1  0  0  0  0
  2  3  1  0  0  0  0
  4  3  2  0  0  0  0
  5  4  1  0  0  0  0
  6  7  1  0  0  0  0
  6  5  2  0  0  0  0
  7  2  2  0  0  0  0
  8  9  1  0  0  0  0
  9 10  2  0  0  0  0
 11 10  1  0  0  0  0
 11 18  1  0  0  0  0
 12 11  1  0  0  0  0
 13 12  2  0  0  0  0
 14 13  1  0  0  0  0
 15 14  2  0  0  0  0
 15 16  1  0  0  0  0
 16 17  2  0  0  0  0
 17 12  1  0  0  0  0
 17  9  1  0  0  0  0
 19  1  1  0  0  0  0
 20 25  1  6  0  0  0
 20 19  1  0  0  0  0
 21 24  1  0  0  0  0
 21 20  1  0  0  0  0
 22 21  1  0  0  0  0
 23 21  1  0  0  0  0
 25 26  1  0  0  0  0
 26 34  1  0  0  0  0
 27 26  2  0  0  0  0
 27 28  1  0  0  0  0
 28 35  1  0  0  0  0
 28 29  1  0  0  0  0
 29 30  1  0  0  0  0
 30 31  2  0  0  0  0
 32 31  1  0  0  0  0
 33 32  2  0  0  0  0
 34 33  1  0  0  0  0
 34 29  2  0  0  0  0
M  END
>  <minimizedAffinity>
-1.6188308

$$$$

 OpenBabel11232419023D

 35 39  0  0  1  0  0  0  0  0999 V2000
   22.8060   67.9110   14.8990 O   0  0  0  0  0  0  0  0  0  0  0  0
   23.4010   66.5610   18.3160 C   0  0  0  0  0  0  0  0  0  0  0  0
   23.7940   67.7730   18.8770 C   0  0  0  0  0  3  0  0  0  0  0  0
   23.8320   68.9410   18.1970 N   0  0  0  0  0  0  0  0  0  0  0  0
   23.4460   68.9100   16.9030 C   0  0  0  0  0  3  0  0  0  0  0  0
   23.0540   67.7570   16.2300 C   0  0  0  0  0  0  0  0  0  0  0  0
   23.0160   66.5740   16.9630 C   0  0  0  0  0  3  0  0  0  0  0  0
   19.8190   63.1030   21.2500 C   0  0  0  0  0  1  0  0  0  0  0  0
   21.2760   62.8590   21.1130 C   0  0  0  0  0  0  0  0  0  0  0  0
   21.8380   61.7970   21.7020 N   0  0  0  0  0  0  0  0  0  0  0  0
   23.1340   61.8820   21.3590 N   0  0  0  0  0  0  0  0  0  0  0  0
   23.4370   62.9760   20.5900 C   0  0  0  0  0  0  0  0  0  0  0  0
   24.6420   63.4220   20.0430 C   0  0  0  0  0  3  0  0  0  0  0  0
   24.6020   64.6040   19.2900 C   0  0  0  0  0  3  0  0  0  0  0  0
   23.4090   65.3160   19.0880 C   0  0  0  0  0  0  0  0  0  0  0  0
   22.2120   64.8230   19.6460 C   0  0  0  0  0  3  0  0  0  0  0  0
   22.2320   63.6400   20.4100 C   0  0  0  0  0  0  0  0  0  0  0  0
   23.7650   61.1590   21.6860 H   0  0  0  0  0  0  0  0  0  0  0  0
   21.9600   68.9680   14.4320 C   0  0  0  0  0  2  0  0  0  0  0  0
   20.4780   68.5890   14.6380 C   0  0  1  0  0  3  0  0  0  0  0  0
   20.3190   67.0920   14.5910 N   0  0  0  0  0  4  0  0  0  0  0  0
   20.8230   66.6110   15.3460 H   0  0  0  0  0  0  0  0  0  0  0  0
   19.3300   66.8150   14.6330 H   0  0  0  0  0  0  0  0  0  0  0  0
   20.6900   66.7350   13.6970 H   0  0  0  0  0  0  0  0  0  0  0  0
   19.9100   69.1080   15.9670 C   0  0  0  0  0  2  0  0  0  0  0  0
   19.8150   68.0310   16.9940 C   0  0  0  0  0  0  0  0  0  0  0  0
   19.5700   66.6960   16.7410 C   0  0  0  0  0  3  0  0  0  0  0  0
   19.5590   66.0240   17.9350 N   0  0  0  0  0  0  0  0  0  0  0  0
   19.7850   66.9000   18.9700 C   0  0  0  0  0  0  0  0  0  0  0  0
   19.8540   66.6570   20.3460 C   0  0  0  0  0  3  0  0  0  0  0  0
   20.1170   67.7430   21.1830 C   0  0  0  0  0  3  0  0  0  0  0  0
   20.3060   69.0190   20.6610 C   0  0  0  0  0  3  0  0  0  0  0  0
   20.2340   69.2460   19.2800 C   0  0  0  0  0  3  0  0  0  0  0  0
   19.9630   68.1660   18.4130 C   0  0  0  0  0  0  0  0  0  0  0  0
   19.4170   65.0280   18.0500 H   0  0  0  0  0  0  0  0  0  0  0  0
  1  6  1  0  0  0  0
  2  3  1  0  0  0  0
  2 15  1  0  0  0  0
  4  3  2  0  0  0  0
  5  4  1  0  0  0  0
  6  5  2  0  0  0  0
  6  7  1  0  0  0  0
  7  2  2  0  0  0  0
  9  8  1  0  0  0  0
  9 10  2  0  0  0  0
 11 18  1  0  0  0  0
 11 10  1  0  0  0  0
 12 11  1  0  0  0  0
 13 12  2  0  0  0  0
 14 13  1  0  0  0  0
 15 14  2  0  0  0  0
 15 16  1  0  0  0  0
 16 17  2  0  0  0  0
 17 12  1  0  0  0  0
 17  9  1  0  0  0  0
 19  1  1  0  0  0  0
 20 19  1  1  0  0  0
 20 25  1  0  0  0  0
 21 23  1  0  0  0  0
 21 20  1  0  0  0  0
 21 22  1  0  0  0  0
 24 21  1  0  0  0  0
 25 26  1  0  0  0  0
 26 34  1  0  0  0  0
 27 26  2  0  0  0  0
 27 28  1  0  0  0  0
 28 35  1  0  0  0  0
 28 29  1  0  0  0  0
 29 30  1  0  0  0  0
 30 31  2  0  0  0  0
 32 31  1  0  0  0  0
 33 32  2  0  0  0  0
 34 29  2  0  0  0  0
 34 33  1  0  0  0  0
M  END
>  <minimizedAffinity>
-0.754708171

$$$$

 OpenBabel11232419023D

 35 39  0  0  1  0  0  0  0  0999 V2000
   25.3890   64.4440   20.2200 O   0  0  0  0  0  0  0  0  0  0  0  0
   23.9820   67.3160   18.3160 C   0  0  0  0  0  0  0  0  0  0  0  0
   24.6860   68.2990   19.0080 C   0  0  0  0  0  3  0  0  0  0  0  0
   25.5700   68.0370   19.9960 N   0  0  0  0  0  0  0  0  0  0  0  0
   25.7800   66.7390   20.3030 C   0  0  0  0  0  3  0  0  0  0  0  0
   25.1210   65.6740   19.6970 C   0  0  0  0  0  0  0  0  0  0  0  0
   24.2250   65.9780   18.6750 C   0  0  0  0  0  3  0  0  0  0  0  0
   19.6310   64.9580   15.3320 C   0  0  0  0  0  1  0  0  0  0  0  0
   20.1100   66.3470   15.1360 C   0  0  0  0  0  0  0  0  0  0  0  0
   19.5400   67.1300   14.2120 N   0  0  0  0  0  0  0  0  0  0  0  0
   20.1990   68.2960   14.3220 N   0  0  0  0  0  0  0  0  0  0  0  0
   21.1920   68.2890   15.2670 C   0  0  0  0  0  0  0  0  0  0  0  0
   22.0920   69.2750   15.6760 C   0  0  0  0  0  3  0  0  0  0  0  0
   22.9980   68.9310   16.6890 C   0  0  0  0  0  3  0  0  0  0  0  0
   23.0080   67.6550   17.2740 C   0  0  0  0  0  0  0  0  0  0  0  0
   22.0740   66.6940   16.8410 C   0  0  0  0  0  3  0  0  0  0  0  0
   21.1590   67.0170   15.8210 C   0  0  0  0  0  0  0  0  0  0  0  0
   19.9220   69.0620   13.7180 H   0  0  0  0  0  0  0  0  0  0  0  0
   24.5550   63.8910   21.2450 C   0  0  0  0  0  2  0  0  0  0  0  0
   23.2330   63.3800   20.6330 C   0  0  1  0  0  3  0  0  0  0  0  0
   23.2570   61.8770   20.5410 N   0  0  0  0  0  4  0  0  0  0  0  0
   23.3190   61.4190   21.4580 H   0  0  0  0  0  0  0  0  0  0  0  0
   22.4280   61.5150   20.0520 H   0  0  0  0  0  0  0  0  0  0  0  0
   24.0780   61.5800   19.9920 H   0  0  0  0  0  0  0  0  0  0  0  0
   21.9980   63.8100   21.4400 C   0  0  0  0  0  2  0  0  0  0  0  0
   21.1920   64.8390   20.7240 C   0  0  0  0  0  0  0  0  0  0  0  0
   20.1480   64.5840   19.8540 C   0  0  0  0  0  3  0  0  0  0  0  0
   19.6600   65.7810   19.4030 N   0  0  0  0  0  0  0  0  0  0  0  0
   20.3720   66.8190   19.9550 C   0  0  0  0  0  0  0  0  0  0  0  0
   20.2240   68.1990   19.7740 C   0  0  0  0  0  3  0  0  0  0  0  0
   21.0850   69.0400   20.4820 C   0  0  0  0  0  3  0  0  0  0  0  0
   22.0500   68.5190   21.3380 C   0  0  0  0  0  3  0  0  0  0  0  0
   22.1850   67.1350   21.5090 C   0  0  0  0  0  3  0  0  0  0  0  0
   21.3330   66.2630   20.7990 C   0  0  0  0  0  0  0  0  0  0  0  0
   18.8830   65.8980   18.7640 H   0  0  0  0  0  0  0  0  0  0  0  0
  1 19  1  0  0  0  0
  2  7  2  0  0  0  0
  2  3  1  0  0  0  0
  3  4  2  0  0  0  0
  4  5  1  0  0  0  0
  6  1  1  0  0  0  0
  6  5  2  0  0  0  0
  7  6  1  0  0  0  0
  9  8  1  0  0  0  0
  9 17  1  0  0  0  0
 10 11  1  0  0  0  0
 10  9  2  0  0  0  0
 11 12  1  0  0  0  0
 12 13  2  0  0  0  0
 12 17  1  0  0  0  0
 13 14  1  0  0  0  0
 14 15  2  0  0  0  0
 15  2  1  0  0  0  0
 16 15  1  0  0  0  0
 17 16  2  0  0  0  0
 18 11  1  0  0  0  0
 20 19  1  1  0  0  0
 20 25  1  0  0  0  0
 21 20  1  0  0  0  0
 21 22  1  0  0  0  0
 23 21  1  0  0  0  0
 24 21  1  0  0  0  0
 26 34  1  0  0  0  0
 26 25  1  0  0  0  0
 27 26  2  0  0  0  0
 28 27  1  0  0  0  0
 28 29  1  0  0  0  0
 29 34  1  0  0  0  0
 30 29  2  0  0  0  0
 30 31  1  0  0  0  0
 31 32  2  0  0  0  0
 32 33  1  0  0  0  0
 34 33  2  0  0  0  0
 35 28  1  0  0  0  0
M  END
>  <minimizedAffinity>
0.217047676

$$$$

 OpenBabel11232419023D

 35 39  0  0  1  0  0  0  0  0999 V2000
   22.9490   68.1650   14.9120 O   0  0  0  0  0  0  0  0  0  0  0  0
   23.1470   66.8120   18.3730 C   0  0  0  0  0  0  0  0  0  0  0  0
   23.2450   68.0510   19.0000 C   0  0  0  0  0  3  0  0  0  0  0  0
   23.2170   69.2320   18.3440 N   0  0  0  0  0  0  0  0  0  0  0  0
   23.0700   69.1840   17.0030 C   0  0  0  0  0  3  0  0  0  0  0  0
   22.9850   68.0080   16.2650 C   0  0  0  0  0  0  0  0  0  0  0  0
   23.0040   66.8090   16.9740 C   0  0  0  0  0  3  0  0  0  0  0  0
   19.7420   63.1610   21.2830 C   0  0  0  0  0  1  0  0  0  0  0  0
   21.2060   62.9830   21.1340 C   0  0  0  0  0  0  0  0  0  0  0  0
   21.8180   61.9400   21.7040 N   0  0  0  0  0  0  0  0  0  0  0  0
   23.1080   62.0860   21.3540 N   0  0  0  0  0  0  0  0  0  0  0  0
   23.3570   63.2010   20.5980 C   0  0  0  0  0  0  0  0  0  0  0  0
   24.5370   63.7080   20.0490 C   0  0  0  0  0  3  0  0  0  0  0  0
   24.4400   64.8970   19.3130 C   0  0  0  0  0  3  0  0  0  0  0  0
   23.2150   65.5580   19.1290 C   0  0  0  0  0  0  0  0  0  0  0  0
   22.0460   65.0060   19.6880 C   0  0  0  0  0  3  0  0  0  0  0  0
   22.1230   63.8150   20.4350 C   0  0  0  0  0  0  0  0  0  0  0  0
   23.7720   61.3870   21.6670 H   0  0  0  0  0  0  0  0  0  0  0  0
   21.7590   68.6250   14.2620 C   0  0  0  0  0  2  0  0  0  0  0  0
   20.6600   67.5440   14.3430 C   0  0  1  0  0  3  0  0  0  0  0  0
   21.2840   66.1740   14.3030 N   0  0  0  0  0  4  0  0  0  0  0  0
   21.8990   65.9880   15.1050 H   0  0  0  0  0  0  0  0  0  0  0  0
   20.5720   65.4340   14.2620 H   0  0  0  0  0  0  0  0  0  0  0  0
   21.8570   66.0820   13.4500 H   0  0  0  0  0  0  0  0  0  0  0  0
   19.8010   67.6620   15.6100 C   0  0  0  0  0  2  0  0  0  0  0  0
   19.7020   66.3670   16.3430 C   0  0  0  0  0  0  0  0  0  0  0  0
   19.6100   66.2220   17.7140 C   0  0  0  0  0  3  0  0  0  0  0  0
   19.5350   64.8850   18.0020 N   0  0  0  0  0  0  0  0  0  0  0  0
   19.5860   64.1490   16.8420 C   0  0  0  0  0  0  0  0  0  0  0  0
   19.5450   62.7620   16.6620 C   0  0  0  0  0  3  0  0  0  0  0  0
   19.5970   62.2770   15.3540 C   0  0  0  0  0  3  0  0  0  0  0  0
   19.6820   63.1480   14.2720 C   0  0  0  0  0  3  0  0  0  0  0  0
   19.7210   64.5340   14.4680 C   0  0  0  0  0  3  0  0  0  0  0  0
   19.6770   65.0500   15.7810 C   0  0  0  0  0  0  0  0  0  0  0  0
   19.4460   64.4850   18.9280 H   0  0  0  0  0  0  0  0  0  0  0  0
  1  6  1  0  0  0  0
  2  3  1  0  0  0  0
  2 15  1  0  0  0  0
  4  3  2  0  0  0  0
  5  4  1  0  0  0  0
  6  7  1  0  0  0  0
  6  5  2  0  0  0  0
  7  2  2  0  0  0  0
  9  8  1  0  0  0  0
  9 10  2  0  0  0  0
 11 18  1  0  0  0  0
 11 10  1  0  0  0  0
 12 11  1  0  0  0  0
 13 12  2  0  0  0  0
 14 13  1  0  0  0  0
 15 14  2  0  0  0  0
 15 16  1  0  0  0  0
 16 17  2  0  0  0  0
 17 12  1  0  0  0  0
 17  9  1  0  0  0  0
 19  1  1  0  0  0  0
 20 19  1  1  0  0  0
 20 25  1  0  0  0  0
 21 20  1  0  0  0  0
 21 22  1  0  0  0  0
 23 21  1  0  0  0  0
 24 21  1  0  0  0  0
 25 26  1  0  0  0  0
 26 27  2  0  0  0  0
 27 28  1  0  0  0  0
 28 35  1  0  0  0  0
 29 28  1  0  0  0  0
 30 29  1  0  0  0  0
 31 30  2  0  0  0  0
 32 33  2  0  0  0  0
 32 31  1  0  0  0  0
 33 34  1  0  0  0  0
 34 26  1  0  0  0  0
 34 29  2  0  0  0  0
M  END
>  <minimizedAffinity>
0.950678349

$$$$
