
 OpenBabel11232419023D

 35 39  0  0  1  0  0  0  0  0999 V2000
   22.9490   68.1650   14.9120 O   0  0  0  0  0  0  0  0  0  0  0  0
   23.1470   66.8120   18.3730 C   0  0  0  0  0  0  0  0  0  0  0  0
   23.2450   68.0510   19.0000 C   0  0  0  0  0  3  0  0  0  0  0  0
   23.2170   69.2320   18.3440 N   0  0  0  0  0  0  0  0  0  0  0  0
   23.0700   69.1840   17.0030 C   0  0  0  0  0  3  0  0  0  0  0  0
   22.9850   68.0080   16.2650 C   0  0  0  0  0  0  0  0  0  0  0  0
   23.0040   66.8090   16.9740 C   0  0  0  0  0  3  0  0  0  0  0  0
   19.7420   63.1610   21.2830 C   0  0  0  0  0  1  0  0  0  0  0  0
   21.2060   62.9830   21.1340 C   0  0  0  0  0  0  0  0  0  0  0  0
   21.8180   61.9400   21.7040 N   0  0  0  0  0  0  0  0  0  0  0  0
   23.1080   62.0860   21.3540 N   0  0  0  0  0  0  0  0  0  0  0  0
   23.3570   63.2010   20.5980 C   0  0  0  0  0  0  0  0  0  0  0  0
   24.5370   63.7080   20.0490 C   0  0  0  0  0  3  0  0  0  0  0  0
   24.4400   64.8970   19.3130 C   0  0  0  0  0  3  0  0  0  0  0  0
   23.2150   65.5580   19.1290 C   0  0  0  0  0  0  0  0  0  0  0  0
   22.0460   65.0060   19.6880 C   0  0  0  0  0  3  0  0  0  0  0  0
   22.1230   63.8150   20.4350 C   0  0  0  0  0  0  0  0  0  0  0  0
   23.7720   61.3870   21.6670 H   0  0  0  0  0  0  0  0  0  0  0  0
   21.7590   68.6250   14.2620 C   0  0  0  0  0  2  0  0  0  0  0  0
   20.6600   67.5440   14.3430 C   0  0  1  0  0  3  0  0  0  0  0  0
   21.2840   66.1740   14.3030 N   0  0  0  0  0  4  0  0  0  0  0  0
   21.8990   65.9880   15.1050 H   0  0  0  0  0  0  0  0  0  0  0  0
   20.5720   65.4340   14.2620 H   0  0  0  0  0  0  0  0  0  0  0  0
   21.8570   66.0820   13.4500 H   0  0  0  0  0  0  0  0  0  0  0  0
   19.8010   67.6620   15.6100 C   0  0  0  0  0  2  0  0  0  0  0  0
   19.7020   66.3670   16.3430 C   0  0  0  0  0  0  0  0  0  0  0  0
   19.6100   66.2220   17.7140 C   0  0  0  0  0  3  0  0  0  0  0  0
   19.5350   64.8850   18.0020 N   0  0  0  0  0  0  0  0  0  0  0  0
   19.5860   64.1490   16.8420 C   0  0  0  0  0  0  0  0  0  0  0  0
   19.5450   62.7620   16.6620 C   0  0  0  0  0  3  0  0  0  0  0  0
   19.5970   62.2770   15.3540 C   0  0  0  0  0  3  0  0  0  0  0  0
   19.6820   63.1480   14.2720 C   0  0  0  0  0  3  0  0  0  0  0  0
   19.7210   64.5340   14.4680 C   0  0  0  0  0  3  0  0  0  0  0  0
   19.6770   65.0500   15.7810 C   0  0  0  0  0  0  0  0  0  0  0  0
   19.4460   64.4850   18.9280 H   0  0  0  0  0  0  0  0  0  0  0  0
  1  6  1  0  0  0  0
  2  3  1  0  0  0  0
  2 15  1  0  0  0  0
  4  3  2  0  0  0  0
  5  4  1  0  0  0  0
  6  7  1  0  0  0  0
  6  5  2  0  0  0  0
  7  2  2  0  0  0  0
  9  8  1  0  0  0  0
  9 10  2  0  0  0  0
 11 18  1  0  0  0  0
 11 10  1  0  0  0  0
 12 11  1  0  0  0  0
 13 12  2  0  0  0  0
 14 13  1  0  0  0  0
 15 14  2  0  0  0  0
 15 16  1  0  0  0  0
 16 17  2  0  0  0  0
 17 12  1  0  0  0  0
 17  9  1  0  0  0  0
 19  1  1  0  0  0  0
 20 19  1  1  0  0  0
 20 25  1  0  0  0  0
 21 20  1  0  0  0  0
 21 22  1  0  0  0  0
 23 21  1  0  0  0  0
 24 21  1  0  0  0  0
 25 26  1  0  0  0  0
 26 27  2  0  0  0  0
 27 28  1  0  0  0  0
 28 35  1  0  0  0  0
 29 28  1  0  0  0  0
 30 29  1  0  0  0  0
 31 30  2  0  0  0  0
 32 33  2  0  0  0  0
 32 31  1  0  0  0  0
 33 34  1  0  0  0  0
 34 26  1  0  0  0  0
 34 29  2  0  0  0  0
M  END
>  <minimizedAffinity>
0.950678349

$$$$
