
 OpenBabel11232419113D

 39 45  0  0  1  0  0  0  0  0999 V2000
   29.9360   40.8370   18.1590 C   0  0  0  0  0  0  0  0  0  0  0  0
   30.2500   39.7950   19.0050 N   0  0  0  0  0  0  0  0  0  0  0  0
   29.1170   39.1970   19.2920 C   0  0  0  0  0  0  0  0  0  0  0  0
   28.0810   39.8190   18.6480 N   0  0  0  0  0  0  0  0  0  0  0  0
   28.5710   40.8640   17.8970 C   0  0  0  0  0  0  0  0  0  0  0  0
   26.7380   39.2800   18.7010 C   0  0  0  0  0  2  0  0  0  0  0  0
   26.4670   38.6160   19.9500 O   0  0  0  0  0  0  0  0  0  0  0  0
   27.4800   37.8250   20.4420 C   0  0  0  0  0  0  0  0  0  0  0  0
   27.0940   36.8050   21.3100 C   0  0  0  0  0  3  0  0  0  0  0  0
   28.0580   35.9760   21.8750 C   0  0  0  0  0  3  0  0  0  0  0  0
   29.4070   36.1770   21.5760 C   0  0  0  0  0  3  0  0  0  0  0  0
   29.8010   37.2150   20.7210 C   0  0  0  0  0  0  0  0  0  0  0  0
   31.4960   37.3700   20.4140 Cl  0  0  0  0  0  0  0  0  0  0  0  0
   28.8360   38.0590   20.1510 C   0  0  0  0  0  0  0  0  0  0  0  0
   27.7490   41.6800   17.0150 C   0  0  0  0  0  0  0  0  0  0  0  0
   27.4610   43.0090   17.3430 C   0  0  0  0  0  3  0  0  0  0  0  0
   26.6630   43.7850   16.5000 C   0  0  0  0  0  3  0  0  0  0  0  0
   26.1510   43.2360   15.3260 C   0  0  0  0  0  3  0  0  0  0  0  0
   26.4370   41.9130   14.9900 C   0  0  0  0  0  3  0  0  0  0  0  0
   27.2360   41.1360   15.8320 C   0  0  0  0  0  3  0  0  0  0  0  0
   33.0510   43.5050   16.8020 C   0  0  0  0  0  0  0  0  0  0  0  0
   33.2260   42.6210   17.8860 C   0  0  0  0  0  3  0  0  0  0  0  0
   32.2110   41.7510   18.3030 C   0  0  0  0  0  3  0  0  0  0  0  0
   30.9770   41.7150   17.6460 C   0  0  0  0  0  0  0  0  0  0  0  0
   30.7820   42.5740   16.5650 C   0  0  0  0  0  3  0  0  0  0  0  0
   31.8020   43.4450   16.1520 C   0  0  0  0  0  3  0  0  0  0  0  0
   34.1880   44.4950   16.3440 C   0  0  2  0  0  0  0  0  0  0  0  0
   35.5270   43.9250   15.7920 C   0  0  0  0  0  2  0  0  0  0  0  0
   36.2360   45.1940   16.3850 C   0  0  1  0  0  0  0  0  0  0  0  0
   35.0570   45.2120   17.4210 C   0  0  0  0  0  2  0  0  0  0  0  0
   33.5870   45.4620   15.3900 N   0  0  0  0  0  4  0  0  0  0  0  0
   33.1990   44.9930   14.5640 H   0  0  0  0  0  0  0  0  0  0  0  0
   34.3170   46.1240   15.0570 H   0  0  0  0  0  0  0  0  0  0  0  0
   32.8370   46.0140   15.8190 H   0  0  0  0  0  0  0  0  0  0  0  0
   37.6560   44.9850   16.8710 C   0  0  0  0  0  3  0  0  0  0  0  0
   38.5440   46.1120   17.3260 C   0  0  0  0  0  2  0  0  0  0  0  0
   38.1200   45.0470   18.3000 C   0  0  0  0  0  2  0  0  0  0  0  0
   36.1300   46.3340   15.4760 O   0  0  0  0  0  0  0  0  0  0  0  0
   36.8790   46.9170   15.7240 H   0  0  0  0  0  0  0  0  0  0  0  0
  1  2  1  0  0  0  0
  2  3  2  0  0  0  0
  3 14  1  0  0  0  0
  4  6  1  0  0  0  0
  4  3  1  0  0  0  0
  5  1  2  0  0  0  0
  5  4  1  0  0  0  0
  6  7  1  0  0  0  0
  7  8  1  0  0  0  0
  8  9  1  0  0  0  0
  9 10  2  0  0  0  0
 11 10  1  0  0  0  0
 12 11  2  0  0  0  0
 13 12  1  0  0  0  0
 14  8  2  0  0  0  0
 14 12  1  0  0  0  0
 15 16  1  0  0  0  0
 15  5  1  0  0  0  0
 17 16  2  0  0  0  0
 18 17  1  0  0  0  0
 19 18  2  0  0  0  0
 19 20  1  0  0  0  0
 20 15  2  0  0  0  0
 21 22  1  0  0  0  0
 22 23  2  0  0  0  0
 24  1  1  0  0  0  0
 24 23  1  0  0  0  0
 25 24  2  0  0  0  0
 26 25  1  0  0  0  0
 26 21  2  0  0  0  0
 27 31  1  6  0  0  0
 27 21  1  0  0  0  0
 27 30  1  0  0  0  0
 28 27  1  0  0  0  0
 28 29  1  0  0  0  0
 29 38  1  6  0  0  0
 29 35  1  0  0  0  0
 29 30  1  0  0  0  0
 31 34  1  0  0  0  0
 32 31  1  0  0  0  0
 33 31  1  0  0  0  0
 35 36  1  0  0  0  0
 35 37  1  0  0  0  0
 36 37  1  0  0  0  0
 38 39  1  0  0  0  0
M  END
>  <minimizedAffinity>
-10.4942102

$$$$
