
 OpenBabel11232419113D

 39 45  0  0  1  0  0  0  0  0999 V2000
   37.0490   44.0990   19.7740 C   0  0  0  0  0  0  0  0  0  0  0  0
   38.1250   44.7880   19.2580 N   0  0  0  0  0  0  0  0  0  0  0  0
   37.8300   45.0510   18.0060 C   0  0  0  0  0  0  0  0  0  0  0  0
   36.5900   44.5570   17.7030 N   0  0  0  0  0  0  0  0  0  0  0  0
   36.0510   43.9570   18.8190 C   0  0  0  0  0  0  0  0  0  0  0  0
   35.9760   44.8190   16.4170 C   0  0  0  0  0  2  0  0  0  0  0  0
   36.9490   44.9210   15.3600 O   0  0  0  0  0  0  0  0  0  0  0  0
   38.0940   45.6210   15.6640 C   0  0  0  0  0  0  0  0  0  0  0  0
   38.7800   46.1720   14.5810 C   0  0  0  0  0  3  0  0  0  0  0  0
   39.9620   46.8730   14.7970 C   0  0  0  0  0  3  0  0  0  0  0  0
   40.4600   47.0120   16.0940 C   0  0  0  0  0  3  0  0  0  0  0  0
   39.7850   46.4410   17.1820 C   0  0  0  0  0  0  0  0  0  0  0  0
   40.4850   46.6810   18.7440 Cl  0  0  0  0  0  0  0  0  0  0  0  0
   38.5950   45.7290   16.9730 C   0  0  0  0  0  0  0  0  0  0  0  0
   34.7030   43.4070   18.8690 C   0  0  0  0  0  0  0  0  0  0  0  0
   34.4140   42.1810   18.2600 C   0  0  0  0  0  3  0  0  0  0  0  0
   33.1180   41.6630   18.3020 C   0  0  0  0  0  3  0  0  0  0  0  0
   32.1060   42.3680   18.9520 C   0  0  0  0  0  3  0  0  0  0  0  0
   32.3890   43.5890   19.5650 C   0  0  0  0  0  3  0  0  0  0  0  0
   33.6840   44.1080   19.5250 C   0  0  0  0  0  3  0  0  0  0  0  0
   37.2280   42.8170   23.8960 C   0  0  0  0  0  0  0  0  0  0  0  0
   37.6280   44.1040   23.4820 C   0  0  0  0  0  3  0  0  0  0  0  0
   37.5480   44.5090   22.1450 C   0  0  0  0  0  3  0  0  0  0  0  0
   37.0520   43.6500   21.1590 C   0  0  0  0  0  0  0  0  0  0  0  0
   36.6420   42.3740   21.5450 C   0  0  0  0  0  3  0  0  0  0  0  0
   36.7250   41.9720   22.8860 C   0  0  0  0  0  3  0  0  0  0  0  0
   37.3330   42.3560   25.4000 C   0  0  2  0  0  0  0  0  0  0  0  0
   37.6600   43.4030   26.5030 C   0  0  0  0  0  2  0  0  0  0  0  0
   38.3790   42.2520   27.2920 C   0  0  1  0  0  0  0  0  0  0  0  0
   38.6110   41.6040   25.8810 C   0  0  0  0  0  2  0  0  0  0  0  0
   36.0960   41.6030   25.7280 N   0  0  0  0  0  4  0  0  0  0  0  0
   35.2550   42.1800   25.6140 H   0  0  0  0  0  0  0  0  0  0  0  0
   36.1280   41.2940   26.7210 H   0  0  0  0  0  0  0  0  0  0  0  0
   35.9850   40.7670   25.1450 H   0  0  0  0  0  0  0  0  0  0  0  0
   39.5720   42.6740   28.1250 C   0  0  0  0  0  3  0  0  0  0  0  0
   40.7410   41.7680   28.4070 C   0  0  0  0  0  2  0  0  0  0  0  0
   40.9380   43.0250   27.6020 C   0  0  0  0  0  2  0  0  0  0  0  0
   37.4240   41.4600   28.0630 O   0  0  0  0  0  0  0  0  0  0  0  0
   37.9610   41.0510   28.7750 H   0  0  0  0  0  0  0  0  0  0  0  0
  1 24  1  0  0  0  0
  2  1  1  0  0  0  0
  3  2  2  0  0  0  0
  4  3  1  0  0  0  0
  4  5  1  0  0  0  0
  5 15  1  0  0  0  0
  5  1  2  0  0  0  0
  6  4  1  0  0  0  0
  7  8  1  0  0  0  0
  7  6  1  0  0  0  0
  8 14  1  0  0  0  0
  9 10  1  0  0  0  0
  9  8  2  0  0  0  0
 10 11  2  0  0  0  0
 11 12  1  0  0  0  0
 12 13  1  0  0  0  0
 14 12  2  0  0  0  0
 14  3  1  0  0  0  0
 15 20  1  0  0  0  0
 16 17  1  0  0  0  0
 16 15  2  0  0  0  0
 17 18  2  0  0  0  0
 18 19  1  0  0  0  0
 20 19  2  0  0  0  0
 21 27  1  0  0  0  0
 22 21  1  0  0  0  0
 23 22  2  0  0  0  0
 24 25  2  0  0  0  0
 24 23  1  0  0  0  0
 25 26  1  0  0  0  0
 26 21  2  0  0  0  0
 27 31  1  1  0  0  0
 27 30  1  0  0  0  0
 27 28  1  0  0  0  0
 28 29  1  0  0  0  0
 29 38  1  1  0  0  0
 29 35  1  0  0  0  0
 30 29  1  0  0  0  0
 31 33  1  0  0  0  0
 32 31  1  0  0  0  0
 34 31  1  0  0  0  0
 35 36  1  0  0  0  0
 37 35  1  0  0  0  0
 37 36  1  0  0  0  0
 38 39  1  0  0  0  0
M  END
>  <minimizedAffinity>
-11.6704731

$$$$
