
 OpenBabel11232419113D

 39 45  0  0  1  0  0  0  0  0999 V2000
   34.6070   42.7980   19.2360 C   0  0  0  0  0  0  0  0  0  0  0  0
   33.5300   41.9470   19.3510 N   0  0  0  0  0  0  0  0  0  0  0  0
   32.8230   42.0940   18.2550 C   0  0  0  0  0  0  0  0  0  0  0  0
   33.4190   43.0120   17.4320 N   0  0  0  0  0  0  0  0  0  0  0  0
   34.5770   43.4700   18.0200 C   0  0  0  0  0  0  0  0  0  0  0  0
   32.9030   43.2680   16.1030 C   0  0  0  0  0  2  0  0  0  0  0  0
   31.4730   43.1170   16.0350 O   0  0  0  0  0  0  0  0  0  0  0  0
   30.9510   42.0400   16.7140 C   0  0  0  0  0  0  0  0  0  0  0  0
   29.7160   41.5720   16.2640 C   0  0  0  0  0  3  0  0  0  0  0  0
   29.1040   40.5030   16.9110 C   0  0  0  0  0  3  0  0  0  0  0  0
   29.7250   39.9120   18.0130 C   0  0  0  0  0  3  0  0  0  0  0  0
   30.9550   40.3930   18.4820 C   0  0  0  0  0  0  0  0  0  0  0  0
   31.6370   39.5820   19.8480 Cl  0  0  0  0  0  0  0  0  0  0  0  0
   31.5770   41.4730   17.8390 C   0  0  0  0  0  0  0  0  0  0  0  0
   35.5030   44.3890   17.3730 C   0  0  0  0  0  0  0  0  0  0  0  0
   36.6470   43.9060   16.7290 C   0  0  0  0  0  3  0  0  0  0  0  0
   37.5370   44.7920   16.1190 C   0  0  0  0  0  3  0  0  0  0  0  0
   37.2870   46.1630   16.1500 C   0  0  0  0  0  3  0  0  0  0  0  0
   36.1460   46.6510   16.7870 C   0  0  0  0  0  3  0  0  0  0  0  0
   35.2550   45.7660   17.3970 C   0  0  0  0  0  3  0  0  0  0  0  0
   37.6740   43.1160   22.2630 C   0  0  0  0  0  0  0  0  0  0  0  0
   37.3170   44.1920   21.4260 C   0  0  0  0  0  3  0  0  0  0  0  0
   36.3090   44.0770   20.4620 C   0  0  0  0  0  3  0  0  0  0  0  0
   35.6010   42.8830   20.2960 C   0  0  0  0  0  0  0  0  0  0  0  0
   35.9300   41.8050   21.1180 C   0  0  0  0  0  3  0  0  0  0  0  0
   36.9410   41.9240   22.0830 C   0  0  0  0  0  3  0  0  0  0  0  0
   38.8190   43.2410   23.3390 C   0  0  2  0  0  0  0  0  0  0  0  0
   38.6700   42.5160   24.7070 C   0  0  0  0  0  2  0  0  0  0  0  0
   39.5110   43.6800   25.3420 C   0  0  1  0  0  0  0  0  0  0  0  0
   38.9490   44.5550   24.1670 C   0  0  0  0  0  2  0  0  0  0  0  0
   40.0990   42.8780   22.6790 N   0  0  0  0  0  4  0  0  0  0  0  0
   40.0840   41.9180   22.3170 H   0  0  0  0  0  0  0  0  0  0  0  0
   40.8760   42.9380   23.3680 H   0  0  0  0  0  0  0  0  0  0  0  0
   40.3240   43.5050   21.8990 H   0  0  0  0  0  0  0  0  0  0  0  0
   39.1610   44.0360   26.7730 C   0  0  0  0  0  3  0  0  0  0  0  0
   37.7490   44.0540   27.2940 C   0  0  0  0  0  2  0  0  0  0  0  0
   38.7450   43.0720   27.8490 C   0  0  0  0  0  2  0  0  0  0  0  0
   40.9440   43.4550   25.1670 O   0  0  0  0  0  0  0  0  0  0  0  0
   41.3640   43.9800   25.8810 H   0  0  0  0  0  0  0  0  0  0  0  0
  1  2  1  0  0  0  0
  1 24  1  0  0  0  0
  3  2  2  0  0  0  0
  4  5  1  0  0  0  0
  4  3  1  0  0  0  0
  5  1  2  0  0  0  0
  6  4  1  0  0  0  0
  7  6  1  0  0  0  0
  7  8  1  0  0  0  0
  8 14  1  0  0  0  0
  9  8  2  0  0  0  0
  9 10  1  0  0  0  0
 10 11  2  0  0  0  0
 11 12  1  0  0  0  0
 12 13  1  0  0  0  0
 14  3  1  0  0  0  0
 14 12  2  0  0  0  0
 15 20  1  0  0  0  0
 15  5  1  0  0  0  0
 16 15  2  0  0  0  0
 17 18  2  0  0  0  0
 17 16  1  0  0  0  0
 18 19  1  0  0  0  0
 19 20  2  0  0  0  0
 21 27  1  0  0  0  0
 22 21  2  0  0  0  0
 23 22  1  0  0  0  0
 24 23  2  0  0  0  0
 24 25  1  0  0  0  0
 25 26  2  0  0  0  0
 26 21  1  0  0  0  0
 27 31  1  6  0  0  0
 27 30  1  0  0  0  0
 27 28  1  0  0  0  0
 28 29  1  0  0  0  0
 29 38  1  6  0  0  0
 29 35  1  0  0  0  0
 30 29  1  0  0  0  0
 31 33  1  0  0  0  0
 32 31  1  0  0  0  0
 34 31  1  0  0  0  0
 35 36  1  0  0  0  0
 35 37  1  0  0  0  0
 36 37  1  0  0  0  0
 38 39  1  0  0  0  0
M  END
>  <minimizedAffinity>
-10.610424

$$$$
