
 OpenBabel11232419113D

 39 45  0  0  1  0  0  0  0  0999 V2000
   36.8930   44.8210   18.4010 C   0  0  0  0  0  0  0  0  0  0  0  0
   37.6170   45.6390   17.5610 N   0  0  0  0  0  0  0  0  0  0  0  0
   36.8830   45.8060   16.4850 C   0  0  0  0  0  0  0  0  0  0  0  0
   35.7030   45.1250   16.6110 N   0  0  0  0  0  0  0  0  0  0  0  0
   35.6660   44.4960   17.8360 C   0  0  0  0  0  0  0  0  0  0  0  0
   34.6610   45.2430   15.6110 C   0  0  0  0  0  2  0  0  0  0  0  0
   35.1970   45.4440   14.2890 O   0  0  0  0  0  0  0  0  0  0  0  0
   36.2570   46.3160   14.1970 C   0  0  0  0  0  0  0  0  0  0  0  0
   36.4490   46.9180   12.9540 C   0  0  0  0  0  3  0  0  0  0  0  0
   37.5160   47.7930   12.7680 C   0  0  0  0  0  3  0  0  0  0  0  0
   38.3920   48.0540   13.8220 C   0  0  0  0  0  3  0  0  0  0  0  0
   38.2150   47.4340   15.0660 C   0  0  0  0  0  0  0  0  0  0  0  0
   39.3540   47.8350   16.3040 Cl  0  0  0  0  0  0  0  0  0  0  0  0
   37.1460   46.5470   15.2630 C   0  0  0  0  0  0  0  0  0  0  0  0
   34.5120   43.7580   18.3310 C   0  0  0  0  0  0  0  0  0  0  0  0
   34.3470   42.4050   18.0150 C   0  0  0  0  0  3  0  0  0  0  0  0
   33.2350   41.7040   18.4830 C   0  0  0  0  0  3  0  0  0  0  0  0
   32.2820   42.3530   19.2690 C   0  0  0  0  0  3  0  0  0  0  0  0
   32.4430   43.7000   19.5920 C   0  0  0  0  0  3  0  0  0  0  0  0
   33.5560   44.4020   19.1250 C   0  0  0  0  0  3  0  0  0  0  0  0
   38.3350   43.7390   22.3270 C   0  0  0  0  0  0  0  0  0  0  0  0
   37.0400   43.4150   21.8770 C   0  0  0  0  0  3  0  0  0  0  0  0
   36.5940   43.7590   20.5960 C   0  0  0  0  0  3  0  0  0  0  0  0
   37.4280   44.4320   19.6980 C   0  0  0  0  0  0  0  0  0  0  0  0
   38.7180   44.7570   20.1160 C   0  0  0  0  0  3  0  0  0  0  0  0
   39.1600   44.4110   21.4020 C   0  0  0  0  0  3  0  0  0  0  0  0
   38.8320   43.3650   23.7760 C   0  0  2  0  0  0  0  0  0  0  0  0
   38.0110   42.3600   24.6330 C   0  0  0  0  0  2  0  0  0  0  0  0
   38.5030   43.1410   25.9030 C   0  0  1  0  0  0  0  0  0  0  0  0
   38.6160   44.3770   24.9420 C   0  0  0  0  0  2  0  0  0  0  0  0
   40.2520   42.9430   23.6710 N   0  0  0  0  0  4  0  0  0  0  0  0
   40.3640   42.1270   23.0590 H   0  0  0  0  0  0  0  0  0  0  0  0
   40.6080   42.6760   24.6110 H   0  0  0  0  0  0  0  0  0  0  0  0
   40.8530   43.6910   23.3100 H   0  0  0  0  0  0  0  0  0  0  0  0
   37.5310   43.1840   27.0650 C   0  0  0  0  0  3  0  0  0  0  0  0
   37.1060   44.4630   27.7340 C   0  0  0  0  0  2  0  0  0  0  0  0
   36.0950   43.6250   27.0010 C   0  0  0  0  0  2  0  0  0  0  0  0
   39.8330   42.6970   26.3170 O   0  0  0  0  0  0  0  0  0  0  0  0
   39.8870   42.9340   27.2670 H   0  0  0  0  0  0  0  0  0  0  0  0
  1 24  1  0  0  0  0
  2  1  1  0  0  0  0
  3  4  1  0  0  0  0
  3  2  2  0  0  0  0
  4  5  1  0  0  0  0
  5 15  1  0  0  0  0
  5  1  2  0  0  0  0
  6  4  1  0  0  0  0
  7  6  1  0  0  0  0
  8  7  1  0  0  0  0
  8 14  1  0  0  0  0
  9  8  2  0  0  0  0
 10  9  1  0  0  0  0
 10 11  2  0  0  0  0
 11 12  1  0  0  0  0
 12 14  2  0  0  0  0
 12 13  1  0  0  0  0
 14  3  1  0  0  0  0
 15 20  1  0  0  0  0
 16 15  2  0  0  0  0
 16 17  1  0  0  0  0
 17 18  2  0  0  0  0
 18 19  1  0  0  0  0
 20 19  2  0  0  0  0
 21 27  1  0  0  0  0
 22 21  1  0  0  0  0
 23 22  2  0  0  0  0
 24 25  2  0  0  0  0
 24 23  1  0  0  0  0
 25 26  1  0  0  0  0
 26 21  2  0  0  0  0
 27 31  1  6  0  0  0
 27 28  1  0  0  0  0
 27 30  1  0  0  0  0
 28 29  1  0  0  0  0
 29 38  1  1  0  0  0
 29 35  1  0  0  0  0
 30 29  1  0  0  0  0
 31 33  1  0  0  0  0
 32 31  1  0  0  0  0
 34 31  1  0  0  0  0
 35 36  1  0  0  0  0
 37 35  1  0  0  0  0
 37 36  1  0  0  0  0
 38 39  1  0  0  0  0
M  END
>  <minimizedAffinity>
-10.7217093

$$$$
