
 OpenBabel11232419113D

 39 45  0  0  1  0  0  0  0  0999 V2000
   36.9130   44.5130   17.8800 C   0  0  0  0  0  0  0  0  0  0  0  0
   37.6680   44.5250   19.0330 N   0  0  0  0  0  0  0  0  0  0  0  0
   38.7190   45.2700   18.7790 C   0  0  0  0  0  0  0  0  0  0  0  0
   38.6580   45.7460   17.4970 N   0  0  0  0  0  0  0  0  0  0  0  0
   37.5040   45.2970   16.8960 C   0  0  0  0  0  0  0  0  0  0  0  0
   39.6380   46.6940   17.0050 C   0  0  0  0  0  2  0  0  0  0  0  0
   40.9340   46.4950   17.6000 O   0  0  0  0  0  0  0  0  0  0  0  0
   40.9400   46.2290   18.9500 C   0  0  0  0  0  0  0  0  0  0  0  0
   42.1170   46.5430   19.6300 C   0  0  0  0  0  3  0  0  0  0  0  0
   42.2170   46.2810   20.9930 C   0  0  0  0  0  3  0  0  0  0  0  0
   41.1450   45.6970   21.6690 C   0  0  0  0  0  3  0  0  0  0  0  0
   39.9700   45.3600   20.9840 C   0  0  0  0  0  0  0  0  0  0  0  0
   38.7010   44.6480   21.9200 Cl  0  0  0  0  0  0  0  0  0  0  0  0
   39.8600   45.6150   19.6100 C   0  0  0  0  0  0  0  0  0  0  0  0
   37.0820   45.6910   15.5590 C   0  0  0  0  0  0  0  0  0  0  0  0
   35.7550   46.0600   15.3140 C   0  0  0  0  0  3  0  0  0  0  0  0
   35.3520   46.4280   14.0290 C   0  0  0  0  0  3  0  0  0  0  0  0
   36.2750   46.4280   12.9840 C   0  0  0  0  0  3  0  0  0  0  0  0
   37.6010   46.0650   13.2220 C   0  0  0  0  0  3  0  0  0  0  0  0
   38.0040   45.6990   14.5070 C   0  0  0  0  0  3  0  0  0  0  0  0
   33.2300   42.2540   17.8730 C   0  0  0  0  0  0  0  0  0  0  0  0
   33.5220   43.2310   18.8470 C   0  0  0  0  0  3  0  0  0  0  0  0
   34.7130   43.9650   18.8250 C   0  0  0  0  0  3  0  0  0  0  0  0
   35.6640   43.7670   17.8200 C   0  0  0  0  0  0  0  0  0  0  0  0
   35.3960   42.8120   16.8400 C   0  0  0  0  0  3  0  0  0  0  0  0
   34.2010   42.0780   16.8660 C   0  0  0  0  0  3  0  0  0  0  0  0
   31.8960   41.4160   17.9070 C   0  0  2  0  0  0  0  0  0  0  0  0
   31.1560   41.2050   19.2590 C   0  0  0  0  0  2  0  0  0  0  0  0
   30.6680   39.8200   18.7010 C   0  0  1  0  0  0  0  0  0  0  0  0
   31.9680   39.8610   17.8220 C   0  0  0  0  0  2  0  0  0  0  0  0
   30.9820   41.9810   16.8810 N   0  0  0  0  0  4  0  0  0  0  0  0
   30.7630   42.9660   17.0650 H   0  0  0  0  0  0  0  0  0  0  0  0
   30.0840   41.4570   16.8860 H   0  0  0  0  0  0  0  0  0  0  0  0
   31.3750   41.9180   15.9360 H   0  0  0  0  0  0  0  0  0  0  0  0
   30.4970   38.7220   19.7310 C   0  0  0  0  0  3  0  0  0  0  0  0
   31.3910   37.5130   19.8000 C   0  0  0  0  0  2  0  0  0  0  0  0
   31.3660   38.4970   20.9380 C   0  0  0  0  0  2  0  0  0  0  0  0
   29.4820   39.9750   17.8620 O   0  0  0  0  0  0  0  0  0  0  0  0
   29.0500   39.0940   17.8810 H   0  0  0  0  0  0  0  0  0  0  0  0
  1  2  1  0  0  0  0
  3  2  2  0  0  0  0
  3 14  1  0  0  0  0
  4  3  1  0  0  0  0
  5  4  1  0  0  0  0
  5  1  2  0  0  0  0
  6  4  1  0  0  0  0
  6  7  1  0  0  0  0
  7  8  1  0  0  0  0
  8 14  2  0  0  0  0
  8  9  1  0  0  0  0
  9 10  2  0  0  0  0
 10 11  1  0  0  0  0
 12 11  2  0  0  0  0
 12 13  1  0  0  0  0
 14 12  1  0  0  0  0
 15  5  1  0  0  0  0
 16 15  1  0  0  0  0
 17 16  2  0  0  0  0
 18 19  2  0  0  0  0
 18 17  1  0  0  0  0
 19 20  1  0  0  0  0
 20 15  2  0  0  0  0
 21 27  1  0  0  0  0
 21 22  1  0  0  0  0
 23 22  2  0  0  0  0
 24  1  1  0  0  0  0
 24 23  1  0  0  0  0
 25 26  1  0  0  0  0
 25 24  2  0  0  0  0
 26 21  2  0  0  0  0
 27 31  1  6  0  0  0
 27 28  1  0  0  0  0
 29 38  1  6  0  0  0
 29 28  1  0  0  0  0
 29 35  1  0  0  0  0
 30 27  1  0  0  0  0
 30 29  1  0  0  0  0
 31 33  1  0  0  0  0
 31 32  1  0  0  0  0
 34 31  1  0  0  0  0
 35 36  1  0  0  0  0
 35 37  1  0  0  0  0
 36 37  1  0  0  0  0
 38 39  1  0  0  0  0
M  END
>  <minimizedAffinity>
-11.0679665

$$$$
