
 OpenBabel11232419113D

 39 45  0  0  1  0  0  0  0  0999 V2000
   35.6390   44.5940   17.9160 C   0  0  0  0  0  0  0  0  0  0  0  0
   34.4300   43.9970   18.1990 N   0  0  0  0  0  0  0  0  0  0  0  0
   33.6390   44.2690   17.1870 C   0  0  0  0  0  0  0  0  0  0  0  0
   34.3060   45.0180   16.2560 N   0  0  0  0  0  0  0  0  0  0  0  0
   35.5990   45.2300   16.6810 C   0  0  0  0  0  0  0  0  0  0  0  0
   33.6940   45.3500   14.9860 C   0  0  0  0  0  2  0  0  0  0  0  0
   32.2670   45.5080   15.0950 O   0  0  0  0  0  0  0  0  0  0  0  0
   31.6190   44.5840   15.8820 C   0  0  0  0  0  0  0  0  0  0  0  0
   30.2670   44.3820   15.6030 C   0  0  0  0  0  3  0  0  0  0  0  0
   29.5300   43.4850   16.3690 C   0  0  0  0  0  3  0  0  0  0  0  0
   30.1450   42.7990   17.4180 C   0  0  0  0  0  3  0  0  0  0  0  0
   31.4970   43.0150   17.7150 C   0  0  0  0  0  0  0  0  0  0  0  0
   32.1590   42.1070   19.0290 Cl  0  0  0  0  0  0  0  0  0  0  0  0
   32.2470   43.9210   16.9510 C   0  0  0  0  0  0  0  0  0  0  0  0
   36.6090   45.9140   15.8860 C   0  0  0  0  0  0  0  0  0  0  0  0
   36.7550   47.3030   15.9670 C   0  0  0  0  0  3  0  0  0  0  0  0
   37.7180   47.9550   15.1960 C   0  0  0  0  0  3  0  0  0  0  0  0
   38.5390   47.2220   14.3390 C   0  0  0  0  0  3  0  0  0  0  0  0
   38.4010   45.8360   14.2560 C   0  0  0  0  0  3  0  0  0  0  0  0
   37.4390   45.1830   15.0280 C   0  0  0  0  0  3  0  0  0  0  0  0
   38.8480   44.3620   20.8000 C   0  0  0  0  0  0  0  0  0  0  0  0
   37.5340   43.9420   21.0890 C   0  0  0  0  0  3  0  0  0  0  0  0
   36.5100   44.0090   20.1380 C   0  0  0  0  0  3  0  0  0  0  0  0
   36.7540   44.4870   18.8470 C   0  0  0  0  0  0  0  0  0  0  0  0
   38.0480   44.9010   18.5330 C   0  0  0  0  0  3  0  0  0  0  0  0
   39.0720   44.8340   19.4900 C   0  0  0  0  0  3  0  0  0  0  0  0
   39.9980   44.3010   21.8770 C   0  0  2  0  0  0  0  0  0  0  0  0
   39.9790   43.1830   22.9580 C   0  0  0  0  0  2  0  0  0  0  0  0
   40.6850   44.1980   23.9270 C   0  0  1  0  0  0  0  0  0  0  0  0
   39.9850   45.3090   23.0660 C   0  0  0  0  0  2  0  0  0  0  0  0
   41.2950   44.3220   21.1530 N   0  0  0  0  0  4  0  0  0  0  0  0
   41.3900   43.5220   20.5170 H   0  0  0  0  0  0  0  0  0  0  0  0
   42.0770   44.2690   21.8370 H   0  0  0  0  0  0  0  0  0  0  0  0
   41.4180   45.1780   20.6030 H   0  0  0  0  0  0  0  0  0  0  0  0
   40.3330   44.0570   25.3940 C   0  0  0  0  0  3  0  0  0  0  0  0
   40.6190   42.8140   26.1920 C   0  0  0  0  0  2  0  0  0  0  0  0
   41.2990   44.1090   26.5450 C   0  0  0  0  0  2  0  0  0  0  0  0
   42.1290   44.2220   23.7090 O   0  0  0  0  0  0  0  0  0  0  0  0
   42.5000   44.5560   24.5530 H   0  0  0  0  0  0  0  0  0  0  0  0
  1  2  1  0  0  0  0
  1 24  1  0  0  0  0
  3  2  2  0  0  0  0
  4  5  1  0  0  0  0
  4  3  1  0  0  0  0
  5  1  2  0  0  0  0
  6  7  1  0  0  0  0
  6  4  1  0  0  0  0
  7  8  1  0  0  0  0
  8 14  1  0  0  0  0
  9  8  2  0  0  0  0
  9 10  1  0  0  0  0
 10 11  2  0  0  0  0
 11 12  1  0  0  0  0
 12 13  1  0  0  0  0
 14  3  1  0  0  0  0
 14 12  2  0  0  0  0
 15 16  1  0  0  0  0
 15  5  1  0  0  0  0
 17 16  2  0  0  0  0
 18 17  1  0  0  0  0
 19 18  2  0  0  0  0
 19 20  1  0  0  0  0
 20 15  2  0  0  0  0
 21 22  1  0  0  0  0
 21 27  1  0  0  0  0
 23 22  2  0  0  0  0
 24 23  1  0  0  0  0
 25 24  2  0  0  0  0
 25 26  1  0  0  0  0
 26 21  2  0  0  0  0
 27 31  1  6  0  0  0
 27 28  1  0  0  0  0
 27 30  1  0  0  0  0
 28 29  1  0  0  0  0
 29 38  1  6  0  0  0
 29 35  1  0  0  0  0
 30 29  1  0  0  0  0
 31 33  1  0  0  0  0
 32 31  1  0  0  0  0
 34 31  1  0  0  0  0
 35 36  1  0  0  0  0
 35 37  1  0  0  0  0
 36 37  1  0  0  0  0
 38 39  1  0  0  0  0
M  END
>  <minimizedAffinity>
-11.6778765

$$$$
