
 OpenBabel11232419113D

 39 45  0  0  1  0  0  0  0  0999 V2000
   36.8680   45.0260   17.3980 C   0  0  0  0  0  0  0  0  0  0  0  0
   37.5450   44.8910   18.5910 N   0  0  0  0  0  0  0  0  0  0  0  0
   38.6880   45.5200   18.4400 C   0  0  0  0  0  0  0  0  0  0  0  0
   38.7630   46.0630   17.1850 N   0  0  0  0  0  0  0  0  0  0  0  0
   37.6040   45.7830   16.4950 C   0  0  0  0  0  0  0  0  0  0  0  0
   39.8730   46.9130   16.8050 C   0  0  0  0  0  2  0  0  0  0  0  0
   41.0970   46.5340   17.4600 O   0  0  0  0  0  0  0  0  0  0  0  0
   40.9890   46.2020   18.7910 C   0  0  0  0  0  0  0  0  0  0  0  0
   42.1480   46.3420   19.5540 C   0  0  0  0  0  3  0  0  0  0  0  0
   42.1320   46.0020   20.9030 C   0  0  0  0  0  3  0  0  0  0  0  0
   40.9590   45.5150   21.4830 C   0  0  0  0  0  3  0  0  0  0  0  0
   39.7990   45.3520   20.7140 C   0  0  0  0  0  0  0  0  0  0  0  0
   38.4010   44.7480   21.5340 Cl  0  0  0  0  0  0  0  0  0  0  0  0
   39.8060   45.6870   19.3520 C   0  0  0  0  0  0  0  0  0  0  0  0
   37.3160   46.2910   15.1610 C   0  0  0  0  0  0  0  0  0  0  0  0
   37.2830   47.6680   14.9190 C   0  0  0  0  0  3  0  0  0  0  0  0
   36.9960   48.1500   13.6400 C   0  0  0  0  0  3  0  0  0  0  0  0
   36.7390   47.2580   12.6000 C   0  0  0  0  0  3  0  0  0  0  0  0
   36.7750   45.8830   12.8340 C   0  0  0  0  0  3  0  0  0  0  0  0
   37.0630   45.4000   14.1120 C   0  0  0  0  0  3  0  0  0  0  0  0
   32.9040   43.3450   17.0400 C   0  0  0  0  0  0  0  0  0  0  0  0
   33.1290   44.7090   17.3140 C   0  0  0  0  0  3  0  0  0  0  0  0
   34.4200   45.2410   17.4100 C   0  0  0  0  0  3  0  0  0  0  0  0
   35.5480   44.4350   17.2250 C   0  0  0  0  0  0  0  0  0  0  0  0
   35.3520   43.0830   16.9440 C   0  0  0  0  0  3  0  0  0  0  0  0
   34.0560   42.5540   16.8500 C   0  0  0  0  0  3  0  0  0  0  0  0
   31.4500   42.7430   16.9470 C   0  0  2  0  0  0  0  0  0  0  0  0
   30.5780   43.0310   15.6910 C   0  0  0  0  0  2  0  0  0  0  0  0
   29.3190   42.9500   16.6260 C   0  0  1  0  0  0  0  0  0  0  0  0
   30.2980   43.3980   17.7690 C   0  0  0  0  0  2  0  0  0  0  0  0
   31.5480   41.2840   17.2060 N   0  0  0  0  0  4  0  0  0  0  0  0
   32.1490   40.8140   16.5200 H   0  0  0  0  0  0  0  0  0  0  0  0
   30.6040   40.8530   17.1390 H   0  0  0  0  0  0  0  0  0  0  0  0
   31.9190   41.0800   18.1400 H   0  0  0  0  0  0  0  0  0  0  0  0
   28.1590   43.8470   16.2420 C   0  0  0  0  0  3  0  0  0  0  0  0
   26.8750   43.3230   15.6570 C   0  0  0  0  0  2  0  0  0  0  0  0
   26.8700   44.0000   17.0010 C   0  0  0  0  0  2  0  0  0  0  0  0
   28.8990   41.5660   16.8310 O   0  0  0  0  0  0  0  0  0  0  0  0
   27.9520   41.6310   17.0790 H   0  0  0  0  0  0  0  0  0  0  0  0
  1  2  1  0  0  0  0
  3  2  2  0  0  0  0
  3 14  1  0  0  0  0
  4  3  1  0  0  0  0
  5  4  1  0  0  0  0
  5  1  2  0  0  0  0
  6  4  1  0  0  0  0
  6  7  1  0  0  0  0
  7  8  1  0  0  0  0
  8 14  2  0  0  0  0
  8  9  1  0  0  0  0
  9 10  2  0  0  0  0
 10 11  1  0  0  0  0
 12 11  2  0  0  0  0
 12 13  1  0  0  0  0
 14 12  1  0  0  0  0
 15  5  1  0  0  0  0
 16 15  1  0  0  0  0
 17 16  2  0  0  0  0
 18 19  2  0  0  0  0
 18 17  1  0  0  0  0
 19 20  1  0  0  0  0
 20 15  2  0  0  0  0
 21 22  1  0  0  0  0
 22 23  2  0  0  0  0
 24  1  1  0  0  0  0
 24 23  1  0  0  0  0
 25 24  2  0  0  0  0
 26 25  1  0  0  0  0
 26 21  2  0  0  0  0
 27 21  1  0  0  0  0
 27 31  1  1  0  0  0
 27 30  1  0  0  0  0
 28 29  1  0  0  0  0
 28 27  1  0  0  0  0
 29 38  1  1  0  0  0
 29 30  1  0  0  0  0
 31 34  1  0  0  0  0
 32 31  1  0  0  0  0
 33 31  1  0  0  0  0
 35 29  1  0  0  0  0
 35 37  1  0  0  0  0
 36 35  1  0  0  0  0
 36 37  1  0  0  0  0
 38 39  1  0  0  0  0
M  END
>  <minimizedAffinity>
-13.0281696

$$$$

 OpenBabel11232419113D

 39 45  0  0  1  0  0  0  0  0999 V2000
   36.1810   44.7640   17.3170 C   0  0  0  0  0  0  0  0  0  0  0  0
   36.7350   44.5220   18.5560 N   0  0  0  0  0  0  0  0  0  0  0  0
   37.9550   45.0050   18.5150 C   0  0  0  0  0  0  0  0  0  0  0  0
   38.2010   45.5590   17.2880 N   0  0  0  0  0  0  0  0  0  0  0  0
   37.0780   45.4400   16.5000 C   0  0  0  0  0  0  0  0  0  0  0  0
   39.4350   46.2700   17.0230 C   0  0  0  0  0  2  0  0  0  0  0  0
   40.5450   45.7270   17.7630 O   0  0  0  0  0  0  0  0  0  0  0  0
   40.2860   45.3850   19.0700 C   0  0  0  0  0  0  0  0  0  0  0  0
   41.3860   45.3630   19.9270 C   0  0  0  0  0  3  0  0  0  0  0  0
   41.2160   45.0020   21.2600 C   0  0  0  0  0  3  0  0  0  0  0  0
   39.9480   44.6540   21.7290 C   0  0  0  0  0  3  0  0  0  0  0  0
   38.8440   44.6540   20.8650 C   0  0  0  0  0  0  0  0  0  0  0  0
   37.3200   44.2140   21.5530 Cl  0  0  0  0  0  0  0  0  0  0  0  0
   39.0060   45.0120   19.5190 C   0  0  0  0  0  0  0  0  0  0  0  0
   36.9660   46.0060   15.1620 C   0  0  0  0  0  0  0  0  0  0  0  0
   36.8540   45.1710   14.0460 C   0  0  0  0  0  3  0  0  0  0  0  0
   36.7570   45.7170   12.7650 C   0  0  0  0  0  3  0  0  0  0  0  0
   36.7720   47.1020   12.5950 C   0  0  0  0  0  3  0  0  0  0  0  0
   36.8790   47.9400   13.7050 C   0  0  0  0  0  3  0  0  0  0  0  0
   36.9750   47.3950   14.9860 C   0  0  0  0  0  3  0  0  0  0  0  0
   32.0780   43.6900   16.4920 C   0  0  0  0  0  0  0  0  0  0  0  0
   32.6750   44.8620   15.9830 C   0  0  0  0  0  3  0  0  0  0  0  0
   34.0100   45.1870   16.2470 C   0  0  0  0  0  3  0  0  0  0  0  0
   34.8180   44.3480   17.0220 C   0  0  0  0  0  0  0  0  0  0  0  0
   34.2530   43.1780   17.5290 C   0  0  0  0  0  3  0  0  0  0  0  0
   32.9140   42.8570   17.2630 C   0  0  0  0  0  3  0  0  0  0  0  0
   30.5700   43.3330   16.2070 C   0  0  2  0  0  0  0  0  0  0  0  0
   29.5710   43.2180   17.3940 C   0  0  0  0  0  2  0  0  0  0  0  0
   28.7960   42.1410   16.5530 C   0  0  1  0  0  0  0  0  0  0  0  0
   30.1830   41.8600   15.8740 C   0  0  0  0  0  2  0  0  0  0  0  0
   30.0680   44.2790   15.1770 N   0  0  0  0  0  4  0  0  0  0  0  0
   30.1270   45.2540   15.4920 H   0  0  0  0  0  0  0  0  0  0  0  0
   29.0680   44.0770   14.9750 H   0  0  0  0  0  0  0  0  0  0  0  0
   30.5870   44.2020   14.2950 H   0  0  0  0  0  0  0  0  0  0  0  0
   28.1200   41.0460   17.3540 C   0  0  0  0  0  3  0  0  0  0  0  0
   26.8820   41.2750   18.1780 C   0  0  0  0  0  2  0  0  0  0  0  0
   26.8380   40.3490   16.9930 C   0  0  0  0  0  2  0  0  0  0  0  0
   27.8830   42.7680   15.6010 O   0  0  0  0  0  0  0  0  0  0  0  0
   27.2090   42.0800   15.4160 H   0  0  0  0  0  0  0  0  0  0  0  0
  1  2  1  0  0  0  0
  3  2  2  0  0  0  0
  3 14  1  0  0  0  0
  4  3  1  0  0  0  0
  5  4  1  0  0  0  0
  5  1  2  0  0  0  0
  6  4  1  0  0  0  0
  6  7  1  0  0  0  0
  7  8  1  0  0  0  0
  8 14  2  0  0  0  0
  8  9  1  0  0  0  0
  9 10  2  0  0  0  0
 10 11  1  0  0  0  0
 12 13  1  0  0  0  0
 12 11  2  0  0  0  0
 14 12  1  0  0  0  0
 15  5  1  0  0  0  0
 16 15  2  0  0  0  0
 17 16  1  0  0  0  0
 18 17  2  0  0  0  0
 18 19  1  0  0  0  0
 19 20  2  0  0  0  0
 20 15  1  0  0  0  0
 21 26  1  0  0  0  0
 22 23  1  0  0  0  0
 22 21  2  0  0  0  0
 23 24  2  0  0  0  0
 24  1  1  0  0  0  0
 24 25  1  0  0  0  0
 26 25  2  0  0  0  0
 27 31  1  6  0  0  0
 27 21  1  0  0  0  0
 27 28  1  0  0  0  0
 29 38  1  6  0  0  0
 29 35  1  0  0  0  0
 29 28  1  0  0  0  0
 30 27  1  0  0  0  0
 30 29  1  0  0  0  0
 31 32  1  0  0  0  0
 33 31  1  0  0  0  0
 34 31  1  0  0  0  0
 35 36  1  0  0  0  0
 37 35  1  0  0  0  0
 37 36  1  0  0  0  0
 39 38  1  0  0  0  0
M  END
>  <minimizedAffinity>
-12.7898808

$$$$

 OpenBabel11232419113D

 39 45  0  0  1  0  0  0  0  0999 V2000
   35.6390   44.5940   17.9160 C   0  0  0  0  0  0  0  0  0  0  0  0
   34.4300   43.9970   18.1990 N   0  0  0  0  0  0  0  0  0  0  0  0
   33.6390   44.2690   17.1870 C   0  0  0  0  0  0  0  0  0  0  0  0
   34.3060   45.0180   16.2560 N   0  0  0  0  0  0  0  0  0  0  0  0
   35.5990   45.2300   16.6810 C   0  0  0  0  0  0  0  0  0  0  0  0
   33.6940   45.3500   14.9860 C   0  0  0  0  0  2  0  0  0  0  0  0
   32.2670   45.5080   15.0950 O   0  0  0  0  0  0  0  0  0  0  0  0
   31.6190   44.5840   15.8820 C   0  0  0  0  0  0  0  0  0  0  0  0
   30.2670   44.3820   15.6030 C   0  0  0  0  0  3  0  0  0  0  0  0
   29.5300   43.4850   16.3690 C   0  0  0  0  0  3  0  0  0  0  0  0
   30.1450   42.7990   17.4180 C   0  0  0  0  0  3  0  0  0  0  0  0
   31.4970   43.0150   17.7150 C   0  0  0  0  0  0  0  0  0  0  0  0
   32.1590   42.1070   19.0290 Cl  0  0  0  0  0  0  0  0  0  0  0  0
   32.2470   43.9210   16.9510 C   0  0  0  0  0  0  0  0  0  0  0  0
   36.6090   45.9140   15.8860 C   0  0  0  0  0  0  0  0  0  0  0  0
   36.7550   47.3030   15.9670 C   0  0  0  0  0  3  0  0  0  0  0  0
   37.7180   47.9550   15.1960 C   0  0  0  0  0  3  0  0  0  0  0  0
   38.5390   47.2220   14.3390 C   0  0  0  0  0  3  0  0  0  0  0  0
   38.4010   45.8360   14.2560 C   0  0  0  0  0  3  0  0  0  0  0  0
   37.4390   45.1830   15.0280 C   0  0  0  0  0  3  0  0  0  0  0  0
   38.8480   44.3620   20.8000 C   0  0  0  0  0  0  0  0  0  0  0  0
   37.5340   43.9420   21.0890 C   0  0  0  0  0  3  0  0  0  0  0  0
   36.5100   44.0090   20.1380 C   0  0  0  0  0  3  0  0  0  0  0  0
   36.7540   44.4870   18.8470 C   0  0  0  0  0  0  0  0  0  0  0  0
   38.0480   44.9010   18.5330 C   0  0  0  0  0  3  0  0  0  0  0  0
   39.0720   44.8340   19.4900 C   0  0  0  0  0  3  0  0  0  0  0  0
   39.9980   44.3010   21.8770 C   0  0  2  0  0  0  0  0  0  0  0  0
   39.9790   43.1830   22.9580 C   0  0  0  0  0  2  0  0  0  0  0  0
   40.6850   44.1980   23.9270 C   0  0  1  0  0  0  0  0  0  0  0  0
   39.9850   45.3090   23.0660 C   0  0  0  0  0  2  0  0  0  0  0  0
   41.2950   44.3220   21.1530 N   0  0  0  0  0  4  0  0  0  0  0  0
   41.3900   43.5220   20.5170 H   0  0  0  0  0  0  0  0  0  0  0  0
   42.0770   44.2690   21.8370 H   0  0  0  0  0  0  0  0  0  0  0  0
   41.4180   45.1780   20.6030 H   0  0  0  0  0  0  0  0  0  0  0  0
   40.3330   44.0570   25.3940 C   0  0  0  0  0  3  0  0  0  0  0  0
   40.6190   42.8140   26.1920 C   0  0  0  0  0  2  0  0  0  0  0  0
   41.2990   44.1090   26.5450 C   0  0  0  0  0  2  0  0  0  0  0  0
   42.1290   44.2220   23.7090 O   0  0  0  0  0  0  0  0  0  0  0  0
   42.5000   44.5560   24.5530 H   0  0  0  0  0  0  0  0  0  0  0  0
  1  2  1  0  0  0  0
  1 24  1  0  0  0  0
  3  2  2  0  0  0  0
  4  5  1  0  0  0  0
  4  3  1  0  0  0  0
  5  1  2  0  0  0  0
  6  7  1  0  0  0  0
  6  4  1  0  0  0  0
  7  8  1  0  0  0  0
  8 14  1  0  0  0  0
  9  8  2  0  0  0  0
  9 10  1  0  0  0  0
 10 11  2  0  0  0  0
 11 12  1  0  0  0  0
 12 13  1  0  0  0  0
 14  3  1  0  0  0  0
 14 12  2  0  0  0  0
 15 16  1  0  0  0  0
 15  5  1  0  0  0  0
 17 16  2  0  0  0  0
 18 17  1  0  0  0  0
 19 18  2  0  0  0  0
 19 20  1  0  0  0  0
 20 15  2  0  0  0  0
 21 22  1  0  0  0  0
 21 27  1  0  0  0  0
 23 22  2  0  0  0  0
 24 23  1  0  0  0  0
 25 24  2  0  0  0  0
 25 26  1  0  0  0  0
 26 21  2  0  0  0  0
 27 31  1  6  0  0  0
 27 28  1  0  0  0  0
 27 30  1  0  0  0  0
 28 29  1  0  0  0  0
 29 38  1  6  0  0  0
 29 35  1  0  0  0  0
 30 29  1  0  0  0  0
 31 33  1  0  0  0  0
 32 31  1  0  0  0  0
 34 31  1  0  0  0  0
 35 36  1  0  0  0  0
 35 37  1  0  0  0  0
 36 37  1  0  0  0  0
 38 39  1  0  0  0  0
M  END
>  <minimizedAffinity>
-11.6778765

$$$$

 OpenBabel11232419113D

 39 45  0  0  1  0  0  0  0  0999 V2000
   37.0490   44.0990   19.7740 C   0  0  0  0  0  0  0  0  0  0  0  0
   38.1250   44.7880   19.2580 N   0  0  0  0  0  0  0  0  0  0  0  0
   37.8300   45.0510   18.0060 C   0  0  0  0  0  0  0  0  0  0  0  0
   36.5900   44.5570   17.7030 N   0  0  0  0  0  0  0  0  0  0  0  0
   36.0510   43.9570   18.8190 C   0  0  0  0  0  0  0  0  0  0  0  0
   35.9760   44.8190   16.4170 C   0  0  0  0  0  2  0  0  0  0  0  0
   36.9490   44.9210   15.3600 O   0  0  0  0  0  0  0  0  0  0  0  0
   38.0940   45.6210   15.6640 C   0  0  0  0  0  0  0  0  0  0  0  0
   38.7800   46.1720   14.5810 C   0  0  0  0  0  3  0  0  0  0  0  0
   39.9620   46.8730   14.7970 C   0  0  0  0  0  3  0  0  0  0  0  0
   40.4600   47.0120   16.0940 C   0  0  0  0  0  3  0  0  0  0  0  0
   39.7850   46.4410   17.1820 C   0  0  0  0  0  0  0  0  0  0  0  0
   40.4850   46.6810   18.7440 Cl  0  0  0  0  0  0  0  0  0  0  0  0
   38.5950   45.7290   16.9730 C   0  0  0  0  0  0  0  0  0  0  0  0
   34.7030   43.4070   18.8690 C   0  0  0  0  0  0  0  0  0  0  0  0
   34.4140   42.1810   18.2600 C   0  0  0  0  0  3  0  0  0  0  0  0
   33.1180   41.6630   18.3020 C   0  0  0  0  0  3  0  0  0  0  0  0
   32.1060   42.3680   18.9520 C   0  0  0  0  0  3  0  0  0  0  0  0
   32.3890   43.5890   19.5650 C   0  0  0  0  0  3  0  0  0  0  0  0
   33.6840   44.1080   19.5250 C   0  0  0  0  0  3  0  0  0  0  0  0
   37.2280   42.8170   23.8960 C   0  0  0  0  0  0  0  0  0  0  0  0
   37.6280   44.1040   23.4820 C   0  0  0  0  0  3  0  0  0  0  0  0
   37.5480   44.5090   22.1450 C   0  0  0  0  0  3  0  0  0  0  0  0
   37.0520   43.6500   21.1590 C   0  0  0  0  0  0  0  0  0  0  0  0
   36.6420   42.3740   21.5450 C   0  0  0  0  0  3  0  0  0  0  0  0
   36.7250   41.9720   22.8860 C   0  0  0  0  0  3  0  0  0  0  0  0
   37.3330   42.3560   25.4000 C   0  0  2  0  0  0  0  0  0  0  0  0
   37.6600   43.4030   26.5030 C   0  0  0  0  0  2  0  0  0  0  0  0
   38.3790   42.2520   27.2920 C   0  0  1  0  0  0  0  0  0  0  0  0
   38.6110   41.6040   25.8810 C   0  0  0  0  0  2  0  0  0  0  0  0
   36.0960   41.6030   25.7280 N   0  0  0  0  0  4  0  0  0  0  0  0
   35.2550   42.1800   25.6140 H   0  0  0  0  0  0  0  0  0  0  0  0
   36.1280   41.2940   26.7210 H   0  0  0  0  0  0  0  0  0  0  0  0
   35.9850   40.7670   25.1450 H   0  0  0  0  0  0  0  0  0  0  0  0
   39.5720   42.6740   28.1250 C   0  0  0  0  0  3  0  0  0  0  0  0
   40.7410   41.7680   28.4070 C   0  0  0  0  0  2  0  0  0  0  0  0
   40.9380   43.0250   27.6020 C   0  0  0  0  0  2  0  0  0  0  0  0
   37.4240   41.4600   28.0630 O   0  0  0  0  0  0  0  0  0  0  0  0
   37.9610   41.0510   28.7750 H   0  0  0  0  0  0  0  0  0  0  0  0
  1 24  1  0  0  0  0
  2  1  1  0  0  0  0
  3  2  2  0  0  0  0
  4  3  1  0  0  0  0
  4  5  1  0  0  0  0
  5 15  1  0  0  0  0
  5  1  2  0  0  0  0
  6  4  1  0  0  0  0
  7  8  1  0  0  0  0
  7  6  1  0  0  0  0
  8 14  1  0  0  0  0
  9 10  1  0  0  0  0
  9  8  2  0  0  0  0
 10 11  2  0  0  0  0
 11 12  1  0  0  0  0
 12 13  1  0  0  0  0
 14 12  2  0  0  0  0
 14  3  1  0  0  0  0
 15 20  1  0  0  0  0
 16 17  1  0  0  0  0
 16 15  2  0  0  0  0
 17 18  2  0  0  0  0
 18 19  1  0  0  0  0
 20 19  2  0  0  0  0
 21 27  1  0  0  0  0
 22 21  1  0  0  0  0
 23 22  2  0  0  0  0
 24 25  2  0  0  0  0
 24 23  1  0  0  0  0
 25 26  1  0  0  0  0
 26 21  2  0  0  0  0
 27 31  1  1  0  0  0
 27 30  1  0  0  0  0
 27 28  1  0  0  0  0
 28 29  1  0  0  0  0
 29 38  1  1  0  0  0
 29 35  1  0  0  0  0
 30 29  1  0  0  0  0
 31 33  1  0  0  0  0
 32 31  1  0  0  0  0
 34 31  1  0  0  0  0
 35 36  1  0  0  0  0
 37 35  1  0  0  0  0
 37 36  1  0  0  0  0
 38 39  1  0  0  0  0
M  END
>  <minimizedAffinity>
-11.6704731

$$$$

 OpenBabel11232419113D

 39 45  0  0  1  0  0  0  0  0999 V2000
   36.9130   44.5130   17.8800 C   0  0  0  0  0  0  0  0  0  0  0  0
   37.6680   44.5250   19.0330 N   0  0  0  0  0  0  0  0  0  0  0  0
   38.7190   45.2700   18.7790 C   0  0  0  0  0  0  0  0  0  0  0  0
   38.6580   45.7460   17.4970 N   0  0  0  0  0  0  0  0  0  0  0  0
   37.5040   45.2970   16.8960 C   0  0  0  0  0  0  0  0  0  0  0  0
   39.6380   46.6940   17.0050 C   0  0  0  0  0  2  0  0  0  0  0  0
   40.9340   46.4950   17.6000 O   0  0  0  0  0  0  0  0  0  0  0  0
   40.9400   46.2290   18.9500 C   0  0  0  0  0  0  0  0  0  0  0  0
   42.1170   46.5430   19.6300 C   0  0  0  0  0  3  0  0  0  0  0  0
   42.2170   46.2810   20.9930 C   0  0  0  0  0  3  0  0  0  0  0  0
   41.1450   45.6970   21.6690 C   0  0  0  0  0  3  0  0  0  0  0  0
   39.9700   45.3600   20.9840 C   0  0  0  0  0  0  0  0  0  0  0  0
   38.7010   44.6480   21.9200 Cl  0  0  0  0  0  0  0  0  0  0  0  0
   39.8600   45.6150   19.6100 C   0  0  0  0  0  0  0  0  0  0  0  0
   37.0820   45.6910   15.5590 C   0  0  0  0  0  0  0  0  0  0  0  0
   35.7550   46.0600   15.3140 C   0  0  0  0  0  3  0  0  0  0  0  0
   35.3520   46.4280   14.0290 C   0  0  0  0  0  3  0  0  0  0  0  0
   36.2750   46.4280   12.9840 C   0  0  0  0  0  3  0  0  0  0  0  0
   37.6010   46.0650   13.2220 C   0  0  0  0  0  3  0  0  0  0  0  0
   38.0040   45.6990   14.5070 C   0  0  0  0  0  3  0  0  0  0  0  0
   33.2300   42.2540   17.8730 C   0  0  0  0  0  0  0  0  0  0  0  0
   33.5220   43.2310   18.8470 C   0  0  0  0  0  3  0  0  0  0  0  0
   34.7130   43.9650   18.8250 C   0  0  0  0  0  3  0  0  0  0  0  0
   35.6640   43.7670   17.8200 C   0  0  0  0  0  0  0  0  0  0  0  0
   35.3960   42.8120   16.8400 C   0  0  0  0  0  3  0  0  0  0  0  0
   34.2010   42.0780   16.8660 C   0  0  0  0  0  3  0  0  0  0  0  0
   31.8960   41.4160   17.9070 C   0  0  2  0  0  0  0  0  0  0  0  0
   31.1560   41.2050   19.2590 C   0  0  0  0  0  2  0  0  0  0  0  0
   30.6680   39.8200   18.7010 C   0  0  1  0  0  0  0  0  0  0  0  0
   31.9680   39.8610   17.8220 C   0  0  0  0  0  2  0  0  0  0  0  0
   30.9820   41.9810   16.8810 N   0  0  0  0  0  4  0  0  0  0  0  0
   30.7630   42.9660   17.0650 H   0  0  0  0  0  0  0  0  0  0  0  0
   30.0840   41.4570   16.8860 H   0  0  0  0  0  0  0  0  0  0  0  0
   31.3750   41.9180   15.9360 H   0  0  0  0  0  0  0  0  0  0  0  0
   30.4970   38.7220   19.7310 C   0  0  0  0  0  3  0  0  0  0  0  0
   31.3910   37.5130   19.8000 C   0  0  0  0  0  2  0  0  0  0  0  0
   31.3660   38.4970   20.9380 C   0  0  0  0  0  2  0  0  0  0  0  0
   29.4820   39.9750   17.8620 O   0  0  0  0  0  0  0  0  0  0  0  0
   29.0500   39.0940   17.8810 H   0  0  0  0  0  0  0  0  0  0  0  0
  1  2  1  0  0  0  0
  3  2  2  0  0  0  0
  3 14  1  0  0  0  0
  4  3  1  0  0  0  0
  5  4  1  0  0  0  0
  5  1  2  0  0  0  0
  6  4  1  0  0  0  0
  6  7  1  0  0  0  0
  7  8  1  0  0  0  0
  8 14  2  0  0  0  0
  8  9  1  0  0  0  0
  9 10  2  0  0  0  0
 10 11  1  0  0  0  0
 12 11  2  0  0  0  0
 12 13  1  0  0  0  0
 14 12  1  0  0  0  0
 15  5  1  0  0  0  0
 16 15  1  0  0  0  0
 17 16  2  0  0  0  0
 18 19  2  0  0  0  0
 18 17  1  0  0  0  0
 19 20  1  0  0  0  0
 20 15  2  0  0  0  0
 21 27  1  0  0  0  0
 21 22  1  0  0  0  0
 23 22  2  0  0  0  0
 24  1  1  0  0  0  0
 24 23  1  0  0  0  0
 25 26  1  0  0  0  0
 25 24  2  0  0  0  0
 26 21  2  0  0  0  0
 27 31  1  6  0  0  0
 27 28  1  0  0  0  0
 29 38  1  6  0  0  0
 29 28  1  0  0  0  0
 29 35  1  0  0  0  0
 30 27  1  0  0  0  0
 30 29  1  0  0  0  0
 31 33  1  0  0  0  0
 31 32  1  0  0  0  0
 34 31  1  0  0  0  0
 35 36  1  0  0  0  0
 35 37  1  0  0  0  0
 36 37  1  0  0  0  0
 38 39  1  0  0  0  0
M  END
>  <minimizedAffinity>
-11.0679665

$$$$

 OpenBabel11232419113D

 39 45  0  0  1  0  0  0  0  0999 V2000
   34.5650   42.7840   19.0890 C   0  0  0  0  0  0  0  0  0  0  0  0
   33.5150   41.9150   19.2950 N   0  0  0  0  0  0  0  0  0  0  0  0
   32.7400   42.0150   18.2400 C   0  0  0  0  0  0  0  0  0  0  0  0
   33.2650   42.9180   17.3550 N   0  0  0  0  0  0  0  0  0  0  0  0
   34.4460   43.4170   17.8580 C   0  0  0  0  0  0  0  0  0  0  0  0
   32.6640   43.1240   16.0530 C   0  0  0  0  0  2  0  0  0  0  0  0
   31.2360   42.9420   16.0780 O   0  0  0  0  0  0  0  0  0  0  0  0
   30.7800   41.8760   16.8190 C   0  0  0  0  0  0  0  0  0  0  0  0
   29.5310   41.3700   16.4590 C   0  0  0  0  0  3  0  0  0  0  0  0
   28.9830   40.3100   17.1740 C   0  0  0  0  0  3  0  0  0  0  0  0
   29.6810   39.7650   18.2520 C   0  0  0  0  0  3  0  0  0  0  0  0
   30.9260   40.2850   18.6310 C   0  0  0  0  0  0  0  0  0  0  0  0
   31.7080   39.5300   19.9760 Cl  0  0  0  0  0  0  0  0  0  0  0  0
   31.4850   41.3570   17.9200 C   0  0  0  0  0  0  0  0  0  0  0  0
   35.3110   44.3340   17.1290 C   0  0  0  0  0  0  0  0  0  0  0  0
   35.2060   45.7160   17.3250 C   0  0  0  0  0  3  0  0  0  0  0  0
   36.0300   46.5920   16.6160 C   0  0  0  0  0  3  0  0  0  0  0  0
   36.9630   46.0900   15.7090 C   0  0  0  0  0  3  0  0  0  0  0  0
   37.0760   44.7140   15.5120 C   0  0  0  0  0  3  0  0  0  0  0  0
   36.2530   43.8370   16.2210 C   0  0  0  0  0  3  0  0  0  0  0  0
   37.5780   43.1360   22.1650 C   0  0  0  0  0  0  0  0  0  0  0  0
   36.8150   41.9660   21.9790 C   0  0  0  0  0  3  0  0  0  0  0  0
   35.8540   41.8630   20.9670 C   0  0  0  0  0  3  0  0  0  0  0  0
   35.6190   42.9210   20.0830 C   0  0  0  0  0  0  0  0  0  0  0  0
   36.3680   44.0870   20.2410 C   0  0  0  0  0  3  0  0  0  0  0  0
   37.3300   44.1860   21.2580 C   0  0  0  0  0  3  0  0  0  0  0  0
   38.6490   43.2570   23.3150 C   0  0  2  0  0  0  0  0  0  0  0  0
   39.1190   44.6650   23.7820 C   0  0  0  0  0  2  0  0  0  0  0  0
   40.5120   44.0200   24.1100 C   0  0  1  0  0  0  0  0  0  0  0  0
   40.1490   42.9770   22.9950 C   0  0  0  0  0  2  0  0  0  0  0  0
   38.1720   42.4450   24.4640 N   0  0  0  0  0  4  0  0  0  0  0  0
   37.2660   42.7760   24.8150 H   0  0  0  0  0  0  0  0  0  0  0  0
   38.8530   42.5150   25.2470 H   0  0  0  0  0  0  0  0  0  0  0  0
   38.0730   41.4540   24.2230 H   0  0  0  0  0  0  0  0  0  0  0  0
   41.7140   44.9250   23.9250 C   0  0  0  0  0  3  0  0  0  0  0  0
   41.6990   46.1380   23.0340 C   0  0  0  0  0  2  0  0  0  0  0  0
   41.8890   46.2960   24.5180 C   0  0  0  0  0  2  0  0  0  0  0  0
   40.5040   43.3810   25.4240 O   0  0  0  0  0  0  0  0  0  0  0  0
   41.4480   43.3560   25.6920 H   0  0  0  0  0  0  0  0  0  0  0  0
  1  2  1  0  0  0  0
  1 24  1  0  0  0  0
  3  2  2  0  0  0  0
  4  5  1  0  0  0  0
  4  3  1  0  0  0  0
  5  1  2  0  0  0  0
  6  7  1  0  0  0  0
  6  4  1  0  0  0  0
  7  8  1  0  0  0  0
  8 14  1  0  0  0  0
  9  8  2  0  0  0  0
  9 10  1  0  0  0  0
 10 11  2  0  0  0  0
 11 12  1  0  0  0  0
 12 13  1  0  0  0  0
 14  3  1  0  0  0  0
 14 12  2  0  0  0  0
 15 16  1  0  0  0  0
 15  5  1  0  0  0  0
 17 16  2  0  0  0  0
 18 17  1  0  0  0  0
 19 18  2  0  0  0  0
 19 20  1  0  0  0  0
 20 15  2  0  0  0  0
 21 27  1  0  0  0  0
 22 21  1  0  0  0  0
 23 22  2  0  0  0  0
 24 25  2  0  0  0  0
 24 23  1  0  0  0  0
 25 26  1  0  0  0  0
 26 21  2  0  0  0  0
 27 28  1  0  0  0  0
 27 31  1  1  0  0  0
 28 29  1  0  0  0  0
 29 38  1  1  0  0  0
 30 27  1  0  0  0  0
 30 29  1  0  0  0  0
 31 32  1  0  0  0  0
 31 33  1  0  0  0  0
 34 31  1  0  0  0  0
 35 29  1  0  0  0  0
 35 37  1  0  0  0  0
 36 35  1  0  0  0  0
 36 37  1  0  0  0  0
 38 39  1  0  0  0  0
M  END
>  <minimizedAffinity>
-10.8286743

$$$$

 OpenBabel11232419113D

 39 45  0  0  1  0  0  0  0  0999 V2000
   36.8930   44.8210   18.4010 C   0  0  0  0  0  0  0  0  0  0  0  0
   37.6170   45.6390   17.5610 N   0  0  0  0  0  0  0  0  0  0  0  0
   36.8830   45.8060   16.4850 C   0  0  0  0  0  0  0  0  0  0  0  0
   35.7030   45.1250   16.6110 N   0  0  0  0  0  0  0  0  0  0  0  0
   35.6660   44.4960   17.8360 C   0  0  0  0  0  0  0  0  0  0  0  0
   34.6610   45.2430   15.6110 C   0  0  0  0  0  2  0  0  0  0  0  0
   35.1970   45.4440   14.2890 O   0  0  0  0  0  0  0  0  0  0  0  0
   36.2570   46.3160   14.1970 C   0  0  0  0  0  0  0  0  0  0  0  0
   36.4490   46.9180   12.9540 C   0  0  0  0  0  3  0  0  0  0  0  0
   37.5160   47.7930   12.7680 C   0  0  0  0  0  3  0  0  0  0  0  0
   38.3920   48.0540   13.8220 C   0  0  0  0  0  3  0  0  0  0  0  0
   38.2150   47.4340   15.0660 C   0  0  0  0  0  0  0  0  0  0  0  0
   39.3540   47.8350   16.3040 Cl  0  0  0  0  0  0  0  0  0  0  0  0
   37.1460   46.5470   15.2630 C   0  0  0  0  0  0  0  0  0  0  0  0
   34.5120   43.7580   18.3310 C   0  0  0  0  0  0  0  0  0  0  0  0
   34.3470   42.4050   18.0150 C   0  0  0  0  0  3  0  0  0  0  0  0
   33.2350   41.7040   18.4830 C   0  0  0  0  0  3  0  0  0  0  0  0
   32.2820   42.3530   19.2690 C   0  0  0  0  0  3  0  0  0  0  0  0
   32.4430   43.7000   19.5920 C   0  0  0  0  0  3  0  0  0  0  0  0
   33.5560   44.4020   19.1250 C   0  0  0  0  0  3  0  0  0  0  0  0
   38.3350   43.7390   22.3270 C   0  0  0  0  0  0  0  0  0  0  0  0
   37.0400   43.4150   21.8770 C   0  0  0  0  0  3  0  0  0  0  0  0
   36.5940   43.7590   20.5960 C   0  0  0  0  0  3  0  0  0  0  0  0
   37.4280   44.4320   19.6980 C   0  0  0  0  0  0  0  0  0  0  0  0
   38.7180   44.7570   20.1160 C   0  0  0  0  0  3  0  0  0  0  0  0
   39.1600   44.4110   21.4020 C   0  0  0  0  0  3  0  0  0  0  0  0
   38.8320   43.3650   23.7760 C   0  0  2  0  0  0  0  0  0  0  0  0
   38.0110   42.3600   24.6330 C   0  0  0  0  0  2  0  0  0  0  0  0
   38.5030   43.1410   25.9030 C   0  0  1  0  0  0  0  0  0  0  0  0
   38.6160   44.3770   24.9420 C   0  0  0  0  0  2  0  0  0  0  0  0
   40.2520   42.9430   23.6710 N   0  0  0  0  0  4  0  0  0  0  0  0
   40.3640   42.1270   23.0590 H   0  0  0  0  0  0  0  0  0  0  0  0
   40.6080   42.6760   24.6110 H   0  0  0  0  0  0  0  0  0  0  0  0
   40.8530   43.6910   23.3100 H   0  0  0  0  0  0  0  0  0  0  0  0
   37.5310   43.1840   27.0650 C   0  0  0  0  0  3  0  0  0  0  0  0
   37.1060   44.4630   27.7340 C   0  0  0  0  0  2  0  0  0  0  0  0
   36.0950   43.6250   27.0010 C   0  0  0  0  0  2  0  0  0  0  0  0
   39.8330   42.6970   26.3170 O   0  0  0  0  0  0  0  0  0  0  0  0
   39.8870   42.9340   27.2670 H   0  0  0  0  0  0  0  0  0  0  0  0
  1 24  1  0  0  0  0
  2  1  1  0  0  0  0
  3  4  1  0  0  0  0
  3  2  2  0  0  0  0
  4  5  1  0  0  0  0
  5 15  1  0  0  0  0
  5  1  2  0  0  0  0
  6  4  1  0  0  0  0
  7  6  1  0  0  0  0
  8  7  1  0  0  0  0
  8 14  1  0  0  0  0
  9  8  2  0  0  0  0
 10  9  1  0  0  0  0
 10 11  2  0  0  0  0
 11 12  1  0  0  0  0
 12 14  2  0  0  0  0
 12 13  1  0  0  0  0
 14  3  1  0  0  0  0
 15 20  1  0  0  0  0
 16 15  2  0  0  0  0
 16 17  1  0  0  0  0
 17 18  2  0  0  0  0
 18 19  1  0  0  0  0
 20 19  2  0  0  0  0
 21 27  1  0  0  0  0
 22 21  1  0  0  0  0
 23 22  2  0  0  0  0
 24 25  2  0  0  0  0
 24 23  1  0  0  0  0
 25 26  1  0  0  0  0
 26 21  2  0  0  0  0
 27 31  1  6  0  0  0
 27 28  1  0  0  0  0
 27 30  1  0  0  0  0
 28 29  1  0  0  0  0
 29 38  1  1  0  0  0
 29 35  1  0  0  0  0
 30 29  1  0  0  0  0
 31 33  1  0  0  0  0
 32 31  1  0  0  0  0
 34 31  1  0  0  0  0
 35 36  1  0  0  0  0
 37 35  1  0  0  0  0
 37 36  1  0  0  0  0
 38 39  1  0  0  0  0
M  END
>  <minimizedAffinity>
-10.7217093

$$$$

 OpenBabel11232419113D

 39 45  0  0  1  0  0  0  0  0999 V2000
   34.6070   42.7980   19.2360 C   0  0  0  0  0  0  0  0  0  0  0  0
   33.5300   41.9470   19.3510 N   0  0  0  0  0  0  0  0  0  0  0  0
   32.8230   42.0940   18.2550 C   0  0  0  0  0  0  0  0  0  0  0  0
   33.4190   43.0120   17.4320 N   0  0  0  0  0  0  0  0  0  0  0  0
   34.5770   43.4700   18.0200 C   0  0  0  0  0  0  0  0  0  0  0  0
   32.9030   43.2680   16.1030 C   0  0  0  0  0  2  0  0  0  0  0  0
   31.4730   43.1170   16.0350 O   0  0  0  0  0  0  0  0  0  0  0  0
   30.9510   42.0400   16.7140 C   0  0  0  0  0  0  0  0  0  0  0  0
   29.7160   41.5720   16.2640 C   0  0  0  0  0  3  0  0  0  0  0  0
   29.1040   40.5030   16.9110 C   0  0  0  0  0  3  0  0  0  0  0  0
   29.7250   39.9120   18.0130 C   0  0  0  0  0  3  0  0  0  0  0  0
   30.9550   40.3930   18.4820 C   0  0  0  0  0  0  0  0  0  0  0  0
   31.6370   39.5820   19.8480 Cl  0  0  0  0  0  0  0  0  0  0  0  0
   31.5770   41.4730   17.8390 C   0  0  0  0  0  0  0  0  0  0  0  0
   35.5030   44.3890   17.3730 C   0  0  0  0  0  0  0  0  0  0  0  0
   36.6470   43.9060   16.7290 C   0  0  0  0  0  3  0  0  0  0  0  0
   37.5370   44.7920   16.1190 C   0  0  0  0  0  3  0  0  0  0  0  0
   37.2870   46.1630   16.1500 C   0  0  0  0  0  3  0  0  0  0  0  0
   36.1460   46.6510   16.7870 C   0  0  0  0  0  3  0  0  0  0  0  0
   35.2550   45.7660   17.3970 C   0  0  0  0  0  3  0  0  0  0  0  0
   37.6740   43.1160   22.2630 C   0  0  0  0  0  0  0  0  0  0  0  0
   37.3170   44.1920   21.4260 C   0  0  0  0  0  3  0  0  0  0  0  0
   36.3090   44.0770   20.4620 C   0  0  0  0  0  3  0  0  0  0  0  0
   35.6010   42.8830   20.2960 C   0  0  0  0  0  0  0  0  0  0  0  0
   35.9300   41.8050   21.1180 C   0  0  0  0  0  3  0  0  0  0  0  0
   36.9410   41.9240   22.0830 C   0  0  0  0  0  3  0  0  0  0  0  0
   38.8190   43.2410   23.3390 C   0  0  2  0  0  0  0  0  0  0  0  0
   38.6700   42.5160   24.7070 C   0  0  0  0  0  2  0  0  0  0  0  0
   39.5110   43.6800   25.3420 C   0  0  1  0  0  0  0  0  0  0  0  0
   38.9490   44.5550   24.1670 C   0  0  0  0  0  2  0  0  0  0  0  0
   40.0990   42.8780   22.6790 N   0  0  0  0  0  4  0  0  0  0  0  0
   40.0840   41.9180   22.3170 H   0  0  0  0  0  0  0  0  0  0  0  0
   40.8760   42.9380   23.3680 H   0  0  0  0  0  0  0  0  0  0  0  0
   40.3240   43.5050   21.8990 H   0  0  0  0  0  0  0  0  0  0  0  0
   39.1610   44.0360   26.7730 C   0  0  0  0  0  3  0  0  0  0  0  0
   37.7490   44.0540   27.2940 C   0  0  0  0  0  2  0  0  0  0  0  0
   38.7450   43.0720   27.8490 C   0  0  0  0  0  2  0  0  0  0  0  0
   40.9440   43.4550   25.1670 O   0  0  0  0  0  0  0  0  0  0  0  0
   41.3640   43.9800   25.8810 H   0  0  0  0  0  0  0  0  0  0  0  0
  1  2  1  0  0  0  0
  1 24  1  0  0  0  0
  3  2  2  0  0  0  0
  4  5  1  0  0  0  0
  4  3  1  0  0  0  0
  5  1  2  0  0  0  0
  6  4  1  0  0  0  0
  7  6  1  0  0  0  0
  7  8  1  0  0  0  0
  8 14  1  0  0  0  0
  9  8  2  0  0  0  0
  9 10  1  0  0  0  0
 10 11  2  0  0  0  0
 11 12  1  0  0  0  0
 12 13  1  0  0  0  0
 14  3  1  0  0  0  0
 14 12  2  0  0  0  0
 15 20  1  0  0  0  0
 15  5  1  0  0  0  0
 16 15  2  0  0  0  0
 17 18  2  0  0  0  0
 17 16  1  0  0  0  0
 18 19  1  0  0  0  0
 19 20  2  0  0  0  0
 21 27  1  0  0  0  0
 22 21  2  0  0  0  0
 23 22  1  0  0  0  0
 24 23  2  0  0  0  0
 24 25  1  0  0  0  0
 25 26  2  0  0  0  0
 26 21  1  0  0  0  0
 27 31  1  6  0  0  0
 27 30  1  0  0  0  0
 27 28  1  0  0  0  0
 28 29  1  0  0  0  0
 29 38  1  6  0  0  0
 29 35  1  0  0  0  0
 30 29  1  0  0  0  0
 31 33  1  0  0  0  0
 32 31  1  0  0  0  0
 34 31  1  0  0  0  0
 35 36  1  0  0  0  0
 35 37  1  0  0  0  0
 36 37  1  0  0  0  0
 38 39  1  0  0  0  0
M  END
>  <minimizedAffinity>
-10.610424

$$$$

 OpenBabel11232419113D

 39 45  0  0  1  0  0  0  0  0999 V2000
   29.9360   40.8370   18.1590 C   0  0  0  0  0  0  0  0  0  0  0  0
   30.2500   39.7950   19.0050 N   0  0  0  0  0  0  0  0  0  0  0  0
   29.1170   39.1970   19.2920 C   0  0  0  0  0  0  0  0  0  0  0  0
   28.0810   39.8190   18.6480 N   0  0  0  0  0  0  0  0  0  0  0  0
   28.5710   40.8640   17.8970 C   0  0  0  0  0  0  0  0  0  0  0  0
   26.7380   39.2800   18.7010 C   0  0  0  0  0  2  0  0  0  0  0  0
   26.4670   38.6160   19.9500 O   0  0  0  0  0  0  0  0  0  0  0  0
   27.4800   37.8250   20.4420 C   0  0  0  0  0  0  0  0  0  0  0  0
   27.0940   36.8050   21.3100 C   0  0  0  0  0  3  0  0  0  0  0  0
   28.0580   35.9760   21.8750 C   0  0  0  0  0  3  0  0  0  0  0  0
   29.4070   36.1770   21.5760 C   0  0  0  0  0  3  0  0  0  0  0  0
   29.8010   37.2150   20.7210 C   0  0  0  0  0  0  0  0  0  0  0  0
   31.4960   37.3700   20.4140 Cl  0  0  0  0  0  0  0  0  0  0  0  0
   28.8360   38.0590   20.1510 C   0  0  0  0  0  0  0  0  0  0  0  0
   27.7490   41.6800   17.0150 C   0  0  0  0  0  0  0  0  0  0  0  0
   27.4610   43.0090   17.3430 C   0  0  0  0  0  3  0  0  0  0  0  0
   26.6630   43.7850   16.5000 C   0  0  0  0  0  3  0  0  0  0  0  0
   26.1510   43.2360   15.3260 C   0  0  0  0  0  3  0  0  0  0  0  0
   26.4370   41.9130   14.9900 C   0  0  0  0  0  3  0  0  0  0  0  0
   27.2360   41.1360   15.8320 C   0  0  0  0  0  3  0  0  0  0  0  0
   33.0510   43.5050   16.8020 C   0  0  0  0  0  0  0  0  0  0  0  0
   33.2260   42.6210   17.8860 C   0  0  0  0  0  3  0  0  0  0  0  0
   32.2110   41.7510   18.3030 C   0  0  0  0  0  3  0  0  0  0  0  0
   30.9770   41.7150   17.6460 C   0  0  0  0  0  0  0  0  0  0  0  0
   30.7820   42.5740   16.5650 C   0  0  0  0  0  3  0  0  0  0  0  0
   31.8020   43.4450   16.1520 C   0  0  0  0  0  3  0  0  0  0  0  0
   34.1880   44.4950   16.3440 C   0  0  2  0  0  0  0  0  0  0  0  0
   35.5270   43.9250   15.7920 C   0  0  0  0  0  2  0  0  0  0  0  0
   36.2360   45.1940   16.3850 C   0  0  1  0  0  0  0  0  0  0  0  0
   35.0570   45.2120   17.4210 C   0  0  0  0  0  2  0  0  0  0  0  0
   33.5870   45.4620   15.3900 N   0  0  0  0  0  4  0  0  0  0  0  0
   33.1990   44.9930   14.5640 H   0  0  0  0  0  0  0  0  0  0  0  0
   34.3170   46.1240   15.0570 H   0  0  0  0  0  0  0  0  0  0  0  0
   32.8370   46.0140   15.8190 H   0  0  0  0  0  0  0  0  0  0  0  0
   37.6560   44.9850   16.8710 C   0  0  0  0  0  3  0  0  0  0  0  0
   38.5440   46.1120   17.3260 C   0  0  0  0  0  2  0  0  0  0  0  0
   38.1200   45.0470   18.3000 C   0  0  0  0  0  2  0  0  0  0  0  0
   36.1300   46.3340   15.4760 O   0  0  0  0  0  0  0  0  0  0  0  0
   36.8790   46.9170   15.7240 H   0  0  0  0  0  0  0  0  0  0  0  0
  1  2  1  0  0  0  0
  2  3  2  0  0  0  0
  3 14  1  0  0  0  0
  4  6  1  0  0  0  0
  4  3  1  0  0  0  0
  5  1  2  0  0  0  0
  5  4  1  0  0  0  0
  6  7  1  0  0  0  0
  7  8  1  0  0  0  0
  8  9  1  0  0  0  0
  9 10  2  0  0  0  0
 11 10  1  0  0  0  0
 12 11  2  0  0  0  0
 13 12  1  0  0  0  0
 14  8  2  0  0  0  0
 14 12  1  0  0  0  0
 15 16  1  0  0  0  0
 15  5  1  0  0  0  0
 17 16  2  0  0  0  0
 18 17  1  0  0  0  0
 19 18  2  0  0  0  0
 19 20  1  0  0  0  0
 20 15  2  0  0  0  0
 21 22  1  0  0  0  0
 22 23  2  0  0  0  0
 24  1  1  0  0  0  0
 24 23  1  0  0  0  0
 25 24  2  0  0  0  0
 26 25  1  0  0  0  0
 26 21  2  0  0  0  0
 27 31  1  6  0  0  0
 27 21  1  0  0  0  0
 27 30  1  0  0  0  0
 28 27  1  0  0  0  0
 28 29  1  0  0  0  0
 29 38  1  6  0  0  0
 29 35  1  0  0  0  0
 29 30  1  0  0  0  0
 31 34  1  0  0  0  0
 32 31  1  0  0  0  0
 33 31  1  0  0  0  0
 35 36  1  0  0  0  0
 35 37  1  0  0  0  0
 36 37  1  0  0  0  0
 38 39  1  0  0  0  0
M  END
>  <minimizedAffinity>
-10.4942102

$$$$
