
 OpenBabel10152419073D

 37 40  0  0  1  0  0  0  0  0999 V2000
   10.5740   -9.7040    9.9090 C   0  0  2  0  0  3  0  0  0  0  0  0
   10.3290   -8.8810    8.6410 C   0  0  0  0  0  1  0  0  0  0  0  0
    9.3100  -13.2110   10.8220 C   0  0  0  0  0  0  0  0  0  0  0  0
    8.4870  -13.5010    9.7320 C   0  0  0  0  0  3  0  0  0  0  0  0
    8.2340  -12.5300    8.7640 C   0  0  0  0  0  3  0  0  0  0  0  0
    8.8670  -11.2890    8.8370 C   0  0  0  0  0  3  0  0  0  0  0  0
    9.7590  -11.0020    9.8840 C   0  0  0  0  0  0  0  0  0  0  0  0
    9.9260  -11.9580   10.9080 C   0  0  0  0  0  3  0  0  0  0  0  0
    9.2480  -14.3790   13.0390 C   0  0  0  0  0  0  0  0  0  0  0  0
   10.0180  -14.8910   13.8480 O   0  0  0  0  0  0  0  0  0  0  0  0
    9.5980  -14.2570   11.7140 N   0  0  0  0  0  0  0  0  0  0  0  0
   10.2910  -14.9330   11.4120 H   0  0  0  0  0  0  0  0  0  0  0  0
    5.1740  -13.6090   13.8250 C   0  0  0  0  0  0  0  0  0  0  0  0
    6.0670  -12.5500   13.9250 C   0  0  0  0  0  3  0  0  0  0  0  0
    7.4300  -12.7980   13.7450 C   0  0  0  0  0  3  0  0  0  0  0  0
    7.8570  -14.0940   13.4490 C   0  0  0  0  0  0  0  0  0  0  0  0
    6.8920  -15.0830   13.3410 C   0  0  0  0  0  3  0  0  0  0  0  0
    5.5670  -14.8710   13.5440 N   0  0  0  0  0  0  0  0  0  0  0  0
    3.0730  -14.5570   13.3950 C   0  0  0  0  0  1  0  0  0  0  0  0
    3.8180  -13.4550   13.9010 O   0  0  0  0  0  0  0  0  0  0  0  0
   10.2460   -8.9000   11.0800 N   0  0  0  0  0  0  0  0  0  0  0  0
   10.8120   -8.1010   11.3090 H   0  0  0  0  0  0  0  0  0  0  0  0
    8.9320   -8.9840   11.5300 C   0  0  0  0  0  0  0  0  0  0  0  0
    8.7690   -9.1990   12.8470 N   0  0  0  0  0  0  0  0  0  0  0  0
    7.5890   -9.6740   13.2340 C   0  0  0  0  0  3  0  0  0  0  0  0
    6.6000  -10.0340   12.4160 N   0  0  0  0  0  0  0  0  0  0  0  0
    6.7460   -9.7690   11.1070 C   0  0  0  0  0  0  0  0  0  0  0  0
    5.8020  -10.1880   10.1680 C   0  0  0  0  0  0  0  0  0  0  0  0
    5.8590   -9.8440    8.8090 C   0  0  0  0  0  3  0  0  0  0  0  0
    6.9260   -9.0940    8.3440 C   0  0  0  0  0  3  0  0  0  0  0  0
    7.9550   -8.7750    9.2260 C   0  0  0  0  0  3  0  0  0  0  0  0
    7.8850   -9.1310   10.6030 C   0  0  0  0  0  0  0  0  0  0  0  0
    4.8430  -11.2310   10.5530 C   0  0  0  0  0  0  0  0  0  0  0  0
    3.5490  -10.7850   10.6220 N   0  0  0  0  0  0  0  0  0  0  0  0
    5.1680  -12.3700   10.8340 O   0  0  0  0  0  0  0  0  0  0  0  0
    2.8260  -11.4310   10.9090 H   0  0  0  0  0  0  0  0  0  0  0  0
    3.2880   -9.8390   10.3730 H   0  0  0  0  0  0  0  0  0  0  0  0
  1  2  1  6  0  0  0
  1 21  1  0  0  0  0
  3  8  1  0  0  0  0
  3 11  1  0  0  0  0
  4  3  2  0  0  0  0
  5  6  2  0  0  0  0
  5  4  1  0  0  0  0
  6  7  1  0  0  0  0
  7  1  1  0  0  0  0
  7  8  2  0  0  0  0
  9 16  1  0  0  0  0
  9 10  2  0  0  0  0
 11  9  1  0  0  0  0
 12 11  1  0  0  0  0
 13 20  1  0  0  0  0
 13 14  1  0  0  0  0
 15 14  2  0  0  0  0
 16 15  1  0  0  0  0
 17 16  2  0  0  0  0
 17 18  1  0  0  0  0
 18 13  2  0  0  0  0
 19 20  1  0  0  0  0
 21 22  1  0  0  0  0
 21 23  1  0  0  0  0
 23 24  1  0  0  0  0
 24 25  2  0  0  0  0
 26 25  1  0  0  0  0
 27 26  2  0  0  0  0
 28 33  1  0  0  0  0
 28 27  1  0  0  0  0
 29 28  2  0  0  0  0
 30 29  1  0  0  0  0
 30 31  2  0  0  0  0
 31 32  1  0  0  0  0
 32 27  1  0  0  0  0
 32 23  2  0  0  0  0
 33 34  1  0  0  0  0
 33 35  2  0  0  0  0
 34 36  1  0  0  0  0
 37 34  1  0  0  0  0
M  END
>  <minimizedAffinity>
10.8279104

$$$$
