
 OpenBabel10152419393D

 37 40  0  0  0  0  0  0  0  0999 V2000
   -0.4100   -6.3950  -25.4480 C   0  0  0  0  0  0  0  0  0  0  0  0
   -1.4360   -6.1320  -26.3560 C   0  0  0  0  0  3  0  0  0  0  0  0
   -1.1340   -5.9110  -27.7010 C   0  0  0  0  0  3  0  0  0  0  0  0
    0.1910   -5.9510  -28.1490 C   0  0  0  0  0  3  0  0  0  0  0  0
    1.2340   -6.1950  -27.2560 C   0  0  0  0  0  0  0  0  0  0  0  0
    0.9190   -6.4220  -25.9100 C   0  0  0  0  0  3  0  0  0  0  0  0
    2.5920   -6.3010  -27.6020 N   0  0  0  0  0  0  0  0  0  0  0  0
    3.5350   -7.2830  -27.4190 C   0  0  0  0  0  0  0  0  0  0  0  0
    4.7210   -7.0450  -27.6420 O   0  0  0  0  0  0  0  0  0  0  0  0
    2.9970   -5.4990  -28.0720 H   0  0  0  0  0  0  0  0  0  0  0  0
    3.1710   -8.6500  -27.0650 C   0  0  0  0  0  0  0  0  0  0  0  0
    2.7770   -8.9480  -25.7650 C   0  0  0  0  0  0  0  0  0  0  0  0
    2.6280   -7.9760  -24.8530 F   0  0  0  0  0  0  0  0  0  0  0  0
    2.4950  -10.2600  -25.3940 C   0  0  0  0  0  3  0  0  0  0  0  0
    2.6280  -11.2800  -26.3350 C   0  0  0  0  0  0  0  0  0  0  0  0
    2.2820  -12.9020  -25.8860 Cl  0  0  0  0  0  0  0  0  0  0  0  0
    3.0400  -10.9950  -27.6370 C   0  0  0  0  0  3  0  0  0  0  0  0
    3.3180   -9.6780  -27.9920 C   0  0  0  0  0  0  0  0  0  0  0  0
    3.7380   -9.4250  -29.2390 F   0  0  0  0  0  0  0  0  0  0  0  0
   -0.6970   -6.6830  -23.9890 C   0  0  0  0  0  2  0  0  0  0  0  0
   -1.4580  -12.0220  -21.1100 C   0  0  0  0  0  0  0  0  0  0  0  0
   -0.6660  -12.8550  -21.9140 C   0  0  0  0  0  3  0  0  0  0  0  0
   -0.0370  -12.3250  -23.0270 C   0  0  0  0  0  3  0  0  0  0  0  0
   -0.1980  -10.9720  -23.3150 C   0  0  0  0  0  3  0  0  0  0  0  0
   -0.9870  -10.1230  -22.4900 C   0  0  0  0  0  0  0  0  0  0  0  0
   -1.1560   -8.7370  -22.7030 C   0  0  0  0  0  0  0  0  0  0  0  0
   -0.5040   -8.1020  -23.7530 N   0  0  0  0  0  0  0  0  0  0  0  0
   -1.9580   -7.9930  -21.9240 N   0  0  0  0  0  0  0  0  0  0  0  0
   -2.5450   -8.6080  -20.8970 C   0  0  0  0  0  3  0  0  0  0  0  0
   -2.4040   -9.8920  -20.5680 N   0  0  0  0  0  0  0  0  0  0  0  0
   -1.6460  -10.6590  -21.3700 C   0  0  0  0  0  0  0  0  0  0  0  0
    0.3930   -8.4760  -24.0250 H   0  0  0  0  0  0  0  0  0  0  0  0
   -3.4430  -12.9310  -20.1140 N   0  0  0  0  0  0  0  0  0  0  0  0
   -2.1170  -12.6460  -19.9500 C   0  0  0  0  0  0  0  0  0  0  0  0
   -1.5320  -12.8260  -18.8920 O   0  0  0  0  0  0  0  0  0  0  0  0
   -3.9300  -13.3570  -19.3350 H   0  0  0  0  0  0  0  0  0  0  0  0
   -3.9360  -12.7990  -20.9850 H   0  0  0  0  0  0  0  0  0  0  0  0
  1 20  1  0  0  0  0
  2  1  2  0  0  0  0
  3  2  1  0  0  0  0
  4  3  2  0  0  0  0
  4  5  1  0  0  0  0
  5  6  2  0  0  0  0
  6  1  1  0  0  0  0
  7  8  1  0  0  0  0
  7  5  1  0  0  0  0
  8 11  1  0  0  0  0
  9  8  2  0  0  0  0
 10  7  1  0  0  0  0
 11 12  1  0  0  0  0
 12 14  2  0  0  0  0
 12 13  1  0  0  0  0
 15 16  1  0  0  0  0
 15 14  1  0  0  0  0
 17 15  2  0  0  0  0
 18 17  1  0  0  0  0
 18 11  2  0  0  0  0
 19 18  1  0  0  0  0
 20 27  1  0  0  0  0
 21 34  1  0  0  0  0
 22 21  2  0  0  0  0
 23 22  1  0  0  0  0
 24 23  2  0  0  0  0
 24 25  1  0  0  0  0
 25 31  1  0  0  0  0
 26 25  2  0  0  0  0
 26 28  1  0  0  0  0
 27 26  1  0  0  0  0
 28 29  2  0  0  0  0
 29 30  1  0  0  0  0
 31 21  1  0  0  0  0
 31 30  2  0  0  0  0
 32 27  1  0  0  0  0
 33 34  1  0  0  0  0
 33 36  1  0  0  0  0
 34 35  2  0  0  0  0
 37 33  1  0  0  0  0
M  END
>  <minimizedAffinity>
-9.97464466

$$$$
