
 OpenBabel10152419393D

 37 40  0  0  0  0  0  0  0  0999 V2000
    2.0250  -11.8560  -26.5670 C   0  0  0  0  0  0  0  0  0  0  0  0
    2.9850  -12.5780  -25.8580 C   0  0  0  0  0  3  0  0  0  0  0  0
    4.3270  -12.2020  -25.9230 C   0  0  0  0  0  3  0  0  0  0  0  0
    4.7220  -11.1030  -26.6950 C   0  0  0  0  0  3  0  0  0  0  0  0
    3.7820  -10.3770  -27.4260 C   0  0  0  0  0  0  0  0  0  0  0  0
    2.4370  -10.7590  -27.3470 C   0  0  0  0  0  3  0  0  0  0  0  0
    4.0580   -9.2330  -28.1960 N   0  0  0  0  0  0  0  0  0  0  0  0
    3.4560   -8.0050  -28.3040 C   0  0  0  0  0  0  0  0  0  0  0  0
    3.7790   -7.2390  -29.2100 O   0  0  0  0  0  0  0  0  0  0  0  0
    4.8510   -9.3000  -28.8240 H   0  0  0  0  0  0  0  0  0  0  0  0
    2.5050   -7.5180  -27.3110 C   0  0  0  0  0  0  0  0  0  0  0  0
    1.4640   -6.6800  -27.7000 C   0  0  0  0  0  0  0  0  0  0  0  0
    1.2610   -6.3930  -28.9930 F   0  0  0  0  0  0  0  0  0  0  0  0
    0.5900   -6.1510  -26.7540 C   0  0  0  0  0  3  0  0  0  0  0  0
    0.7770   -6.4550  -25.4060 C   0  0  0  0  0  0  0  0  0  0  0  0
   -0.2960   -5.8060  -24.2310 Cl  0  0  0  0  0  0  0  0  0  0  0  0
    1.8270   -7.2790  -25.0030 C   0  0  0  0  0  3  0  0  0  0  0  0
    2.6920   -7.8000  -25.9610 C   0  0  0  0  0  0  0  0  0  0  0  0
    3.7110   -8.5690  -25.5540 F   0  0  0  0  0  0  0  0  0  0  0  0
    0.5530  -12.2030  -26.4890 C   0  0  0  0  0  2  0  0  0  0  0  0
   -2.0230   -9.7490  -21.5170 C   0  0  0  0  0  0  0  0  0  0  0  0
   -1.8040  -10.7760  -20.5890 C   0  0  0  0  0  3  0  0  0  0  0  0
   -1.1820  -11.9420  -21.0010 C   0  0  0  0  0  3  0  0  0  0  0  0
   -0.7770  -12.0600  -22.3280 C   0  0  0  0  0  3  0  0  0  0  0  0
   -0.9820  -11.0100  -23.2660 C   0  0  0  0  0  0  0  0  0  0  0  0
   -0.5590  -11.0500  -24.6130 C   0  0  0  0  0  0  0  0  0  0  0  0
    0.1390  -12.1490  -25.0990 N   0  0  0  0  0  0  0  0  0  0  0  0
   -0.8280  -10.0530  -25.4700 N   0  0  0  0  0  0  0  0  0  0  0  0
   -1.4640   -8.9880  -24.9800 C   0  0  0  0  0  3  0  0  0  0  0  0
   -1.8510   -8.8200  -23.7160 N   0  0  0  0  0  0  0  0  0  0  0  0
   -1.6330   -9.8320  -22.8590 C   0  0  0  0  0  0  0  0  0  0  0  0
    0.7310  -12.6380  -24.4440 H   0  0  0  0  0  0  0  0  0  0  0  0
   -3.6040   -7.9820  -21.8920 N   0  0  0  0  0  0  0  0  0  0  0  0
   -2.7060   -8.5400  -21.0260 C   0  0  0  0  0  0  0  0  0  0  0  0
   -2.4320   -8.0340  -19.9470 O   0  0  0  0  0  0  0  0  0  0  0  0
   -4.0890   -7.1470  -21.5890 H   0  0  0  0  0  0  0  0  0  0  0  0
   -3.8480   -8.3950  -22.7800 H   0  0  0  0  0  0  0  0  0  0  0  0
  1 20  1  0  0  0  0
  1  2  1  0  0  0  0
  3  2  2  0  0  0  0
  4  3  1  0  0  0  0
  5  6  1  0  0  0  0
  5  4  2  0  0  0  0
  6  1  2  0  0  0  0
  7  5  1  0  0  0  0
  8  7  1  0  0  0  0
  8 11  1  0  0  0  0
  9  8  2  0  0  0  0
 10  7  1  0  0  0  0
 11 18  1  0  0  0  0
 12 11  2  0  0  0  0
 12 14  1  0  0  0  0
 13 12  1  0  0  0  0
 14 15  2  0  0  0  0
 15 17  1  0  0  0  0
 15 16  1  0  0  0  0
 18 19  1  0  0  0  0
 18 17  2  0  0  0  0
 20 27  1  0  0  0  0
 21 34  1  0  0  0  0
 21 22  1  0  0  0  0
 23 22  2  0  0  0  0
 24 23  1  0  0  0  0
 25 31  1  0  0  0  0
 25 24  2  0  0  0  0
 26 25  1  0  0  0  0
 27 26  1  0  0  0  0
 27 32  1  0  0  0  0
 28 29  1  0  0  0  0
 28 26  2  0  0  0  0
 29 30  2  0  0  0  0
 30 31  1  0  0  0  0
 31 21  2  0  0  0  0
 33 36  1  0  0  0  0
 33 34  1  0  0  0  0
 34 35  2  0  0  0  0
 37 33  1  0  0  0  0
M  END
>  <minimizedAffinity>
-8.33083725

$$$$
