
 OpenBabel10152419393D

 37 40  0  0  0  0  0  0  0  0999 V2000
   -0.4100   -6.3950  -25.4480 C   0  0  0  0  0  0  0  0  0  0  0  0
   -1.4360   -6.1320  -26.3560 C   0  0  0  0  0  3  0  0  0  0  0  0
   -1.1340   -5.9110  -27.7010 C   0  0  0  0  0  3  0  0  0  0  0  0
    0.1910   -5.9510  -28.1490 C   0  0  0  0  0  3  0  0  0  0  0  0
    1.2340   -6.1950  -27.2560 C   0  0  0  0  0  0  0  0  0  0  0  0
    0.9190   -6.4220  -25.9100 C   0  0  0  0  0  3  0  0  0  0  0  0
    2.5920   -6.3010  -27.6020 N   0  0  0  0  0  0  0  0  0  0  0  0
    3.5350   -7.2830  -27.4190 C   0  0  0  0  0  0  0  0  0  0  0  0
    4.7210   -7.0450  -27.6420 O   0  0  0  0  0  0  0  0  0  0  0  0
    2.9970   -5.4990  -28.0720 H   0  0  0  0  0  0  0  0  0  0  0  0
    3.1710   -8.6500  -27.0650 C   0  0  0  0  0  0  0  0  0  0  0  0
    2.7770   -8.9480  -25.7650 C   0  0  0  0  0  0  0  0  0  0  0  0
    2.6280   -7.9760  -24.8530 F   0  0  0  0  0  0  0  0  0  0  0  0
    2.4950  -10.2600  -25.3940 C   0  0  0  0  0  3  0  0  0  0  0  0
    2.6280  -11.2800  -26.3350 C   0  0  0  0  0  0  0  0  0  0  0  0
    2.2820  -12.9020  -25.8860 Cl  0  0  0  0  0  0  0  0  0  0  0  0
    3.0400  -10.9950  -27.6370 C   0  0  0  0  0  3  0  0  0  0  0  0
    3.3180   -9.6780  -27.9920 C   0  0  0  0  0  0  0  0  0  0  0  0
    3.7380   -9.4250  -29.2390 F   0  0  0  0  0  0  0  0  0  0  0  0
   -0.6970   -6.6830  -23.9890 C   0  0  0  0  0  2  0  0  0  0  0  0
   -1.4580  -12.0220  -21.1100 C   0  0  0  0  0  0  0  0  0  0  0  0
   -0.6660  -12.8550  -21.9140 C   0  0  0  0  0  3  0  0  0  0  0  0
   -0.0370  -12.3250  -23.0270 C   0  0  0  0  0  3  0  0  0  0  0  0
   -0.1980  -10.9720  -23.3150 C   0  0  0  0  0  3  0  0  0  0  0  0
   -0.9870  -10.1230  -22.4900 C   0  0  0  0  0  0  0  0  0  0  0  0
   -1.1560   -8.7370  -22.7030 C   0  0  0  0  0  0  0  0  0  0  0  0
   -0.5040   -8.1020  -23.7530 N   0  0  0  0  0  0  0  0  0  0  0  0
   -1.9580   -7.9930  -21.9240 N   0  0  0  0  0  0  0  0  0  0  0  0
   -2.5450   -8.6080  -20.8970 C   0  0  0  0  0  3  0  0  0  0  0  0
   -2.4040   -9.8920  -20.5680 N   0  0  0  0  0  0  0  0  0  0  0  0
   -1.6460  -10.6590  -21.3700 C   0  0  0  0  0  0  0  0  0  0  0  0
    0.3930   -8.4760  -24.0250 H   0  0  0  0  0  0  0  0  0  0  0  0
   -3.4430  -12.9310  -20.1140 N   0  0  0  0  0  0  0  0  0  0  0  0
   -2.1170  -12.6460  -19.9500 C   0  0  0  0  0  0  0  0  0  0  0  0
   -1.5320  -12.8260  -18.8920 O   0  0  0  0  0  0  0  0  0  0  0  0
   -3.9300  -13.3570  -19.3350 H   0  0  0  0  0  0  0  0  0  0  0  0
   -3.9360  -12.7990  -20.9850 H   0  0  0  0  0  0  0  0  0  0  0  0
  1 20  1  0  0  0  0
  2  1  2  0  0  0  0
  3  2  1  0  0  0  0
  4  3  2  0  0  0  0
  4  5  1  0  0  0  0
  5  6  2  0  0  0  0
  6  1  1  0  0  0  0
  7  8  1  0  0  0  0
  7  5  1  0  0  0  0
  8 11  1  0  0  0  0
  9  8  2  0  0  0  0
 10  7  1  0  0  0  0
 11 12  1  0  0  0  0
 12 14  2  0  0  0  0
 12 13  1  0  0  0  0
 15 16  1  0  0  0  0
 15 14  1  0  0  0  0
 17 15  2  0  0  0  0
 18 17  1  0  0  0  0
 18 11  2  0  0  0  0
 19 18  1  0  0  0  0
 20 27  1  0  0  0  0
 21 34  1  0  0  0  0
 22 21  2  0  0  0  0
 23 22  1  0  0  0  0
 24 23  2  0  0  0  0
 24 25  1  0  0  0  0
 25 31  1  0  0  0  0
 26 25  2  0  0  0  0
 26 28  1  0  0  0  0
 27 26  1  0  0  0  0
 28 29  2  0  0  0  0
 29 30  1  0  0  0  0
 31 21  1  0  0  0  0
 31 30  2  0  0  0  0
 32 27  1  0  0  0  0
 33 34  1  0  0  0  0
 33 36  1  0  0  0  0
 34 35  2  0  0  0  0
 37 33  1  0  0  0  0
M  END
>  <minimizedAffinity>
-9.97464466

$$$$

 OpenBabel10152419393D

 37 40  0  0  0  0  0  0  0  0999 V2000
   -0.8120   -7.3470  -23.9590 C   0  0  0  0  0  0  0  0  0  0  0  0
   -2.1570   -7.0050  -24.1000 C   0  0  0  0  0  3  0  0  0  0  0  0
   -3.1470   -7.8700  -23.6330 C   0  0  0  0  0  3  0  0  0  0  0  0
   -2.8040   -9.0820  -23.0220 C   0  0  0  0  0  3  0  0  0  0  0  0
   -1.4670   -9.4520  -22.8870 C   0  0  0  0  0  0  0  0  0  0  0  0
   -0.4810   -8.5730  -23.3520 C   0  0  0  0  0  3  0  0  0  0  0  0
   -1.0080  -10.6200  -22.2520 N   0  0  0  0  0  0  0  0  0  0  0  0
   -0.3400  -11.7330  -22.7000 C   0  0  0  0  0  0  0  0  0  0  0  0
   -0.2300  -12.7180  -21.9710 O   0  0  0  0  0  0  0  0  0  0  0  0
   -1.2080  -10.6970  -21.2610 H   0  0  0  0  0  0  0  0  0  0  0  0
    0.3460  -11.7590  -23.9860 C   0  0  0  0  0  0  0  0  0  0  0  0
   -0.3920  -11.7220  -25.1660 C   0  0  0  0  0  0  0  0  0  0  0  0
   -1.7220  -11.5600  -25.1390 F   0  0  0  0  0  0  0  0  0  0  0  0
    0.2440  -11.8170  -26.4010 C   0  0  0  0  0  3  0  0  0  0  0  0
    1.6300  -11.9690  -26.4470 C   0  0  0  0  0  0  0  0  0  0  0  0
    2.4220  -12.0890  -27.9670 Cl  0  0  0  0  0  0  0  0  0  0  0  0
    2.3760  -12.0260  -25.2710 C   0  0  0  0  0  3  0  0  0  0  0  0
    1.7260  -11.9290  -24.0440 C   0  0  0  0  0  0  0  0  0  0  0  0
    2.4560  -12.0110  -22.9230 F   0  0  0  0  0  0  0  0  0  0  0  0
    0.2960   -6.4190  -24.4120 C   0  0  0  0  0  2  0  0  0  0  0  0
    3.9520   -8.3460  -28.9170 C   0  0  0  0  0  0  0  0  0  0  0  0
    4.7160   -9.2990  -28.2290 C   0  0  0  0  0  3  0  0  0  0  0  0
    4.4980   -9.4960  -26.8760 C   0  0  0  0  0  3  0  0  0  0  0  0
    3.5140   -8.7480  -26.2340 C   0  0  0  0  0  3  0  0  0  0  0  0
    2.7260   -7.7930  -26.9360 C   0  0  0  0  0  0  0  0  0  0  0  0
    1.6870   -7.0340  -26.3540 C   0  0  0  0  0  0  0  0  0  0  0  0
    1.3460   -7.2160  -25.0190 N   0  0  0  0  0  0  0  0  0  0  0  0
    1.0120   -6.1060  -27.0500 N   0  0  0  0  0  0  0  0  0  0  0  0
    1.3240   -5.9710  -28.3400 C   0  0  0  0  0  3  0  0  0  0  0  0
    2.2400   -6.6770  -29.0030 N   0  0  0  0  0  0  0  0  0  0  0  0
    2.9580   -7.5740  -28.3050 C   0  0  0  0  0  0  0  0  0  0  0  0
    1.4700   -8.1430  -24.6390 H   0  0  0  0  0  0  0  0  0  0  0  0
    4.7160   -6.9360  -30.7020 N   0  0  0  0  0  0  0  0  0  0  0  0
    4.2420   -8.1680  -30.3500 C   0  0  0  0  0  0  0  0  0  0  0  0
    4.0050   -9.0400  -31.1730 O   0  0  0  0  0  0  0  0  0  0  0  0
    4.9220   -6.7750  -31.6800 H   0  0  0  0  0  0  0  0  0  0  0  0
    4.9280   -6.2110  -30.0320 H   0  0  0  0  0  0  0  0  0  0  0  0
  1  6  1  0  0  0  0
  2  1  2  0  0  0  0
  2  3  1  0  0  0  0
  3  4  2  0  0  0  0
  4  5  1  0  0  0  0
  5  7  1  0  0  0  0
  6  5  2  0  0  0  0
  7 10  1  0  0  0  0
  8  7  1  0  0  0  0
  8  9  2  0  0  0  0
 11  8  1  0  0  0  0
 12 13  1  0  0  0  0
 12 11  2  0  0  0  0
 14 12  1  0  0  0  0
 15 14  2  0  0  0  0
 15 17  1  0  0  0  0
 16 15  1  0  0  0  0
 17 18  2  0  0  0  0
 18 11  1  0  0  0  0
 18 19  1  0  0  0  0
 20  1  1  0  0  0  0
 21 31  2  0  0  0  0
 21 22  1  0  0  0  0
 22 23  2  0  0  0  0
 23 24  1  0  0  0  0
 25 26  1  0  0  0  0
 25 24  2  0  0  0  0
 26 27  1  0  0  0  0
 27 32  1  0  0  0  0
 27 20  1  0  0  0  0
 28 26  2  0  0  0  0
 29 28  1  0  0  0  0
 30 29  2  0  0  0  0
 30 31  1  0  0  0  0
 31 25  1  0  0  0  0
 33 34  1  0  0  0  0
 33 37  1  0  0  0  0
 34 21  1  0  0  0  0
 35 34  2  0  0  0  0
 36 33  1  0  0  0  0
M  END
>  <minimizedAffinity>
-8.61647224

$$$$

 OpenBabel10152419393D

 37 40  0  0  0  0  0  0  0  0999 V2000
    2.0250  -11.8560  -26.5670 C   0  0  0  0  0  0  0  0  0  0  0  0
    2.9850  -12.5780  -25.8580 C   0  0  0  0  0  3  0  0  0  0  0  0
    4.3270  -12.2020  -25.9230 C   0  0  0  0  0  3  0  0  0  0  0  0
    4.7220  -11.1030  -26.6950 C   0  0  0  0  0  3  0  0  0  0  0  0
    3.7820  -10.3770  -27.4260 C   0  0  0  0  0  0  0  0  0  0  0  0
    2.4370  -10.7590  -27.3470 C   0  0  0  0  0  3  0  0  0  0  0  0
    4.0580   -9.2330  -28.1960 N   0  0  0  0  0  0  0  0  0  0  0  0
    3.4560   -8.0050  -28.3040 C   0  0  0  0  0  0  0  0  0  0  0  0
    3.7790   -7.2390  -29.2100 O   0  0  0  0  0  0  0  0  0  0  0  0
    4.8510   -9.3000  -28.8240 H   0  0  0  0  0  0  0  0  0  0  0  0
    2.5050   -7.5180  -27.3110 C   0  0  0  0  0  0  0  0  0  0  0  0
    1.4640   -6.6800  -27.7000 C   0  0  0  0  0  0  0  0  0  0  0  0
    1.2610   -6.3930  -28.9930 F   0  0  0  0  0  0  0  0  0  0  0  0
    0.5900   -6.1510  -26.7540 C   0  0  0  0  0  3  0  0  0  0  0  0
    0.7770   -6.4550  -25.4060 C   0  0  0  0  0  0  0  0  0  0  0  0
   -0.2960   -5.8060  -24.2310 Cl  0  0  0  0  0  0  0  0  0  0  0  0
    1.8270   -7.2790  -25.0030 C   0  0  0  0  0  3  0  0  0  0  0  0
    2.6920   -7.8000  -25.9610 C   0  0  0  0  0  0  0  0  0  0  0  0
    3.7110   -8.5690  -25.5540 F   0  0  0  0  0  0  0  0  0  0  0  0
    0.5530  -12.2030  -26.4890 C   0  0  0  0  0  2  0  0  0  0  0  0
   -2.0230   -9.7490  -21.5170 C   0  0  0  0  0  0  0  0  0  0  0  0
   -1.8040  -10.7760  -20.5890 C   0  0  0  0  0  3  0  0  0  0  0  0
   -1.1820  -11.9420  -21.0010 C   0  0  0  0  0  3  0  0  0  0  0  0
   -0.7770  -12.0600  -22.3280 C   0  0  0  0  0  3  0  0  0  0  0  0
   -0.9820  -11.0100  -23.2660 C   0  0  0  0  0  0  0  0  0  0  0  0
   -0.5590  -11.0500  -24.6130 C   0  0  0  0  0  0  0  0  0  0  0  0
    0.1390  -12.1490  -25.0990 N   0  0  0  0  0  0  0  0  0  0  0  0
   -0.8280  -10.0530  -25.4700 N   0  0  0  0  0  0  0  0  0  0  0  0
   -1.4640   -8.9880  -24.9800 C   0  0  0  0  0  3  0  0  0  0  0  0
   -1.8510   -8.8200  -23.7160 N   0  0  0  0  0  0  0  0  0  0  0  0
   -1.6330   -9.8320  -22.8590 C   0  0  0  0  0  0  0  0  0  0  0  0
    0.7310  -12.6380  -24.4440 H   0  0  0  0  0  0  0  0  0  0  0  0
   -3.6040   -7.9820  -21.8920 N   0  0  0  0  0  0  0  0  0  0  0  0
   -2.7060   -8.5400  -21.0260 C   0  0  0  0  0  0  0  0  0  0  0  0
   -2.4320   -8.0340  -19.9470 O   0  0  0  0  0  0  0  0  0  0  0  0
   -4.0890   -7.1470  -21.5890 H   0  0  0  0  0  0  0  0  0  0  0  0
   -3.8480   -8.3950  -22.7800 H   0  0  0  0  0  0  0  0  0  0  0  0
  1 20  1  0  0  0  0
  1  2  1  0  0  0  0
  3  2  2  0  0  0  0
  4  3  1  0  0  0  0
  5  6  1  0  0  0  0
  5  4  2  0  0  0  0
  6  1  2  0  0  0  0
  7  5  1  0  0  0  0
  8  7  1  0  0  0  0
  8 11  1  0  0  0  0
  9  8  2  0  0  0  0
 10  7  1  0  0  0  0
 11 18  1  0  0  0  0
 12 11  2  0  0  0  0
 12 14  1  0  0  0  0
 13 12  1  0  0  0  0
 14 15  2  0  0  0  0
 15 17  1  0  0  0  0
 15 16  1  0  0  0  0
 18 19  1  0  0  0  0
 18 17  2  0  0  0  0
 20 27  1  0  0  0  0
 21 34  1  0  0  0  0
 21 22  1  0  0  0  0
 23 22  2  0  0  0  0
 24 23  1  0  0  0  0
 25 31  1  0  0  0  0
 25 24  2  0  0  0  0
 26 25  1  0  0  0  0
 27 26  1  0  0  0  0
 27 32  1  0  0  0  0
 28 29  1  0  0  0  0
 28 26  2  0  0  0  0
 29 30  2  0  0  0  0
 30 31  1  0  0  0  0
 31 21  2  0  0  0  0
 33 36  1  0  0  0  0
 33 34  1  0  0  0  0
 34 35  2  0  0  0  0
 37 33  1  0  0  0  0
M  END
>  <minimizedAffinity>
-8.33083725

$$$$

 OpenBabel10152419393D

 37 40  0  0  0  0  0  0  0  0999 V2000
   -0.7820   -6.4180  -26.0490 C   0  0  0  0  0  0  0  0  0  0  0  0
   -1.3780   -5.9170  -27.2070 C   0  0  0  0  0  3  0  0  0  0  0  0
   -0.5880   -5.5870  -28.3090 C   0  0  0  0  0  3  0  0  0  0  0  0
    0.8010   -5.7540  -28.2650 C   0  0  0  0  0  3  0  0  0  0  0  0
    1.4200   -6.2360  -27.1130 C   0  0  0  0  0  0  0  0  0  0  0  0
    0.6170   -6.5710  -26.0160 C   0  0  0  0  0  3  0  0  0  0  0  0
    2.7970   -6.4840  -26.9740 N   0  0  0  0  0  0  0  0  0  0  0  0
    3.5200   -7.5910  -26.6020 C   0  0  0  0  0  0  0  0  0  0  0  0
    4.7220   -7.4880  -26.3640 O   0  0  0  0  0  0  0  0  0  0  0  0
    3.4130   -5.7020  -27.1640 H   0  0  0  0  0  0  0  0  0  0  0  0
    2.9340   -8.9260  -26.5780 C   0  0  0  0  0  0  0  0  0  0  0  0
    2.9740   -9.7220  -27.7200 C   0  0  0  0  0  0  0  0  0  0  0  0
    3.6330   -9.3180  -28.8150 F   0  0  0  0  0  0  0  0  0  0  0  0
    2.3580  -10.9700  -27.7330 C   0  0  0  0  0  3  0  0  0  0  0  0
    1.6830  -11.4120  -26.5960 C   0  0  0  0  0  0  0  0  0  0  0  0
    0.9200  -12.9520  -26.6050 Cl  0  0  0  0  0  0  0  0  0  0  0  0
    1.6210  -10.6160  -25.4530 C   0  0  0  0  0  3  0  0  0  0  0  0
    2.2420   -9.3700  -25.4550 C   0  0  0  0  0  0  0  0  0  0  0  0
    2.1520   -8.6070  -24.3570 F   0  0  0  0  0  0  0  0  0  0  0  0
   -1.6050   -6.8290  -24.8470 C   0  0  0  0  0  2  0  0  0  0  0  0
   -1.2320  -11.7220  -21.2000 C   0  0  0  0  0  0  0  0  0  0  0  0
   -0.5590  -12.6140  -22.0460 C   0  0  0  0  0  3  0  0  0  0  0  0
   -0.2360  -12.2170  -23.3330 C   0  0  0  0  0  3  0  0  0  0  0  0
   -0.5800  -10.9340  -23.7500 C   0  0  0  0  0  3  0  0  0  0  0  0
   -1.2470  -10.0220  -22.8860 C   0  0  0  0  0  0  0  0  0  0  0  0
   -1.5850   -8.6960  -23.2340 C   0  0  0  0  0  0  0  0  0  0  0  0
   -1.2360   -8.1840  -24.4780 N   0  0  0  0  0  0  0  0  0  0  0  0
   -2.2650   -7.8950  -22.3970 N   0  0  0  0  0  0  0  0  0  0  0  0
   -2.5580   -8.3870  -21.1930 C   0  0  0  0  0  3  0  0  0  0  0  0
   -2.2320   -9.5970  -20.7400 N   0  0  0  0  0  0  0  0  0  0  0  0
   -1.5960  -10.4270  -21.5850 C   0  0  0  0  0  0  0  0  0  0  0  0
   -0.3880   -8.5380  -24.8940 H   0  0  0  0  0  0  0  0  0  0  0  0
   -0.4980  -12.5820  -19.0830 N   0  0  0  0  0  0  0  0  0  0  0  0
   -1.5650  -12.2060  -19.8490 C   0  0  0  0  0  0  0  0  0  0  0  0
   -2.7210  -12.3290  -19.4710 O   0  0  0  0  0  0  0  0  0  0  0  0
   -0.6890  -12.9240  -18.1490 H   0  0  0  0  0  0  0  0  0  0  0  0
    0.4620  -12.4740  -19.3770 H   0  0  0  0  0  0  0  0  0  0  0  0
  1  6  1  0  0  0  0
  1 20  1  0  0  0  0
  2  1  2  0  0  0  0
  3  4  2  0  0  0  0
  3  2  1  0  0  0  0
  4  5  1  0  0  0  0
  5  7  1  0  0  0  0
  5  6  2  0  0  0  0
  7  8  1  0  0  0  0
  8 11  1  0  0  0  0
  8  9  2  0  0  0  0
 10  7  1  0  0  0  0
 11 18  1  0  0  0  0
 12 11  2  0  0  0  0
 13 12  1  0  0  0  0
 14 12  1  0  0  0  0
 14 15  2  0  0  0  0
 15 17  1  0  0  0  0
 16 15  1  0  0  0  0
 18 17  2  0  0  0  0
 18 19  1  0  0  0  0
 20 27  1  0  0  0  0
 21 34  1  0  0  0  0
 22 21  2  0  0  0  0
 23 22  1  0  0  0  0
 24 23  2  0  0  0  0
 24 25  1  0  0  0  0
 25 31  1  0  0  0  0
 26 25  2  0  0  0  0
 26 28  1  0  0  0  0
 27 26  1  0  0  0  0
 28 29  2  0  0  0  0
 29 30  1  0  0  0  0
 31 21  1  0  0  0  0
 31 30  2  0  0  0  0
 32 27  1  0  0  0  0
 33 36  1  0  0  0  0
 34 35  2  0  0  0  0
 34 33  1  0  0  0  0
 37 33  1  0  0  0  0
M  END
>  <minimizedAffinity>
-7.84797764

$$$$

 OpenBabel10152419393D

 37 40  0  0  0  0  0  0  0  0999 V2000
    2.0950  -11.8170  -26.6820 C   0  0  0  0  0  0  0  0  0  0  0  0
    3.1330  -12.3930  -25.9490 C   0  0  0  0  0  3  0  0  0  0  0  0
    4.4310  -11.8950  -26.0710 C   0  0  0  0  0  3  0  0  0  0  0  0
    4.7040  -10.8200  -26.9250 C   0  0  0  0  0  3  0  0  0  0  0  0
    3.6860  -10.2400  -27.6810 C   0  0  0  0  0  0  0  0  0  0  0  0
    2.3860  -10.7430  -27.5450 C   0  0  0  0  0  3  0  0  0  0  0  0
    3.8360   -9.1320  -28.5330 N   0  0  0  0  0  0  0  0  0  0  0  0
    3.1990   -7.9190  -28.6200 C   0  0  0  0  0  0  0  0  0  0  0  0
    3.3870   -7.1940  -29.5960 O   0  0  0  0  0  0  0  0  0  0  0  0
    4.5430   -9.2180  -29.2560 H   0  0  0  0  0  0  0  0  0  0  0  0
    2.3740   -7.3980  -27.5360 C   0  0  0  0  0  0  0  0  0  0  0  0
    2.6980   -7.6920  -26.2150 C   0  0  0  0  0  0  0  0  0  0  0  0
    3.8190   -8.3640  -25.9170 F   0  0  0  0  0  0  0  0  0  0  0  0
    1.8810   -7.2610  -25.1740 C   0  0  0  0  0  3  0  0  0  0  0  0
    0.7210   -6.5450  -25.4660 C   0  0  0  0  0  0  0  0  0  0  0  0
   -0.2940   -6.0100  -24.1870 Cl  0  0  0  0  0  0  0  0  0  0  0  0
    0.3760   -6.2610  -26.7870 C   0  0  0  0  0  3  0  0  0  0  0  0
    1.2040   -6.6990  -27.8170 C   0  0  0  0  0  0  0  0  0  0  0  0
    0.8450   -6.4400  -29.0820 F   0  0  0  0  0  0  0  0  0  0  0  0
    0.6660  -12.2970  -26.5460 C   0  0  0  0  0  2  0  0  0  0  0  0
   -1.8610   -9.6770  -21.6340 C   0  0  0  0  0  0  0  0  0  0  0  0
   -1.6120  -10.6640  -20.6690 C   0  0  0  0  0  3  0  0  0  0  0  0
   -0.9810  -11.8370  -21.0440 C   0  0  0  0  0  3  0  0  0  0  0  0
   -0.5970  -12.0030  -22.3730 C   0  0  0  0  0  3  0  0  0  0  0  0
   -0.8320  -10.9950  -23.3480 C   0  0  0  0  0  0  0  0  0  0  0  0
   -0.4310  -11.0840  -24.6990 C   0  0  0  0  0  0  0  0  0  0  0  0
    0.2750  -12.1920  -25.1530 N   0  0  0  0  0  0  0  0  0  0  0  0
   -0.7280  -10.1260  -25.5920 N   0  0  0  0  0  0  0  0  0  0  0  0
   -1.3700   -9.0500  -25.1330 C   0  0  0  0  0  3  0  0  0  0  0  0
   -1.7380   -8.8360  -23.8710 N   0  0  0  0  0  0  0  0  0  0  0  0
   -1.4920   -9.8100  -22.9780 C   0  0  0  0  0  0  0  0  0  0  0  0
    0.8840  -12.6470  -24.4890 H   0  0  0  0  0  0  0  0  0  0  0  0
   -3.0690   -7.6750  -22.1720 N   0  0  0  0  0  0  0  0  0  0  0  0
   -2.5520   -8.4590  -21.1790 C   0  0  0  0  0  0  0  0  0  0  0  0
   -2.5950   -8.1390  -20.0010 O   0  0  0  0  0  0  0  0  0  0  0  0
   -3.5480   -6.8260  -21.8970 H   0  0  0  0  0  0  0  0  0  0  0  0
   -3.0520   -7.9330  -23.1480 H   0  0  0  0  0  0  0  0  0  0  0  0
  1 20  1  0  0  0  0
  1  2  1  0  0  0  0
  3  2  2  0  0  0  0
  4  3  1  0  0  0  0
  5  6  1  0  0  0  0
  5  4  2  0  0  0  0
  6  1  2  0  0  0  0
  7  5  1  0  0  0  0
  8  7  1  0  0  0  0
  8 11  1  0  0  0  0
  9  8  2  0  0  0  0
 10  7  1  0  0  0  0
 11 12  1  0  0  0  0
 12 13  1  0  0  0  0
 12 14  2  0  0  0  0
 15 14  1  0  0  0  0
 15 16  1  0  0  0  0
 17 15  2  0  0  0  0
 18 11  2  0  0  0  0
 18 17  1  0  0  0  0
 19 18  1  0  0  0  0
 20 27  1  0  0  0  0
 21 34  1  0  0  0  0
 21 22  1  0  0  0  0
 23 22  2  0  0  0  0
 24 23  1  0  0  0  0
 25 31  1  0  0  0  0
 25 24  2  0  0  0  0
 26 25  1  0  0  0  0
 27 26  1  0  0  0  0
 27 32  1  0  0  0  0
 28 29  1  0  0  0  0
 28 26  2  0  0  0  0
 29 30  2  0  0  0  0
 30 31  1  0  0  0  0
 31 21  2  0  0  0  0
 33 36  1  0  0  0  0
 33 34  1  0  0  0  0
 34 35  2  0  0  0  0
 37 33  1  0  0  0  0
M  END
>  <minimizedAffinity>
-7.42306566

$$$$

 OpenBabel10152419393D

 37 40  0  0  0  0  0  0  0  0999 V2000
   -1.1740   -7.3010  -23.2480 C   0  0  0  0  0  0  0  0  0  0  0  0
   -2.4850   -7.0670  -23.6630 C   0  0  0  0  0  3  0  0  0  0  0  0
   -3.4240   -8.0980  -23.6150 C   0  0  0  0  0  3  0  0  0  0  0  0
   -3.0640   -9.3690  -23.1520 C   0  0  0  0  0  3  0  0  0  0  0  0
   -1.7550   -9.6300  -22.7480 C   0  0  0  0  0  0  0  0  0  0  0  0
   -0.8230   -8.5860  -22.7940 C   0  0  0  0  0  3  0  0  0  0  0  0
   -1.2940  -10.8510  -22.2260 N   0  0  0  0  0  0  0  0  0  0  0  0
   -0.5560  -11.8810  -22.7550 C   0  0  0  0  0  0  0  0  0  0  0  0
   -0.4560  -12.9430  -22.1420 O   0  0  0  0  0  0  0  0  0  0  0  0
   -1.5560  -11.0540  -21.2670 H   0  0  0  0  0  0  0  0  0  0  0  0
    0.2140  -11.7310  -23.9840 C   0  0  0  0  0  0  0  0  0  0  0  0
   -0.4450  -11.5870  -25.2020 C   0  0  0  0  0  0  0  0  0  0  0  0
   -1.7810  -11.4820  -25.2510 F   0  0  0  0  0  0  0  0  0  0  0  0
    0.2740  -11.5130  -26.3910 C   0  0  0  0  0  3  0  0  0  0  0  0
    1.6650  -11.6030  -26.3550 C   0  0  0  0  0  0  0  0  0  0  0  0
    2.5610  -11.5140  -27.8190 Cl  0  0  0  0  0  0  0  0  0  0  0  0
    2.3350  -11.7660  -25.1440 C   0  0  0  0  0  3  0  0  0  0  0  0
    1.6010  -11.8380  -23.9630 C   0  0  0  0  0  0  0  0  0  0  0  0
    2.2590  -12.0200  -22.8090 F   0  0  0  0  0  0  0  0  0  0  0  0
   -0.1350   -6.1990  -23.2430 C   0  0  0  0  0  2  0  0  0  0  0  0
    2.4970   -6.6390  -28.7440 C   0  0  0  0  0  0  0  0  0  0  0  0
    1.8960   -5.5530  -29.3960 C   0  0  0  0  0  3  0  0  0  0  0  0
    0.9550   -4.7930  -28.7230 C   0  0  0  0  0  3  0  0  0  0  0  0
    0.6370   -5.1200  -27.4070 C   0  0  0  0  0  3  0  0  0  0  0  0
    1.2600   -6.2110  -26.7390 C   0  0  0  0  0  0  0  0  0  0  0  0
    1.0130   -6.5680  -25.3950 C   0  0  0  0  0  0  0  0  0  0  0  0
    0.1400   -5.8190  -24.6160 N   0  0  0  0  0  0  0  0  0  0  0  0
    1.5880   -7.6420  -24.8300 N   0  0  0  0  0  0  0  0  0  0  0  0
    2.4550   -8.3280  -25.5770 C   0  0  0  0  0  3  0  0  0  0  0  0
    2.8070   -8.0410  -26.8300 N   0  0  0  0  0  0  0  0  0  0  0  0
    2.2010   -6.9990  -27.4240 C   0  0  0  0  0  0  0  0  0  0  0  0
    0.0800   -4.8320  -24.8200 H   0  0  0  0  0  0  0  0  0  0  0  0
    4.7170   -7.5280  -28.9510 N   0  0  0  0  0  0  0  0  0  0  0  0
    3.4770   -7.4220  -29.5160 C   0  0  0  0  0  0  0  0  0  0  0  0
    3.2150   -7.8820  -30.6180 O   0  0  0  0  0  0  0  0  0  0  0  0
    5.4170   -8.0560  -29.4560 H   0  0  0  0  0  0  0  0  0  0  0  0
    4.9420   -7.1640  -28.0370 H   0  0  0  0  0  0  0  0  0  0  0  0
  1 20  1  0  0  0  0
  1  6  1  0  0  0  0
  2  3  1  0  0  0  0
  2  1  2  0  0  0  0
  3  4  2  0  0  0  0
  4  5  1  0  0  0  0
  5  7  1  0  0  0  0
  6  5  2  0  0  0  0
  7 10  1  0  0  0  0
  8  7  1  0  0  0  0
  8  9  2  0  0  0  0
 11 18  1  0  0  0  0
 11  8  1  0  0  0  0
 12 11  2  0  0  0  0
 13 12  1  0  0  0  0
 14 15  2  0  0  0  0
 14 12  1  0  0  0  0
 15 17  1  0  0  0  0
 16 15  1  0  0  0  0
 17 18  2  0  0  0  0
 18 19  1  0  0  0  0
 21 31  1  0  0  0  0
 22 21  2  0  0  0  0
 22 23  1  0  0  0  0
 23 24  2  0  0  0  0
 24 25  1  0  0  0  0
 25 26  1  0  0  0  0
 26 28  2  0  0  0  0
 26 27  1  0  0  0  0
 27 20  1  0  0  0  0
 29 28  1  0  0  0  0
 30 29  2  0  0  0  0
 31 30  1  0  0  0  0
 31 25  2  0  0  0  0
 32 27  1  0  0  0  0
 33 37  1  0  0  0  0
 34 33  1  0  0  0  0
 34 21  1  0  0  0  0
 35 34  2  0  0  0  0
 36 33  1  0  0  0  0
M  END
>  <minimizedAffinity>
-7.31288767

$$$$
