
 OpenBabel10152419393D

 37 40  0  0  0  0  0  0  0  0999 V2000
   -0.7820   -6.4180  -26.0490 C   0  0  0  0  0  0  0  0  0  0  0  0
   -1.3780   -5.9170  -27.2070 C   0  0  0  0  0  3  0  0  0  0  0  0
   -0.5880   -5.5870  -28.3090 C   0  0  0  0  0  3  0  0  0  0  0  0
    0.8010   -5.7540  -28.2650 C   0  0  0  0  0  3  0  0  0  0  0  0
    1.4200   -6.2360  -27.1130 C   0  0  0  0  0  0  0  0  0  0  0  0
    0.6170   -6.5710  -26.0160 C   0  0  0  0  0  3  0  0  0  0  0  0
    2.7970   -6.4840  -26.9740 N   0  0  0  0  0  0  0  0  0  0  0  0
    3.5200   -7.5910  -26.6020 C   0  0  0  0  0  0  0  0  0  0  0  0
    4.7220   -7.4880  -26.3640 O   0  0  0  0  0  0  0  0  0  0  0  0
    3.4130   -5.7020  -27.1640 H   0  0  0  0  0  0  0  0  0  0  0  0
    2.9340   -8.9260  -26.5780 C   0  0  0  0  0  0  0  0  0  0  0  0
    2.9740   -9.7220  -27.7200 C   0  0  0  0  0  0  0  0  0  0  0  0
    3.6330   -9.3180  -28.8150 F   0  0  0  0  0  0  0  0  0  0  0  0
    2.3580  -10.9700  -27.7330 C   0  0  0  0  0  3  0  0  0  0  0  0
    1.6830  -11.4120  -26.5960 C   0  0  0  0  0  0  0  0  0  0  0  0
    0.9200  -12.9520  -26.6050 Cl  0  0  0  0  0  0  0  0  0  0  0  0
    1.6210  -10.6160  -25.4530 C   0  0  0  0  0  3  0  0  0  0  0  0
    2.2420   -9.3700  -25.4550 C   0  0  0  0  0  0  0  0  0  0  0  0
    2.1520   -8.6070  -24.3570 F   0  0  0  0  0  0  0  0  0  0  0  0
   -1.6050   -6.8290  -24.8470 C   0  0  0  0  0  2  0  0  0  0  0  0
   -1.2320  -11.7220  -21.2000 C   0  0  0  0  0  0  0  0  0  0  0  0
   -0.5590  -12.6140  -22.0460 C   0  0  0  0  0  3  0  0  0  0  0  0
   -0.2360  -12.2170  -23.3330 C   0  0  0  0  0  3  0  0  0  0  0  0
   -0.5800  -10.9340  -23.7500 C   0  0  0  0  0  3  0  0  0  0  0  0
   -1.2470  -10.0220  -22.8860 C   0  0  0  0  0  0  0  0  0  0  0  0
   -1.5850   -8.6960  -23.2340 C   0  0  0  0  0  0  0  0  0  0  0  0
   -1.2360   -8.1840  -24.4780 N   0  0  0  0  0  0  0  0  0  0  0  0
   -2.2650   -7.8950  -22.3970 N   0  0  0  0  0  0  0  0  0  0  0  0
   -2.5580   -8.3870  -21.1930 C   0  0  0  0  0  3  0  0  0  0  0  0
   -2.2320   -9.5970  -20.7400 N   0  0  0  0  0  0  0  0  0  0  0  0
   -1.5960  -10.4270  -21.5850 C   0  0  0  0  0  0  0  0  0  0  0  0
   -0.3880   -8.5380  -24.8940 H   0  0  0  0  0  0  0  0  0  0  0  0
   -0.4980  -12.5820  -19.0830 N   0  0  0  0  0  0  0  0  0  0  0  0
   -1.5650  -12.2060  -19.8490 C   0  0  0  0  0  0  0  0  0  0  0  0
   -2.7210  -12.3290  -19.4710 O   0  0  0  0  0  0  0  0  0  0  0  0
   -0.6890  -12.9240  -18.1490 H   0  0  0  0  0  0  0  0  0  0  0  0
    0.4620  -12.4740  -19.3770 H   0  0  0  0  0  0  0  0  0  0  0  0
  1  6  1  0  0  0  0
  1 20  1  0  0  0  0
  2  1  2  0  0  0  0
  3  4  2  0  0  0  0
  3  2  1  0  0  0  0
  4  5  1  0  0  0  0
  5  7  1  0  0  0  0
  5  6  2  0  0  0  0
  7  8  1  0  0  0  0
  8 11  1  0  0  0  0
  8  9  2  0  0  0  0
 10  7  1  0  0  0  0
 11 18  1  0  0  0  0
 12 11  2  0  0  0  0
 13 12  1  0  0  0  0
 14 12  1  0  0  0  0
 14 15  2  0  0  0  0
 15 17  1  0  0  0  0
 16 15  1  0  0  0  0
 18 17  2  0  0  0  0
 18 19  1  0  0  0  0
 20 27  1  0  0  0  0
 21 34  1  0  0  0  0
 22 21  2  0  0  0  0
 23 22  1  0  0  0  0
 24 23  2  0  0  0  0
 24 25  1  0  0  0  0
 25 31  1  0  0  0  0
 26 25  2  0  0  0  0
 26 28  1  0  0  0  0
 27 26  1  0  0  0  0
 28 29  2  0  0  0  0
 29 30  1  0  0  0  0
 31 21  1  0  0  0  0
 31 30  2  0  0  0  0
 32 27  1  0  0  0  0
 33 36  1  0  0  0  0
 34 35  2  0  0  0  0
 34 33  1  0  0  0  0
 37 33  1  0  0  0  0
M  END
>  <minimizedAffinity>
-7.84797764

$$$$
