
 OpenBabel10152419393D

 37 40  0  0  0  0  0  0  0  0999 V2000
   -1.1740   -7.3010  -23.2480 C   0  0  0  0  0  0  0  0  0  0  0  0
   -2.4850   -7.0670  -23.6630 C   0  0  0  0  0  3  0  0  0  0  0  0
   -3.4240   -8.0980  -23.6150 C   0  0  0  0  0  3  0  0  0  0  0  0
   -3.0640   -9.3690  -23.1520 C   0  0  0  0  0  3  0  0  0  0  0  0
   -1.7550   -9.6300  -22.7480 C   0  0  0  0  0  0  0  0  0  0  0  0
   -0.8230   -8.5860  -22.7940 C   0  0  0  0  0  3  0  0  0  0  0  0
   -1.2940  -10.8510  -22.2260 N   0  0  0  0  0  0  0  0  0  0  0  0
   -0.5560  -11.8810  -22.7550 C   0  0  0  0  0  0  0  0  0  0  0  0
   -0.4560  -12.9430  -22.1420 O   0  0  0  0  0  0  0  0  0  0  0  0
   -1.5560  -11.0540  -21.2670 H   0  0  0  0  0  0  0  0  0  0  0  0
    0.2140  -11.7310  -23.9840 C   0  0  0  0  0  0  0  0  0  0  0  0
   -0.4450  -11.5870  -25.2020 C   0  0  0  0  0  0  0  0  0  0  0  0
   -1.7810  -11.4820  -25.2510 F   0  0  0  0  0  0  0  0  0  0  0  0
    0.2740  -11.5130  -26.3910 C   0  0  0  0  0  3  0  0  0  0  0  0
    1.6650  -11.6030  -26.3550 C   0  0  0  0  0  0  0  0  0  0  0  0
    2.5610  -11.5140  -27.8190 Cl  0  0  0  0  0  0  0  0  0  0  0  0
    2.3350  -11.7660  -25.1440 C   0  0  0  0  0  3  0  0  0  0  0  0
    1.6010  -11.8380  -23.9630 C   0  0  0  0  0  0  0  0  0  0  0  0
    2.2590  -12.0200  -22.8090 F   0  0  0  0  0  0  0  0  0  0  0  0
   -0.1350   -6.1990  -23.2430 C   0  0  0  0  0  2  0  0  0  0  0  0
    2.4970   -6.6390  -28.7440 C   0  0  0  0  0  0  0  0  0  0  0  0
    1.8960   -5.5530  -29.3960 C   0  0  0  0  0  3  0  0  0  0  0  0
    0.9550   -4.7930  -28.7230 C   0  0  0  0  0  3  0  0  0  0  0  0
    0.6370   -5.1200  -27.4070 C   0  0  0  0  0  3  0  0  0  0  0  0
    1.2600   -6.2110  -26.7390 C   0  0  0  0  0  0  0  0  0  0  0  0
    1.0130   -6.5680  -25.3950 C   0  0  0  0  0  0  0  0  0  0  0  0
    0.1400   -5.8190  -24.6160 N   0  0  0  0  0  0  0  0  0  0  0  0
    1.5880   -7.6420  -24.8300 N   0  0  0  0  0  0  0  0  0  0  0  0
    2.4550   -8.3280  -25.5770 C   0  0  0  0  0  3  0  0  0  0  0  0
    2.8070   -8.0410  -26.8300 N   0  0  0  0  0  0  0  0  0  0  0  0
    2.2010   -6.9990  -27.4240 C   0  0  0  0  0  0  0  0  0  0  0  0
    0.0800   -4.8320  -24.8200 H   0  0  0  0  0  0  0  0  0  0  0  0
    4.7170   -7.5280  -28.9510 N   0  0  0  0  0  0  0  0  0  0  0  0
    3.4770   -7.4220  -29.5160 C   0  0  0  0  0  0  0  0  0  0  0  0
    3.2150   -7.8820  -30.6180 O   0  0  0  0  0  0  0  0  0  0  0  0
    5.4170   -8.0560  -29.4560 H   0  0  0  0  0  0  0  0  0  0  0  0
    4.9420   -7.1640  -28.0370 H   0  0  0  0  0  0  0  0  0  0  0  0
  1 20  1  0  0  0  0
  1  6  1  0  0  0  0
  2  3  1  0  0  0  0
  2  1  2  0  0  0  0
  3  4  2  0  0  0  0
  4  5  1  0  0  0  0
  5  7  1  0  0  0  0
  6  5  2  0  0  0  0
  7 10  1  0  0  0  0
  8  7  1  0  0  0  0
  8  9  2  0  0  0  0
 11 18  1  0  0  0  0
 11  8  1  0  0  0  0
 12 11  2  0  0  0  0
 13 12  1  0  0  0  0
 14 15  2  0  0  0  0
 14 12  1  0  0  0  0
 15 17  1  0  0  0  0
 16 15  1  0  0  0  0
 17 18  2  0  0  0  0
 18 19  1  0  0  0  0
 21 31  1  0  0  0  0
 22 21  2  0  0  0  0
 22 23  1  0  0  0  0
 23 24  2  0  0  0  0
 24 25  1  0  0  0  0
 25 26  1  0  0  0  0
 26 28  2  0  0  0  0
 26 27  1  0  0  0  0
 27 20  1  0  0  0  0
 29 28  1  0  0  0  0
 30 29  2  0  0  0  0
 31 30  1  0  0  0  0
 31 25  2  0  0  0  0
 32 27  1  0  0  0  0
 33 37  1  0  0  0  0
 34 33  1  0  0  0  0
 34 21  1  0  0  0  0
 35 34  2  0  0  0  0
 36 33  1  0  0  0  0
M  END
>  <minimizedAffinity>
-7.31288767

$$$$
