
 OpenBabel10152419373D

 37 40  0  0  1  0  0  0  0  0999 V2000
   -1.3610   -8.1900  -25.6090 C   0  0  2  0  0  3  0  0  0  0  0  0
   -1.2870   -9.4780  -26.4340 C   0  0  0  0  0  1  0  0  0  0  0  0
    1.2530   -6.2680  -27.6600 C   0  0  0  0  0  0  0  0  0  0  0  0
    0.8950   -4.9460  -27.3910 C   0  0  0  0  0  3  0  0  0  0  0  0
   -0.2630   -4.6650  -26.6690 C   0  0  0  0  0  3  0  0  0  0  0  0
   -1.0270   -5.7050  -26.1390 C   0  0  0  0  0  3  0  0  0  0  0  0
   -0.6450   -7.0430  -26.3300 C   0  0  0  0  0  0  0  0  0  0  0  0
    0.4700   -7.3140  -27.1520 C   0  0  0  0  0  3  0  0  0  0  0  0
    3.5920   -7.1540  -27.8440 C   0  0  0  0  0  0  0  0  0  0  0  0
    4.7220   -6.7660  -28.1270 O   0  0  0  0  0  0  0  0  0  0  0  0
    2.4810   -6.4890  -28.3060 N   0  0  0  0  0  0  0  0  0  0  0  0
    2.6480   -5.9600  -29.1550 H   0  0  0  0  0  0  0  0  0  0  0  0
    2.8230  -10.9570  -26.1920 C   0  0  0  0  0  0  0  0  0  0  0  0
    2.5490   -9.8430  -25.4100 C   0  0  0  0  0  3  0  0  0  0  0  0
    2.8650   -8.5790  -25.9090 C   0  0  0  0  0  3  0  0  0  0  0  0
    3.4250   -8.4650  -27.1820 C   0  0  0  0  0  0  0  0  0  0  0  0
    3.6330   -9.6300  -27.9050 C   0  0  0  0  0  3  0  0  0  0  0  0
    3.3630  -10.8720  -27.4280 N   0  0  0  0  0  0  0  0  0  0  0  0
    3.2490  -12.7410  -24.7430 C   0  0  0  0  0  1  0  0  0  0  0  0
    2.4750  -12.2270  -25.8220 O   0  0  0  0  0  0  0  0  0  0  0  0
   -0.7920   -8.4310  -24.2880 N   0  0  0  0  0  0  0  0  0  0  0  0
   -0.0530   -7.8360  -23.9530 H   0  0  0  0  0  0  0  0  0  0  0  0
   -1.6220   -9.0890  -23.3810 C   0  0  0  0  0  0  0  0  0  0  0  0
   -2.4120   -8.3080  -22.6230 N   0  0  0  0  0  0  0  0  0  0  0  0
   -2.8560   -8.8320  -21.4850 C   0  0  0  0  0  3  0  0  0  0  0  0
   -2.4990  -10.0200  -21.0000 N   0  0  0  0  0  0  0  0  0  0  0  0
   -1.7600  -10.8180  -21.7920 C   0  0  0  0  0  0  0  0  0  0  0  0
   -1.2520  -12.0340  -21.3350 C   0  0  0  0  0  0  0  0  0  0  0  0
   -0.5900  -12.9570  -22.1580 C   0  0  0  0  0  3  0  0  0  0  0  0
   -0.3660  -12.6380  -23.4860 C   0  0  0  0  0  3  0  0  0  0  0  0
   -0.7130  -11.3660  -23.9330 C   0  0  0  0  0  3  0  0  0  0  0  0
   -1.3830  -10.4410  -23.0830 C   0  0  0  0  0  0  0  0  0  0  0  0
   -1.1150  -12.2200  -19.8810 C   0  0  0  0  0  0  0  0  0  0  0  0
   -2.1710  -12.8960  -19.3220 N   0  0  0  0  0  0  0  0  0  0  0  0
   -0.1810  -11.7830  -19.2300 O   0  0  0  0  0  0  0  0  0  0  0  0
   -2.1760  -13.0550  -18.3260 H   0  0  0  0  0  0  0  0  0  0  0  0
   -2.9260  -13.2720  -19.8810 H   0  0  0  0  0  0  0  0  0  0  0  0
  1  2  1  6  0  0  0
  1 21  1  0  0  0  0
  3  4  2  0  0  0  0
  3  8  1  0  0  0  0
  4  5  1  0  0  0  0
  5  6  2  0  0  0  0
  7  6  1  0  0  0  0
  7  1  1  0  0  0  0
  8  7  2  0  0  0  0
  9 16  1  0  0  0  0
 10  9  2  0  0  0  0
 11  9  1  0  0  0  0
 11  3  1  0  0  0  0
 12 11  1  0  0  0  0
 13 20  1  0  0  0  0
 13 14  1  0  0  0  0
 15 14  2  0  0  0  0
 16 15  1  0  0  0  0
 17 18  1  0  0  0  0
 17 16  2  0  0  0  0
 18 13  2  0  0  0  0
 20 19  1  0  0  0  0
 21 22  1  0  0  0  0
 21 23  1  0  0  0  0
 23 32  2  0  0  0  0
 23 24  1  0  0  0  0
 24 25  2  0  0  0  0
 25 26  1  0  0  0  0
 27 28  1  0  0  0  0
 27 26  2  0  0  0  0
 28 33  1  0  0  0  0
 29 28  2  0  0  0  0
 30 29  1  0  0  0  0
 31 30  2  0  0  0  0
 31 32  1  0  0  0  0
 32 27  1  0  0  0  0
 33 34  1  0  0  0  0
 33 35  2  0  0  0  0
 34 36  1  0  0  0  0
 37 34  1  0  0  0  0
M  END
>  <minimizedAffinity>
-9.59989071

$$$$

 OpenBabel10152419373D

 37 40  0  0  1  0  0  0  0  0999 V2000
   -1.7910   -9.6600  -23.2440 C   0  0  2  0  0  3  0  0  0  0  0  0
   -0.9800   -9.3100  -21.9930 C   0  0  0  0  0  1  0  0  0  0  0  0
    1.2510  -11.3000  -24.9140 C   0  0  0  0  0  0  0  0  0  0  0  0
    0.7260  -11.6510  -26.1580 C   0  0  0  0  0  3  0  0  0  0  0  0
   -0.6350  -11.4930  -26.4150 C   0  0  0  0  0  3  0  0  0  0  0  0
   -1.4640  -10.9040  -25.4600 C   0  0  0  0  0  3  0  0  0  0  0  0
   -0.9430  -10.4700  -24.2300 C   0  0  0  0  0  0  0  0  0  0  0  0
    0.4140  -10.7340  -23.9430 C   0  0  0  0  0  3  0  0  0  0  0  0
    3.6340  -11.2790  -25.6950 C   0  0  0  0  0  0  0  0  0  0  0  0
    4.6480  -11.9680  -25.6320 O   0  0  0  0  0  0  0  0  0  0  0  0
    2.6450  -11.3910  -24.7480 N   0  0  0  0  0  0  0  0  0  0  0  0
    2.9730  -11.7470  -23.8570 H   0  0  0  0  0  0  0  0  0  0  0  0
    3.8510   -8.1330  -28.4950 C   0  0  0  0  0  0  0  0  0  0  0  0
    3.4600   -7.8220  -27.1990 C   0  0  0  0  0  3  0  0  0  0  0  0
    3.3110   -8.8580  -26.2770 C   0  0  0  0  0  3  0  0  0  0  0  0
    3.5770  -10.1700  -26.6720 C   0  0  0  0  0  0  0  0  0  0  0  0
    3.9940  -10.3820  -27.9760 C   0  0  0  0  0  3  0  0  0  0  0  0
    4.1170   -9.3940  -28.8990 N   0  0  0  0  0  0  0  0  0  0  0  0
    4.3670   -7.7140  -30.7360 C   0  0  0  0  0  1  0  0  0  0  0  0
    4.1020   -7.1790  -29.4430 O   0  0  0  0  0  0  0  0  0  0  0  0
   -2.2930   -8.4320  -23.8510 N   0  0  0  0  0  0  0  0  0  0  0  0
   -3.2850   -8.2690  -23.8860 H   0  0  0  0  0  0  0  0  0  0  0  0
   -1.4090   -7.3540  -23.8570 C   0  0  0  0  0  0  0  0  0  0  0  0
   -1.4040   -6.5820  -22.7550 N   0  0  0  0  0  0  0  0  0  0  0  0
   -0.9420   -5.3440  -22.8940 C   0  0  0  0  0  3  0  0  0  0  0  0
   -0.5800   -4.7890  -24.0500 N   0  0  0  0  0  0  0  0  0  0  0  0
   -0.5290   -5.5850  -25.1330 C   0  0  0  0  0  0  0  0  0  0  0  0
   -0.2630   -5.0740  -26.4040 C   0  0  0  0  0  0  0  0  0  0  0  0
   -0.0700   -5.8770  -27.5380 C   0  0  0  0  0  3  0  0  0  0  0  0
   -0.2050   -7.2500  -27.4240 C   0  0  0  0  0  3  0  0  0  0  0  0
   -0.6320   -7.7780  -26.2080 C   0  0  0  0  0  3  0  0  0  0  0  0
   -0.8240   -6.9480  -25.0680 C   0  0  0  0  0  0  0  0  0  0  0  0
   -0.5110   -3.6420  -26.6360 C   0  0  0  0  0  0  0  0  0  0  0  0
    0.4130   -3.0640  -27.4700 N   0  0  0  0  0  0  0  0  0  0  0  0
   -1.4190   -3.0200  -26.1100 O   0  0  0  0  0  0  0  0  0  0  0  0
    0.3370   -2.0780  -27.6750 H   0  0  0  0  0  0  0  0  0  0  0  0
    1.1460   -3.6010  -27.9170 H   0  0  0  0  0  0  0  0  0  0  0  0
  1  2  1  1  0  0  0
  3 11  1  0  0  0  0
  3  8  1  0  0  0  0
  4  3  2  0  0  0  0
  5  4  1  0  0  0  0
  5  6  2  0  0  0  0
  6  7  1  0  0  0  0
  7  8  2  0  0  0  0
  7  1  1  0  0  0  0
  9 10  2  0  0  0  0
  9 11  1  0  0  0  0
 11 12  1  0  0  0  0
 13 14  1  0  0  0  0
 14 15  2  0  0  0  0
 16 15  1  0  0  0  0
 16  9  1  0  0  0  0
 17 16  2  0  0  0  0
 18 13  2  0  0  0  0
 18 17  1  0  0  0  0
 19 20  1  0  0  0  0
 20 13  1  0  0  0  0
 21  1  1  0  0  0  0
 22 21  1  0  0  0  0
 23 21  1  0  0  0  0
 23 24  1  0  0  0  0
 25 24  2  0  0  0  0
 26 25  1  0  0  0  0
 27 32  1  0  0  0  0
 27 26  2  0  0  0  0
 28 27  1  0  0  0  0
 29 30  1  0  0  0  0
 29 28  2  0  0  0  0
 30 31  2  0  0  0  0
 31 32  1  0  0  0  0
 32 23  2  0  0  0  0
 33 28  1  0  0  0  0
 33 35  2  0  0  0  0
 34 33  1  0  0  0  0
 36 34  1  0  0  0  0
 37 34  1  0  0  0  0
M  END
>  <minimizedAffinity>
-9.33934975

$$$$

 OpenBabel10152419373D

 37 40  0  0  1  0  0  0  0  0999 V2000
    1.9670  -11.9350  -24.5850 C   0  0  2  0  0  3  0  0  0  0  0  0
    1.7750  -10.6140  -23.8340 C   0  0  0  0  0  1  0  0  0  0  0  0
    4.0400  -10.2130  -27.3190 C   0  0  0  0  0  0  0  0  0  0  0  0
    3.8910  -11.1070  -28.3800 C   0  0  0  0  0  3  0  0  0  0  0  0
    3.2480  -12.3280  -28.1850 C   0  0  0  0  0  3  0  0  0  0  0  0
    2.6740  -12.6270  -26.9490 C   0  0  0  0  0  3  0  0  0  0  0  0
    2.7420  -11.7100  -25.8880 C   0  0  0  0  0  0  0  0  0  0  0  0
    3.4890  -10.5250  -26.0680 C   0  0  0  0  0  3  0  0  0  0  0  0
    4.0060   -7.8290  -28.0940 C   0  0  0  0  0  0  0  0  0  0  0  0
    4.5970   -7.0880  -28.8750 O   0  0  0  0  0  0  0  0  0  0  0  0
    4.6110   -8.9600  -27.6010 N   0  0  0  0  0  0  0  0  0  0  0  0
    5.6240   -8.9140  -27.6030 H   0  0  0  0  0  0  0  0  0  0  0  0
    0.4950   -6.2210  -26.4000 C   0  0  0  0  0  0  0  0  0  0  0  0
    1.2160   -7.1410  -25.6490 C   0  0  0  0  0  3  0  0  0  0  0  0
    2.3390   -7.7390  -26.2190 C   0  0  0  0  0  3  0  0  0  0  0  0
    2.7210   -7.3860  -27.5150 C   0  0  0  0  0  0  0  0  0  0  0  0
    1.9610   -6.4340  -28.1760 C   0  0  0  0  0  3  0  0  0  0  0  0
    0.8460   -5.8610  -27.6540 N   0  0  0  0  0  0  0  0  0  0  0  0
   -0.7340   -4.2350  -26.4790 C   0  0  0  0  0  1  0  0  0  0  0  0
   -0.5690   -5.5240  -25.8970 O   0  0  0  0  0  0  0  0  0  0  0  0
    0.6630  -12.5400  -24.8350 N   0  0  0  0  0  0  0  0  0  0  0  0
    0.4780  -13.4700  -24.4980 H   0  0  0  0  0  0  0  0  0  0  0  0
   -0.3900  -11.6490  -25.0340 C   0  0  0  0  0  0  0  0  0  0  0  0
   -0.5080  -11.1340  -26.2700 N   0  0  0  0  0  0  0  0  0  0  0  0
   -1.1760   -9.9900  -26.3800 C   0  0  0  0  0  3  0  0  0  0  0  0
   -1.6430   -9.2760  -25.3570 N   0  0  0  0  0  0  0  0  0  0  0  0
   -1.5750   -9.8280  -24.1320 C   0  0  0  0  0  0  0  0  0  0  0  0
   -1.9430   -9.1180  -22.9890 C   0  0  0  0  0  0  0  0  0  0  0  0
   -2.0150   -9.6910  -21.7100 C   0  0  0  0  0  3  0  0  0  0  0  0
   -1.6480  -11.0140  -21.5410 C   0  0  0  0  0  3  0  0  0  0  0  0
   -1.1210  -11.7030  -22.6300 C   0  0  0  0  0  3  0  0  0  0  0  0
   -1.0530  -11.1060  -23.9210 C   0  0  0  0  0  0  0  0  0  0  0  0
   -1.9440   -7.6480  -23.0620 C   0  0  0  0  0  0  0  0  0  0  0  0
   -0.6850   -7.1050  -23.0080 N   0  0  0  0  0  0  0  0  0  0  0  0
   -2.9600   -6.9760  -23.1220 O   0  0  0  0  0  0  0  0  0  0  0  0
   -0.5850   -6.1010  -23.0330 H   0  0  0  0  0  0  0  0  0  0  0  0
    0.1490   -7.6790  -22.9830 H   0  0  0  0  0  0  0  0  0  0  0  0
  1  2  1  6  0  0  0
  3  8  1  0  0  0  0
  4  5  1  0  0  0  0
  4  3  2  0  0  0  0
  5  6  2  0  0  0  0
  6  7  1  0  0  0  0
  7  1  1  0  0  0  0
  8  7  2  0  0  0  0
  9 11  1  0  0  0  0
  9 16  1  0  0  0  0
 10  9  2  0  0  0  0
 11  3  1  0  0  0  0
 12 11  1  0  0  0  0
 13 20  1  0  0  0  0
 13 14  1  0  0  0  0
 15 14  2  0  0  0  0
 16 15  1  0  0  0  0
 17 18  1  0  0  0  0
 17 16  2  0  0  0  0
 18 13  2  0  0  0  0
 19 20  1  0  0  0  0
 21  1  1  0  0  0  0
 21 22  1  0  0  0  0
 23 21  1  0  0  0  0
 23 32  1  0  0  0  0
 24 23  2  0  0  0  0
 25 24  1  0  0  0  0
 25 26  2  0  0  0  0
 26 27  1  0  0  0  0
 27 32  2  0  0  0  0
 27 28  1  0  0  0  0
 28 29  2  0  0  0  0
 29 30  1  0  0  0  0
 31 30  2  0  0  0  0
 32 31  1  0  0  0  0
 33 34  1  0  0  0  0
 33 28  1  0  0  0  0
 34 37  1  0  0  0  0
 35 33  2  0  0  0  0
 36 34  1  0  0  0  0
M  END
>  <minimizedAffinity>
-8.99685764

$$$$

 OpenBabel10152419373D

 37 40  0  0  1  0  0  0  0  0999 V2000
   -1.2460   -6.6110  -24.5260 C   0  0  2  0  0  3  0  0  0  0  0  0
   -0.2220   -5.5300  -24.1690 C   0  0  0  0  0  1  0  0  0  0  0  0
   -1.2300  -10.1670  -23.0810 C   0  0  0  0  0  0  0  0  0  0  0  0
   -1.4310   -9.9130  -21.7240 C   0  0  0  0  0  3  0  0  0  0  0  0
   -1.4330   -8.6040  -21.2470 C   0  0  0  0  0  3  0  0  0  0  0  0
   -1.3170   -7.5350  -22.1370 C   0  0  0  0  0  3  0  0  0  0  0  0
   -1.1920   -7.7630  -23.5170 C   0  0  0  0  0  0  0  0  0  0  0  0
   -1.0840   -9.0950  -23.9720 C   0  0  0  0  0  3  0  0  0  0  0  0
   -0.7640  -12.0980  -24.6120 C   0  0  0  0  0  0  0  0  0  0  0  0
   -1.3690  -12.9580  -25.2470 O   0  0  0  0  0  0  0  0  0  0  0  0
   -1.3360  -11.5000  -23.5150 N   0  0  0  0  0  0  0  0  0  0  0  0
   -2.0500  -12.0660  -23.0690 H   0  0  0  0  0  0  0  0  0  0  0  0
    3.3220  -11.7680  -25.5980 C   0  0  0  0  0  0  0  0  0  0  0  0
    2.9890  -11.9190  -24.2590 C   0  0  0  0  0  3  0  0  0  0  0  0
    1.6400  -11.9560  -23.9040 C   0  0  0  0  0  3  0  0  0  0  0  0
    0.6660  -11.8620  -24.9000 C   0  0  0  0  0  0  0  0  0  0  0  0
    1.0930  -11.7470  -26.2130 C   0  0  0  0  0  3  0  0  0  0  0  0
    2.3980  -11.6770  -26.5800 N   0  0  0  0  0  0  0  0  0  0  0  0
    4.7220  -11.8290  -27.4690 C   0  0  0  0  0  1  0  0  0  0  0  0
    4.6130  -11.8030  -26.0500 O   0  0  0  0  0  0  0  0  0  0  0  0
   -0.9990   -7.0780  -25.8860 N   0  0  0  0  0  0  0  0  0  0  0  0
   -1.7400   -7.5310  -26.3950 H   0  0  0  0  0  0  0  0  0  0  0  0
    0.0200   -6.4230  -26.5760 C   0  0  0  0  0  0  0  0  0  0  0  0
   -0.3640   -5.4620  -27.4340 N   0  0  0  0  0  0  0  0  0  0  0  0
    0.4910   -5.1480  -28.4020 C   0  0  0  0  0  3  0  0  0  0  0  0
    1.6410   -5.7760  -28.6390 N   0  0  0  0  0  0  0  0  0  0  0  0
    2.0460   -6.6920  -27.7410 C   0  0  0  0  0  0  0  0  0  0  0  0
    3.1810   -7.4730  -27.9540 C   0  0  0  0  0  0  0  0  0  0  0  0
    3.7160   -8.3440  -26.9930 C   0  0  0  0  0  3  0  0  0  0  0  0
    3.0630   -8.4960  -25.7830 C   0  0  0  0  0  3  0  0  0  0  0  0
    1.8390   -7.8570  -25.6010 C   0  0  0  0  0  3  0  0  0  0  0  0
    1.3110   -6.9780  -26.5890 C   0  0  0  0  0  0  0  0  0  0  0  0
    3.6530   -7.6390  -29.3390 C   0  0  0  0  0  0  0  0  0  0  0  0
    4.5100   -6.6450  -29.7400 N   0  0  0  0  0  0  0  0  0  0  0  0
    3.2890   -8.5430  -30.0720 O   0  0  0  0  0  0  0  0  0  0  0  0
    4.8720   -6.6620  -30.6810 H   0  0  0  0  0  0  0  0  0  0  0  0
    4.8200   -5.9150  -29.1100 H   0  0  0  0  0  0  0  0  0  0  0  0
  1  2  1  1  0  0  0
  1  7  1  0  0  0  0
  3  4  1  0  0  0  0
  4  5  2  0  0  0  0
  6  5  1  0  0  0  0
  7  6  2  0  0  0  0
  8  7  1  0  0  0  0
  8  3  2  0  0  0  0
  9 11  1  0  0  0  0
 10  9  2  0  0  0  0
 11  3  1  0  0  0  0
 11 12  1  0  0  0  0
 13 14  1  0  0  0  0
 14 15  2  0  0  0  0
 16  9  1  0  0  0  0
 16 15  1  0  0  0  0
 17 16  2  0  0  0  0
 18 17  1  0  0  0  0
 18 13  2  0  0  0  0
 19 20  1  0  0  0  0
 20 13  1  0  0  0  0
 21  1  1  0  0  0  0
 22 21  1  0  0  0  0
 23 21  1  0  0  0  0
 24 23  2  0  0  0  0
 25 24  1  0  0  0  0
 26 25  2  0  0  0  0
 26 27  1  0  0  0  0
 27 32  1  0  0  0  0
 28 27  2  0  0  0  0
 28 29  1  0  0  0  0
 29 30  2  0  0  0  0
 30 31  1  0  0  0  0
 32 23  1  0  0  0  0
 32 31  2  0  0  0  0
 33 28  1  0  0  0  0
 34 33  1  0  0  0  0
 34 37  1  0  0  0  0
 35 33  2  0  0  0  0
 36 34  1  0  0  0  0
M  END
>  <minimizedAffinity>
-8.93044949

$$$$

 OpenBabel10152419373D

 37 40  0  0  1  0  0  0  0  0999 V2000
   -1.2120   -8.9250  -23.3860 C   0  0  2  0  0  3  0  0  0  0  0  0
   -1.2750   -8.9160  -21.8560 C   0  0  0  0  0  1  0  0  0  0  0  0
    1.4290  -11.5300  -24.3710 C   0  0  0  0  0  0  0  0  0  0  0  0
    0.6630  -12.4320  -25.1100 C   0  0  0  0  0  3  0  0  0  0  0  0
   -0.7220  -12.2870  -25.1770 C   0  0  0  0  0  3  0  0  0  0  0  0
   -1.3400  -11.1900  -24.5770 C   0  0  0  0  0  3  0  0  0  0  0  0
   -0.5820  -10.2260  -23.8940 C   0  0  0  0  0  0  0  0  0  0  0  0
    0.8050  -10.4430  -23.7440 C   0  0  0  0  0  3  0  0  0  0  0  0
    3.6670  -11.5540  -25.5030 C   0  0  0  0  0  0  0  0  0  0  0  0
    4.6520  -12.2780  -25.6170 O   0  0  0  0  0  0  0  0  0  0  0  0
    2.8270  -11.6720  -24.4220 N   0  0  0  0  0  0  0  0  0  0  0  0
    3.2710  -12.0740  -23.6030 H   0  0  0  0  0  0  0  0  0  0  0  0
    3.5870   -8.2540  -28.1260 C   0  0  0  0  0  0  0  0  0  0  0  0
    3.1390   -8.0600  -26.8260 C   0  0  0  0  0  3  0  0  0  0  0  0
    3.0880   -9.1550  -25.9640 C   0  0  0  0  0  3  0  0  0  0  0  0
    3.5060  -10.4060  -26.4200 C   0  0  0  0  0  0  0  0  0  0  0  0
    3.9700  -10.4990  -27.7230 C   0  0  0  0  0  3  0  0  0  0  0  0
    4.0000   -9.4540  -28.5900 N   0  0  0  0  0  0  0  0  0  0  0  0
    3.9570   -7.6600  -30.3560 C   0  0  0  0  0  1  0  0  0  0  0  0
    3.7500   -7.2270  -29.0160 O   0  0  0  0  0  0  0  0  0  0  0  0
   -0.4710   -7.7550  -23.8440 N   0  0  0  0  0  0  0  0  0  0  0  0
    0.4050   -7.5230  -23.4060 H   0  0  0  0  0  0  0  0  0  0  0  0
   -0.7210   -7.3540  -25.1560 C   0  0  0  0  0  0  0  0  0  0  0  0
   -0.6700   -8.3180  -26.0920 N   0  0  0  0  0  0  0  0  0  0  0  0
   -0.4540   -7.9260  -27.3440 C   0  0  0  0  0  3  0  0  0  0  0  0
   -0.1900   -6.6750  -27.7180 N   0  0  0  0  0  0  0  0  0  0  0  0
   -0.3040   -5.7110  -26.7860 C   0  0  0  0  0  0  0  0  0  0  0  0
    0.0520   -4.3890  -27.0550 C   0  0  0  0  0  0  0  0  0  0  0  0
   -0.1720   -3.3290  -26.1640 C   0  0  0  0  0  3  0  0  0  0  0  0
   -0.7190   -3.5960  -24.9210 C   0  0  0  0  0  3  0  0  0  0  0  0
   -0.9330   -4.9230  -24.5590 C   0  0  0  0  0  3  0  0  0  0  0  0
   -0.6980   -5.9870  -25.4760 C   0  0  0  0  0  0  0  0  0  0  0  0
    0.9830   -4.1400  -28.1680 C   0  0  0  0  0  0  0  0  0  0  0  0
    2.0960   -4.9430  -28.1300 N   0  0  0  0  0  0  0  0  0  0  0  0
    0.8080   -3.2800  -29.0150 O   0  0  0  0  0  0  0  0  0  0  0  0
    2.8020   -4.8320  -28.8420 H   0  0  0  0  0  0  0  0  0  0  0  0
    2.2140   -5.6680  -27.4330 H   0  0  0  0  0  0  0  0  0  0  0  0
  1  2  1  1  0  0  0
  3  8  1  0  0  0  0
  4  3  2  0  0  0  0
  5  4  1  0  0  0  0
  5  6  2  0  0  0  0
  6  7  1  0  0  0  0
  7  8  2  0  0  0  0
  7  1  1  0  0  0  0
  9 11  1  0  0  0  0
 10  9  2  0  0  0  0
 11  3  1  0  0  0  0
 11 12  1  0  0  0  0
 13 14  1  0  0  0  0
 14 15  2  0  0  0  0
 16 15  1  0  0  0  0
 16  9  1  0  0  0  0
 17 16  2  0  0  0  0
 18 13  2  0  0  0  0
 18 17  1  0  0  0  0
 19 20  1  0  0  0  0
 20 13  1  0  0  0  0
 21 22  1  0  0  0  0
 21  1  1  0  0  0  0
 23 21  1  0  0  0  0
 24 23  2  0  0  0  0
 25 24  1  0  0  0  0
 26 25  2  0  0  0  0
 26 27  1  0  0  0  0
 27 32  1  0  0  0  0
 28 27  2  0  0  0  0
 28 29  1  0  0  0  0
 29 30  2  0  0  0  0
 30 31  1  0  0  0  0
 32 23  1  0  0  0  0
 32 31  2  0  0  0  0
 33 34  1  0  0  0  0
 33 28  1  0  0  0  0
 34 37  1  0  0  0  0
 35 33  2  0  0  0  0
 36 34  1  0  0  0  0
M  END
>  <minimizedAffinity>
-8.15354156

$$$$

 OpenBabel10152419373D

 37 40  0  0  1  0  0  0  0  0999 V2000
    0.2150   -7.8640  -23.8210 C   0  0  2  0  0  3  0  0  0  0  0  0
    0.2060   -6.3340  -23.7530 C   0  0  0  0  0  1  0  0  0  0  0  0
    2.7950   -8.0210  -26.6580 C   0  0  0  0  0  0  0  0  0  0  0  0
    3.2180   -9.3480  -26.5720 C   0  0  0  0  0  3  0  0  0  0  0  0
    2.7860  -10.1550  -25.5210 C   0  0  0  0  0  3  0  0  0  0  0  0
    1.8610   -9.6670  -24.5980 C   0  0  0  0  0  3  0  0  0  0  0  0
    1.3600   -8.3600  -24.7100 C   0  0  0  0  0  0  0  0  0  0  0  0
    1.8880   -7.5200  -25.7150 C   0  0  0  0  0  3  0  0  0  0  0  0
    2.4000   -6.6570  -28.7250 C   0  0  0  0  0  0  0  0  0  0  0  0
    2.7220   -6.6350  -29.9100 O   0  0  0  0  0  0  0  0  0  0  0  0
    3.1870   -7.2880  -27.7920 N   0  0  0  0  0  0  0  0  0  0  0  0
    4.1610   -7.3610  -28.0640 H   0  0  0  0  0  0  0  0  0  0  0  0
   -0.6150   -4.1900  -27.1100 C   0  0  0  0  0  0  0  0  0  0  0  0
   -0.8680   -5.5530  -27.1950 C   0  0  0  0  0  3  0  0  0  0  0  0
    0.0860   -6.3760  -27.7930 C   0  0  0  0  0  3  0  0  0  0  0  0
    1.2720   -5.8160  -28.2700 C   0  0  0  0  0  0  0  0  0  0  0  0
    1.4530   -4.4520  -28.1120 C   0  0  0  0  0  3  0  0  0  0  0  0
    0.5270   -3.6250  -27.5620 N   0  0  0  0  0  0  0  0  0  0  0  0
   -0.8050   -2.1320  -26.0190 C   0  0  0  0  0  1  0  0  0  0  0  0
   -1.4520   -3.3180  -26.4690 O   0  0  0  0  0  0  0  0  0  0  0  0
   -1.0800   -8.3310  -24.3050 N   0  0  0  0  0  0  0  0  0  0  0  0
   -1.2030   -8.5120  -25.2870 H   0  0  0  0  0  0  0  0  0  0  0  0
   -1.8730   -8.9930  -23.3700 C   0  0  0  0  0  0  0  0  0  0  0  0
   -2.6170   -8.2150  -22.5630 N   0  0  0  0  0  0  0  0  0  0  0  0
   -3.0120   -8.7510  -21.4130 C   0  0  0  0  0  3  0  0  0  0  0  0
   -2.6460   -9.9510  -20.9630 N   0  0  0  0  0  0  0  0  0  0  0  0
   -1.9550  -10.7440  -21.8010 C   0  0  0  0  0  0  0  0  0  0  0  0
   -1.4410  -11.9730  -21.3870 C   0  0  0  0  0  0  0  0  0  0  0  0
   -0.8310  -12.8910  -22.2550 C   0  0  0  0  0  3  0  0  0  0  0  0
   -0.6660  -12.5540  -23.5870 C   0  0  0  0  0  3  0  0  0  0  0  0
   -1.0200  -11.2710  -23.9980 C   0  0  0  0  0  3  0  0  0  0  0  0
   -1.6360  -10.3520  -23.1030 C   0  0  0  0  0  0  0  0  0  0  0  0
   -1.2360  -12.1820  -19.9440 C   0  0  0  0  0  0  0  0  0  0  0  0
   -2.3530  -12.6590  -19.3050 N   0  0  0  0  0  0  0  0  0  0  0  0
   -0.1950  -11.9210  -19.3650 O   0  0  0  0  0  0  0  0  0  0  0  0
   -2.3160  -12.8170  -18.3090 H   0  0  0  0  0  0  0  0  0  0  0  0
   -3.2020  -12.8940  -19.8060 H   0  0  0  0  0  0  0  0  0  0  0  0
  1  2  1  6  0  0  0
  3  4  2  0  0  0  0
  3  8  1  0  0  0  0
  4  5  1  0  0  0  0
  5  6  2  0  0  0  0
  7  6  1  0  0  0  0
  7  1  1  0  0  0  0
  8  7  2  0  0  0  0
  9 16  1  0  0  0  0
  9 11  1  0  0  0  0
 10  9  2  0  0  0  0
 11  3  1  0  0  0  0
 12 11  1  0  0  0  0
 13 20  1  0  0  0  0
 14 13  1  0  0  0  0
 15 14  2  0  0  0  0
 16 17  2  0  0  0  0
 16 15  1  0  0  0  0
 17 18  1  0  0  0  0
 18 13  2  0  0  0  0
 20 19  1  0  0  0  0
 21  1  1  0  0  0  0
 21 23  1  0  0  0  0
 22 21  1  0  0  0  0
 23 32  2  0  0  0  0
 23 24  1  0  0  0  0
 24 25  2  0  0  0  0
 25 26  1  0  0  0  0
 27 28  1  0  0  0  0
 27 26  2  0  0  0  0
 28 33  1  0  0  0  0
 29 28  2  0  0  0  0
 30 29  1  0  0  0  0
 31 30  2  0  0  0  0
 31 32  1  0  0  0  0
 32 27  1  0  0  0  0
 33 35  2  0  0  0  0
 33 34  1  0  0  0  0
 34 36  1  0  0  0  0
 37 34  1  0  0  0  0
M  END
>  <minimizedAffinity>
-8.14357185

$$$$

 OpenBabel10152419373D

 37 40  0  0  1  0  0  0  0  0999 V2000
    2.5860   -8.6770  -26.2930 C   0  0  2  0  0  3  0  0  0  0  0  0
    3.3450   -8.3840  -27.5900 C   0  0  0  0  0  1  0  0  0  0  0  0
    1.5710  -12.0830  -24.8420 C   0  0  0  0  0  0  0  0  0  0  0  0
    2.6920  -12.8560  -25.1450 C   0  0  0  0  0  3  0  0  0  0  0  0
    3.7140  -12.3320  -25.9350 C   0  0  0  0  0  3  0  0  0  0  0  0
    3.6600  -11.0030  -26.3570 C   0  0  0  0  0  3  0  0  0  0  0  0
    2.5790  -10.1810  -25.9980 C   0  0  0  0  0  0  0  0  0  0  0  0
    1.5030  -10.7560  -25.2890 C   0  0  0  0  0  3  0  0  0  0  0  0
   -0.1320  -12.0010  -23.0030 C   0  0  0  0  0  0  0  0  0  0  0  0
   -0.3890  -12.5550  -21.9370 O   0  0  0  0  0  0  0  0  0  0  0  0
    0.6220  -12.6330  -23.9620 N   0  0  0  0  0  0  0  0  0  0  0  0
    0.5960  -13.6450  -23.8990 H   0  0  0  0  0  0  0  0  0  0  0  0
   -2.3870   -8.5210  -23.7690 C   0  0  0  0  0  0  0  0  0  0  0  0
   -2.1380   -9.3800  -24.8310 C   0  0  0  0  0  3  0  0  0  0  0  0
   -1.3330  -10.4990  -24.6150 C   0  0  0  0  0  3  0  0  0  0  0  0
   -0.8180  -10.7360  -23.3400 C   0  0  0  0  0  0  0  0  0  0  0  0
   -1.1460   -9.8430  -22.3330 C   0  0  0  0  0  3  0  0  0  0  0  0
   -1.9020   -8.7310  -22.5250 N   0  0  0  0  0  0  0  0  0  0  0  0
   -4.4900   -7.6520  -23.2330 C   0  0  0  0  0  1  0  0  0  0  0  0
   -3.2290   -7.4470  -23.8640 O   0  0  0  0  0  0  0  0  0  0  0  0
    1.2310   -8.1460  -26.3980 N   0  0  0  0  0  0  0  0  0  0  0  0
    0.4680   -8.7740  -26.5830 H   0  0  0  0  0  0  0  0  0  0  0  0
    0.9980   -6.9450  -25.7300 C   0  0  0  0  0  0  0  0  0  0  0  0
    0.5520   -7.0440  -24.4650 N   0  0  0  0  0  0  0  0  0  0  0  0
   -0.0910   -5.9900  -23.9730 C   0  0  0  0  0  3  0  0  0  0  0  0
   -0.4080   -4.8960  -24.6650 N   0  0  0  0  0  0  0  0  0  0  0  0
    0.0950   -4.7800  -25.9070 C   0  0  0  0  0  0  0  0  0  0  0  0
   -0.2630   -3.7240  -26.7450 C   0  0  0  0  0  0  0  0  0  0  0  0
    0.3320   -3.4870  -27.9930 C   0  0  0  0  0  3  0  0  0  0  0  0
    1.2860   -4.3720  -28.4650 C   0  0  0  0  0  3  0  0  0  0  0  0
    1.5470   -5.5240  -27.7280 C   0  0  0  0  0  3  0  0  0  0  0  0
    0.9330   -5.7490  -26.4640 C   0  0  0  0  0  0  0  0  0  0  0  0
   -1.5250   -3.0200  -26.4640 C   0  0  0  0  0  0  0  0  0  0  0  0
   -1.4100   -2.0850  -25.4660 N   0  0  0  0  0  0  0  0  0  0  0  0
   -2.5760   -3.2690  -27.0300 O   0  0  0  0  0  0  0  0  0  0  0  0
   -2.2290   -1.5630  -25.1890 H   0  0  0  0  0  0  0  0  0  0  0  0
   -0.5240   -1.8750  -25.0240 H   0  0  0  0  0  0  0  0  0  0  0  0
  1  2  1  6  0  0  0
  1  7  1  0  0  0  0
  3 11  1  0  0  0  0
  4  3  1  0  0  0  0
  5  4  2  0  0  0  0
  6  7  2  0  0  0  0
  6  5  1  0  0  0  0
  7  8  1  0  0  0  0
  8  3  2  0  0  0  0
  9 10  2  0  0  0  0
 11 12  1  0  0  0  0
 11  9  1  0  0  0  0
 13 18  2  0  0  0  0
 14 15  2  0  0  0  0
 14 13  1  0  0  0  0
 15 16  1  0  0  0  0
 16  9  1  0  0  0  0
 16 17  2  0  0  0  0
 18 17  1  0  0  0  0
 20 13  1  0  0  0  0
 20 19  1  0  0  0  0
 21  1  1  0  0  0  0
 21 23  1  0  0  0  0
 22 21  1  0  0  0  0
 23 24  1  0  0  0  0
 24 25  2  0  0  0  0
 26 25  1  0  0  0  0
 27 26  2  0  0  0  0
 28 33  1  0  0  0  0
 28 27  1  0  0  0  0
 29 28  2  0  0  0  0
 30 29  1  0  0  0  0
 30 31  2  0  0  0  0
 31 32  1  0  0  0  0
 32 27  1  0  0  0  0
 32 23  2  0  0  0  0
 33 34  1  0  0  0  0
 34 36  1  0  0  0  0
 34 37  1  0  0  0  0
 35 33  2  0  0  0  0
M  END
>  <minimizedAffinity>
-8.02476215

$$$$

 OpenBabel10152419373D

 37 40  0  0  1  0  0  0  0  0999 V2000
    4.3710   -8.5870  -27.1530 C   0  0  2  0  0  3  0  0  0  0  0  0
    4.7140   -7.8670  -28.4600 C   0  0  0  0  0  1  0  0  0  0  0  0
    2.6570  -11.9770  -26.6040 C   0  0  0  0  0  0  0  0  0  0  0  0
    2.9520  -12.6320  -27.8000 C   0  0  0  0  0  3  0  0  0  0  0  0
    3.5770  -11.9450  -28.8400 C   0  0  0  0  0  3  0  0  0  0  0  0
    3.9870  -10.6240  -28.6590 C   0  0  0  0  0  3  0  0  0  0  0  0
    3.7720   -9.9690  -27.4360 C   0  0  0  0  0  0  0  0  0  0  0  0
    3.0430  -10.6410  -26.4310 C   0  0  0  0  0  3  0  0  0  0  0  0
    1.4850  -12.3250  -24.4140 C   0  0  0  0  0  0  0  0  0  0  0  0
    1.6390  -12.9240  -23.3520 O   0  0  0  0  0  0  0  0  0  0  0  0
    2.1160  -12.7480  -25.5590 N   0  0  0  0  0  0  0  0  0  0  0  0
    2.3570  -13.7330  -25.5510 H   0  0  0  0  0  0  0  0  0  0  0  0
   -1.6690   -9.5260  -24.4110 C   0  0  0  0  0  0  0  0  0  0  0  0
   -1.5170  -10.3310  -25.5330 C   0  0  0  0  0  3  0  0  0  0  0  0
   -0.4360  -11.2120  -25.5850 C   0  0  0  0  0  3  0  0  0  0  0  0
    0.4470  -11.2760  -24.5060 C   0  0  0  0  0  0  0  0  0  0  0  0
    0.1980  -10.4600  -23.4150 C   0  0  0  0  0  3  0  0  0  0  0  0
   -0.8290   -9.5730  -23.3540 N   0  0  0  0  0  0  0  0  0  0  0  0
   -2.8220   -8.1370  -22.9270 C   0  0  0  0  0  1  0  0  0  0  0  0
   -2.7400   -8.6940  -24.2350 O   0  0  0  0  0  0  0  0  0  0  0  0
    3.4600   -7.7580  -26.3710 N   0  0  0  0  0  0  0  0  0  0  0  0
    3.8030   -7.2860  -25.5520 H   0  0  0  0  0  0  0  0  0  0  0  0
    2.3630   -7.2460  -27.0620 C   0  0  0  0  0  0  0  0  0  0  0  0
    2.5340   -7.0380  -28.3800 N   0  0  0  0  0  0  0  0  0  0  0  0
    1.7170   -6.1650  -28.9590 C   0  0  0  0  0  3  0  0  0  0  0  0
    0.8190   -5.4170  -28.3190 N   0  0  0  0  0  0  0  0  0  0  0  0
    0.6120   -5.6750  -27.0150 C   0  0  0  0  0  0  0  0  0  0  0  0
   -0.2300   -4.8810  -26.2370 C   0  0  0  0  0  0  0  0  0  0  0  0
   -0.5790   -5.1850  -24.9120 C   0  0  0  0  0  3  0  0  0  0  0  0
   -0.0220   -6.2980  -24.3060 C   0  0  0  0  0  3  0  0  0  0  0  0
    0.9470   -7.0180  -24.9990 C   0  0  0  0  0  3  0  0  0  0  0  0
    1.2910   -6.6940  -26.3420 C   0  0  0  0  0  0  0  0  0  0  0  0
   -0.5070   -3.5110  -26.7010 C   0  0  0  0  0  0  0  0  0  0  0  0
    0.5020   -2.9890  -27.4710 N   0  0  0  0  0  0  0  0  0  0  0  0
   -1.5090   -2.8860  -26.3990 O   0  0  0  0  0  0  0  0  0  0  0  0
    0.4110   -2.0470  -27.8210 H   0  0  0  0  0  0  0  0  0  0  0  0
    1.3170   -3.5310  -27.7320 H   0  0  0  0  0  0  0  0  0  0  0  0
  1  2  1  6  0  0  0
  1 21  1  0  0  0  0
  3  8  1  0  0  0  0
  3 11  1  0  0  0  0
  4  3  2  0  0  0  0
  5  6  2  0  0  0  0
  5  4  1  0  0  0  0
  6  7  1  0  0  0  0
  7  1  1  0  0  0  0
  7  8  2  0  0  0  0
  9 10  2  0  0  0  0
 11 12  1  0  0  0  0
 11  9  1  0  0  0  0
 13 20  1  0  0  0  0
 13 18  2  0  0  0  0
 14 13  1  0  0  0  0
 15 14  2  0  0  0  0
 15 16  1  0  0  0  0
 16  9  1  0  0  0  0
 16 17  2  0  0  0  0
 17 18  1  0  0  0  0
 20 19  1  0  0  0  0
 21 22  1  0  0  0  0
 23 21  1  0  0  0  0
 23 32  1  0  0  0  0
 24 23  2  0  0  0  0
 25 24  1  0  0  0  0
 25 26  2  0  0  0  0
 26 27  1  0  0  0  0
 27 32  2  0  0  0  0
 27 28  1  0  0  0  0
 28 29  2  0  0  0  0
 29 30  1  0  0  0  0
 31 30  2  0  0  0  0
 32 31  1  0  0  0  0
 33 35  2  0  0  0  0
 33 28  1  0  0  0  0
 34 33  1  0  0  0  0
 36 34  1  0  0  0  0
 37 34  1  0  0  0  0
M  END
>  <minimizedAffinity>
-7.89780903

$$$$

 OpenBabel10152419373D

 37 40  0  0  1  0  0  0  0  0999 V2000
    2.1340  -10.8020  -25.7330 C   0  0  2  0  0  3  0  0  0  0  0  0
    1.3220  -11.1560  -26.9820 C   0  0  0  0  0  1  0  0  0  0  0  0
   -0.0640  -12.3690  -23.0040 C   0  0  0  0  0  0  0  0  0  0  0  0
    0.8980  -12.9470  -22.1750 C   0  0  0  0  0  3  0  0  0  0  0  0
    2.2390  -12.9590  -22.5560 C   0  0  0  0  0  3  0  0  0  0  0  0
    2.6380  -12.3190  -23.7300 C   0  0  0  0  0  3  0  0  0  0  0  0
    1.6980  -11.6620  -24.5420 C   0  0  0  0  0  0  0  0  0  0  0  0
    0.3320  -11.7510  -24.1980 C   0  0  0  0  0  3  0  0  0  0  0  0
   -1.9380  -11.3890  -21.6570 C   0  0  0  0  0  0  0  0  0  0  0  0
   -2.7800  -11.7330  -20.8310 O   0  0  0  0  0  0  0  0  0  0  0  0
   -1.3820  -12.3020  -22.5200 N   0  0  0  0  0  0  0  0  0  0  0  0
   -1.9680  -13.1130  -22.6870 H   0  0  0  0  0  0  0  0  0  0  0  0
   -1.5800   -7.2230  -22.2020 C   0  0  0  0  0  0  0  0  0  0  0  0
   -1.4020   -8.0390  -23.3110 C   0  0  0  0  0  3  0  0  0  0  0  0
   -1.4440   -9.4230  -23.1380 C   0  0  0  0  0  3  0  0  0  0  0  0
   -1.6820   -9.9480  -21.8670 C   0  0  0  0  0  0  0  0  0  0  0  0
   -1.8800   -9.0560  -20.8250 C   0  0  0  0  0  3  0  0  0  0  0  0
   -1.8140   -7.7070  -20.9620 N   0  0  0  0  0  0  0  0  0  0  0  0
   -0.7570   -5.3090  -23.2620 C   0  0  0  0  0  1  0  0  0  0  0  0
   -1.6370   -5.8580  -22.2860 O   0  0  0  0  0  0  0  0  0  0  0  0
    1.9830   -9.3780  -25.4490 N   0  0  0  0  0  0  0  0  0  0  0  0
    2.2370   -9.0270  -24.5410 H   0  0  0  0  0  0  0  0  0  0  0  0
    2.0150   -8.5330  -26.5570 C   0  0  0  0  0  0  0  0  0  0  0  0
    3.2220   -8.3220  -27.1110 N   0  0  0  0  0  0  0  0  0  0  0  0
    3.3610   -7.2200  -27.8410 C   0  0  0  0  0  3  0  0  0  0  0  0
    2.4340   -6.2730  -27.9790 N   0  0  0  0  0  0  0  0  0  0  0  0
    1.2120   -6.5210  -27.4740 C   0  0  0  0  0  0  0  0  0  0  0  0
    0.2090   -5.5520  -27.4780 C   0  0  0  0  0  0  0  0  0  0  0  0
   -1.1140   -5.8030  -27.0860 C   0  0  0  0  0  3  0  0  0  0  0  0
   -1.4500   -7.0580  -26.6090 C   0  0  0  0  0  3  0  0  0  0  0  0
   -0.4380   -7.9980  -26.4370 C   0  0  0  0  0  3  0  0  0  0  0  0
    0.9010   -7.7250  -26.8400 C   0  0  0  0  0  0  0  0  0  0  0  0
    0.6150   -4.1410  -27.5880 C   0  0  0  0  0  0  0  0  0  0  0  0
    0.0350   -3.3380  -26.6370 N   0  0  0  0  0  0  0  0  0  0  0  0
    1.3580   -3.7180  -28.4580 O   0  0  0  0  0  0  0  0  0  0  0  0
    0.2390   -2.3500  -26.6430 H   0  0  0  0  0  0  0  0  0  0  0  0
   -0.5600   -3.7110  -25.9080 H   0  0  0  0  0  0  0  0  0  0  0  0
  1  2  1  6  0  0  0
  1 21  1  0  0  0  0
  1  7  1  0  0  0  0
  3 11  1  0  0  0  0
  3  4  1  0  0  0  0
  5  4  2  0  0  0  0
  6  5  1  0  0  0  0
  7  8  1  0  0  0  0
  7  6  2  0  0  0  0
  8  3  2  0  0  0  0
  9 10  2  0  0  0  0
 11  9  1  0  0  0  0
 12 11  1  0  0  0  0
 13 18  2  0  0  0  0
 14 15  2  0  0  0  0
 14 13  1  0  0  0  0
 15 16  1  0  0  0  0
 16  9  1  0  0  0  0
 16 17  2  0  0  0  0
 18 17  1  0  0  0  0
 19 20  1  0  0  0  0
 20 13  1  0  0  0  0
 21 22  1  0  0  0  0
 23 21  1  0  0  0  0
 24 23  2  0  0  0  0
 25 24  1  0  0  0  0
 26 25  2  0  0  0  0
 26 27  1  0  0  0  0
 27 32  1  0  0  0  0
 28 27  2  0  0  0  0
 28 29  1  0  0  0  0
 29 30  2  0  0  0  0
 30 31  1  0  0  0  0
 32 23  1  0  0  0  0
 32 31  2  0  0  0  0
 33 28  1  0  0  0  0
 33 34  1  0  0  0  0
 34 37  1  0  0  0  0
 35 33  2  0  0  0  0
 36 34  1  0  0  0  0
M  END
>  <minimizedAffinity>
-7.76442862

$$$$
