
 OpenBabel10152419373D

 37 40  0  0  1  0  0  0  0  0999 V2000
   -1.2120   -8.9250  -23.3860 C   0  0  2  0  0  3  0  0  0  0  0  0
   -1.2750   -8.9160  -21.8560 C   0  0  0  0  0  1  0  0  0  0  0  0
    1.4290  -11.5300  -24.3710 C   0  0  0  0  0  0  0  0  0  0  0  0
    0.6630  -12.4320  -25.1100 C   0  0  0  0  0  3  0  0  0  0  0  0
   -0.7220  -12.2870  -25.1770 C   0  0  0  0  0  3  0  0  0  0  0  0
   -1.3400  -11.1900  -24.5770 C   0  0  0  0  0  3  0  0  0  0  0  0
   -0.5820  -10.2260  -23.8940 C   0  0  0  0  0  0  0  0  0  0  0  0
    0.8050  -10.4430  -23.7440 C   0  0  0  0  0  3  0  0  0  0  0  0
    3.6670  -11.5540  -25.5030 C   0  0  0  0  0  0  0  0  0  0  0  0
    4.6520  -12.2780  -25.6170 O   0  0  0  0  0  0  0  0  0  0  0  0
    2.8270  -11.6720  -24.4220 N   0  0  0  0  0  0  0  0  0  0  0  0
    3.2710  -12.0740  -23.6030 H   0  0  0  0  0  0  0  0  0  0  0  0
    3.5870   -8.2540  -28.1260 C   0  0  0  0  0  0  0  0  0  0  0  0
    3.1390   -8.0600  -26.8260 C   0  0  0  0  0  3  0  0  0  0  0  0
    3.0880   -9.1550  -25.9640 C   0  0  0  0  0  3  0  0  0  0  0  0
    3.5060  -10.4060  -26.4200 C   0  0  0  0  0  0  0  0  0  0  0  0
    3.9700  -10.4990  -27.7230 C   0  0  0  0  0  3  0  0  0  0  0  0
    4.0000   -9.4540  -28.5900 N   0  0  0  0  0  0  0  0  0  0  0  0
    3.9570   -7.6600  -30.3560 C   0  0  0  0  0  1  0  0  0  0  0  0
    3.7500   -7.2270  -29.0160 O   0  0  0  0  0  0  0  0  0  0  0  0
   -0.4710   -7.7550  -23.8440 N   0  0  0  0  0  0  0  0  0  0  0  0
    0.4050   -7.5230  -23.4060 H   0  0  0  0  0  0  0  0  0  0  0  0
   -0.7210   -7.3540  -25.1560 C   0  0  0  0  0  0  0  0  0  0  0  0
   -0.6700   -8.3180  -26.0920 N   0  0  0  0  0  0  0  0  0  0  0  0
   -0.4540   -7.9260  -27.3440 C   0  0  0  0  0  3  0  0  0  0  0  0
   -0.1900   -6.6750  -27.7180 N   0  0  0  0  0  0  0  0  0  0  0  0
   -0.3040   -5.7110  -26.7860 C   0  0  0  0  0  0  0  0  0  0  0  0
    0.0520   -4.3890  -27.0550 C   0  0  0  0  0  0  0  0  0  0  0  0
   -0.1720   -3.3290  -26.1640 C   0  0  0  0  0  3  0  0  0  0  0  0
   -0.7190   -3.5960  -24.9210 C   0  0  0  0  0  3  0  0  0  0  0  0
   -0.9330   -4.9230  -24.5590 C   0  0  0  0  0  3  0  0  0  0  0  0
   -0.6980   -5.9870  -25.4760 C   0  0  0  0  0  0  0  0  0  0  0  0
    0.9830   -4.1400  -28.1680 C   0  0  0  0  0  0  0  0  0  0  0  0
    2.0960   -4.9430  -28.1300 N   0  0  0  0  0  0  0  0  0  0  0  0
    0.8080   -3.2800  -29.0150 O   0  0  0  0  0  0  0  0  0  0  0  0
    2.8020   -4.8320  -28.8420 H   0  0  0  0  0  0  0  0  0  0  0  0
    2.2140   -5.6680  -27.4330 H   0  0  0  0  0  0  0  0  0  0  0  0
  1  2  1  1  0  0  0
  3  8  1  0  0  0  0
  4  3  2  0  0  0  0
  5  4  1  0  0  0  0
  5  6  2  0  0  0  0
  6  7  1  0  0  0  0
  7  8  2  0  0  0  0
  7  1  1  0  0  0  0
  9 11  1  0  0  0  0
 10  9  2  0  0  0  0
 11  3  1  0  0  0  0
 11 12  1  0  0  0  0
 13 14  1  0  0  0  0
 14 15  2  0  0  0  0
 16 15  1  0  0  0  0
 16  9  1  0  0  0  0
 17 16  2  0  0  0  0
 18 13  2  0  0  0  0
 18 17  1  0  0  0  0
 19 20  1  0  0  0  0
 20 13  1  0  0  0  0
 21 22  1  0  0  0  0
 21  1  1  0  0  0  0
 23 21  1  0  0  0  0
 24 23  2  0  0  0  0
 25 24  1  0  0  0  0
 26 25  2  0  0  0  0
 26 27  1  0  0  0  0
 27 32  1  0  0  0  0
 28 27  2  0  0  0  0
 28 29  1  0  0  0  0
 29 30  2  0  0  0  0
 30 31  1  0  0  0  0
 32 23  1  0  0  0  0
 32 31  2  0  0  0  0
 33 34  1  0  0  0  0
 33 28  1  0  0  0  0
 34 37  1  0  0  0  0
 35 33  2  0  0  0  0
 36 34  1  0  0  0  0
M  END
>  <minimizedAffinity>
-8.15354156

$$$$
