
 OpenBabel10152419373D

 37 40  0  0  1  0  0  0  0  0999 V2000
   -1.2460   -6.6110  -24.5260 C   0  0  2  0  0  3  0  0  0  0  0  0
   -0.2220   -5.5300  -24.1690 C   0  0  0  0  0  1  0  0  0  0  0  0
   -1.2300  -10.1670  -23.0810 C   0  0  0  0  0  0  0  0  0  0  0  0
   -1.4310   -9.9130  -21.7240 C   0  0  0  0  0  3  0  0  0  0  0  0
   -1.4330   -8.6040  -21.2470 C   0  0  0  0  0  3  0  0  0  0  0  0
   -1.3170   -7.5350  -22.1370 C   0  0  0  0  0  3  0  0  0  0  0  0
   -1.1920   -7.7630  -23.5170 C   0  0  0  0  0  0  0  0  0  0  0  0
   -1.0840   -9.0950  -23.9720 C   0  0  0  0  0  3  0  0  0  0  0  0
   -0.7640  -12.0980  -24.6120 C   0  0  0  0  0  0  0  0  0  0  0  0
   -1.3690  -12.9580  -25.2470 O   0  0  0  0  0  0  0  0  0  0  0  0
   -1.3360  -11.5000  -23.5150 N   0  0  0  0  0  0  0  0  0  0  0  0
   -2.0500  -12.0660  -23.0690 H   0  0  0  0  0  0  0  0  0  0  0  0
    3.3220  -11.7680  -25.5980 C   0  0  0  0  0  0  0  0  0  0  0  0
    2.9890  -11.9190  -24.2590 C   0  0  0  0  0  3  0  0  0  0  0  0
    1.6400  -11.9560  -23.9040 C   0  0  0  0  0  3  0  0  0  0  0  0
    0.6660  -11.8620  -24.9000 C   0  0  0  0  0  0  0  0  0  0  0  0
    1.0930  -11.7470  -26.2130 C   0  0  0  0  0  3  0  0  0  0  0  0
    2.3980  -11.6770  -26.5800 N   0  0  0  0  0  0  0  0  0  0  0  0
    4.7220  -11.8290  -27.4690 C   0  0  0  0  0  1  0  0  0  0  0  0
    4.6130  -11.8030  -26.0500 O   0  0  0  0  0  0  0  0  0  0  0  0
   -0.9990   -7.0780  -25.8860 N   0  0  0  0  0  0  0  0  0  0  0  0
   -1.7400   -7.5310  -26.3950 H   0  0  0  0  0  0  0  0  0  0  0  0
    0.0200   -6.4230  -26.5760 C   0  0  0  0  0  0  0  0  0  0  0  0
   -0.3640   -5.4620  -27.4340 N   0  0  0  0  0  0  0  0  0  0  0  0
    0.4910   -5.1480  -28.4020 C   0  0  0  0  0  3  0  0  0  0  0  0
    1.6410   -5.7760  -28.6390 N   0  0  0  0  0  0  0  0  0  0  0  0
    2.0460   -6.6920  -27.7410 C   0  0  0  0  0  0  0  0  0  0  0  0
    3.1810   -7.4730  -27.9540 C   0  0  0  0  0  0  0  0  0  0  0  0
    3.7160   -8.3440  -26.9930 C   0  0  0  0  0  3  0  0  0  0  0  0
    3.0630   -8.4960  -25.7830 C   0  0  0  0  0  3  0  0  0  0  0  0
    1.8390   -7.8570  -25.6010 C   0  0  0  0  0  3  0  0  0  0  0  0
    1.3110   -6.9780  -26.5890 C   0  0  0  0  0  0  0  0  0  0  0  0
    3.6530   -7.6390  -29.3390 C   0  0  0  0  0  0  0  0  0  0  0  0
    4.5100   -6.6450  -29.7400 N   0  0  0  0  0  0  0  0  0  0  0  0
    3.2890   -8.5430  -30.0720 O   0  0  0  0  0  0  0  0  0  0  0  0
    4.8720   -6.6620  -30.6810 H   0  0  0  0  0  0  0  0  0  0  0  0
    4.8200   -5.9150  -29.1100 H   0  0  0  0  0  0  0  0  0  0  0  0
  1  2  1  1  0  0  0
  1  7  1  0  0  0  0
  3  4  1  0  0  0  0
  4  5  2  0  0  0  0
  6  5  1  0  0  0  0
  7  6  2  0  0  0  0
  8  7  1  0  0  0  0
  8  3  2  0  0  0  0
  9 11  1  0  0  0  0
 10  9  2  0  0  0  0
 11  3  1  0  0  0  0
 11 12  1  0  0  0  0
 13 14  1  0  0  0  0
 14 15  2  0  0  0  0
 16  9  1  0  0  0  0
 16 15  1  0  0  0  0
 17 16  2  0  0  0  0
 18 17  1  0  0  0  0
 18 13  2  0  0  0  0
 19 20  1  0  0  0  0
 20 13  1  0  0  0  0
 21  1  1  0  0  0  0
 22 21  1  0  0  0  0
 23 21  1  0  0  0  0
 24 23  2  0  0  0  0
 25 24  1  0  0  0  0
 26 25  2  0  0  0  0
 26 27  1  0  0  0  0
 27 32  1  0  0  0  0
 28 27  2  0  0  0  0
 28 29  1  0  0  0  0
 29 30  2  0  0  0  0
 30 31  1  0  0  0  0
 32 23  1  0  0  0  0
 32 31  2  0  0  0  0
 33 28  1  0  0  0  0
 34 33  1  0  0  0  0
 34 37  1  0  0  0  0
 35 33  2  0  0  0  0
 36 34  1  0  0  0  0
M  END
>  <minimizedAffinity>
-8.93044949

$$$$
