
 OpenBabel10152419373D

 37 40  0  0  1  0  0  0  0  0999 V2000
    0.2150   -7.8640  -23.8210 C   0  0  2  0  0  3  0  0  0  0  0  0
    0.2060   -6.3340  -23.7530 C   0  0  0  0  0  1  0  0  0  0  0  0
    2.7950   -8.0210  -26.6580 C   0  0  0  0  0  0  0  0  0  0  0  0
    3.2180   -9.3480  -26.5720 C   0  0  0  0  0  3  0  0  0  0  0  0
    2.7860  -10.1550  -25.5210 C   0  0  0  0  0  3  0  0  0  0  0  0
    1.8610   -9.6670  -24.5980 C   0  0  0  0  0  3  0  0  0  0  0  0
    1.3600   -8.3600  -24.7100 C   0  0  0  0  0  0  0  0  0  0  0  0
    1.8880   -7.5200  -25.7150 C   0  0  0  0  0  3  0  0  0  0  0  0
    2.4000   -6.6570  -28.7250 C   0  0  0  0  0  0  0  0  0  0  0  0
    2.7220   -6.6350  -29.9100 O   0  0  0  0  0  0  0  0  0  0  0  0
    3.1870   -7.2880  -27.7920 N   0  0  0  0  0  0  0  0  0  0  0  0
    4.1610   -7.3610  -28.0640 H   0  0  0  0  0  0  0  0  0  0  0  0
   -0.6150   -4.1900  -27.1100 C   0  0  0  0  0  0  0  0  0  0  0  0
   -0.8680   -5.5530  -27.1950 C   0  0  0  0  0  3  0  0  0  0  0  0
    0.0860   -6.3760  -27.7930 C   0  0  0  0  0  3  0  0  0  0  0  0
    1.2720   -5.8160  -28.2700 C   0  0  0  0  0  0  0  0  0  0  0  0
    1.4530   -4.4520  -28.1120 C   0  0  0  0  0  3  0  0  0  0  0  0
    0.5270   -3.6250  -27.5620 N   0  0  0  0  0  0  0  0  0  0  0  0
   -0.8050   -2.1320  -26.0190 C   0  0  0  0  0  1  0  0  0  0  0  0
   -1.4520   -3.3180  -26.4690 O   0  0  0  0  0  0  0  0  0  0  0  0
   -1.0800   -8.3310  -24.3050 N   0  0  0  0  0  0  0  0  0  0  0  0
   -1.2030   -8.5120  -25.2870 H   0  0  0  0  0  0  0  0  0  0  0  0
   -1.8730   -8.9930  -23.3700 C   0  0  0  0  0  0  0  0  0  0  0  0
   -2.6170   -8.2150  -22.5630 N   0  0  0  0  0  0  0  0  0  0  0  0
   -3.0120   -8.7510  -21.4130 C   0  0  0  0  0  3  0  0  0  0  0  0
   -2.6460   -9.9510  -20.9630 N   0  0  0  0  0  0  0  0  0  0  0  0
   -1.9550  -10.7440  -21.8010 C   0  0  0  0  0  0  0  0  0  0  0  0
   -1.4410  -11.9730  -21.3870 C   0  0  0  0  0  0  0  0  0  0  0  0
   -0.8310  -12.8910  -22.2550 C   0  0  0  0  0  3  0  0  0  0  0  0
   -0.6660  -12.5540  -23.5870 C   0  0  0  0  0  3  0  0  0  0  0  0
   -1.0200  -11.2710  -23.9980 C   0  0  0  0  0  3  0  0  0  0  0  0
   -1.6360  -10.3520  -23.1030 C   0  0  0  0  0  0  0  0  0  0  0  0
   -1.2360  -12.1820  -19.9440 C   0  0  0  0  0  0  0  0  0  0  0  0
   -2.3530  -12.6590  -19.3050 N   0  0  0  0  0  0  0  0  0  0  0  0
   -0.1950  -11.9210  -19.3650 O   0  0  0  0  0  0  0  0  0  0  0  0
   -2.3160  -12.8170  -18.3090 H   0  0  0  0  0  0  0  0  0  0  0  0
   -3.2020  -12.8940  -19.8060 H   0  0  0  0  0  0  0  0  0  0  0  0
  1  2  1  6  0  0  0
  3  4  2  0  0  0  0
  3  8  1  0  0  0  0
  4  5  1  0  0  0  0
  5  6  2  0  0  0  0
  7  6  1  0  0  0  0
  7  1  1  0  0  0  0
  8  7  2  0  0  0  0
  9 16  1  0  0  0  0
  9 11  1  0  0  0  0
 10  9  2  0  0  0  0
 11  3  1  0  0  0  0
 12 11  1  0  0  0  0
 13 20  1  0  0  0  0
 14 13  1  0  0  0  0
 15 14  2  0  0  0  0
 16 17  2  0  0  0  0
 16 15  1  0  0  0  0
 17 18  1  0  0  0  0
 18 13  2  0  0  0  0
 20 19  1  0  0  0  0
 21  1  1  0  0  0  0
 21 23  1  0  0  0  0
 22 21  1  0  0  0  0
 23 32  2  0  0  0  0
 23 24  1  0  0  0  0
 24 25  2  0  0  0  0
 25 26  1  0  0  0  0
 27 28  1  0  0  0  0
 27 26  2  0  0  0  0
 28 33  1  0  0  0  0
 29 28  2  0  0  0  0
 30 29  1  0  0  0  0
 31 30  2  0  0  0  0
 31 32  1  0  0  0  0
 32 27  1  0  0  0  0
 33 35  2  0  0  0  0
 33 34  1  0  0  0  0
 34 36  1  0  0  0  0
 37 34  1  0  0  0  0
M  END
>  <minimizedAffinity>
-8.14357185

$$$$
