
 OpenBabel10152419373D

 37 40  0  0  1  0  0  0  0  0999 V2000
   -1.3610   -8.1900  -25.6090 C   0  0  2  0  0  3  0  0  0  0  0  0
   -1.2870   -9.4780  -26.4340 C   0  0  0  0  0  1  0  0  0  0  0  0
    1.2530   -6.2680  -27.6600 C   0  0  0  0  0  0  0  0  0  0  0  0
    0.8950   -4.9460  -27.3910 C   0  0  0  0  0  3  0  0  0  0  0  0
   -0.2630   -4.6650  -26.6690 C   0  0  0  0  0  3  0  0  0  0  0  0
   -1.0270   -5.7050  -26.1390 C   0  0  0  0  0  3  0  0  0  0  0  0
   -0.6450   -7.0430  -26.3300 C   0  0  0  0  0  0  0  0  0  0  0  0
    0.4700   -7.3140  -27.1520 C   0  0  0  0  0  3  0  0  0  0  0  0
    3.5920   -7.1540  -27.8440 C   0  0  0  0  0  0  0  0  0  0  0  0
    4.7220   -6.7660  -28.1270 O   0  0  0  0  0  0  0  0  0  0  0  0
    2.4810   -6.4890  -28.3060 N   0  0  0  0  0  0  0  0  0  0  0  0
    2.6480   -5.9600  -29.1550 H   0  0  0  0  0  0  0  0  0  0  0  0
    2.8230  -10.9570  -26.1920 C   0  0  0  0  0  0  0  0  0  0  0  0
    2.5490   -9.8430  -25.4100 C   0  0  0  0  0  3  0  0  0  0  0  0
    2.8650   -8.5790  -25.9090 C   0  0  0  0  0  3  0  0  0  0  0  0
    3.4250   -8.4650  -27.1820 C   0  0  0  0  0  0  0  0  0  0  0  0
    3.6330   -9.6300  -27.9050 C   0  0  0  0  0  3  0  0  0  0  0  0
    3.3630  -10.8720  -27.4280 N   0  0  0  0  0  0  0  0  0  0  0  0
    3.2490  -12.7410  -24.7430 C   0  0  0  0  0  1  0  0  0  0  0  0
    2.4750  -12.2270  -25.8220 O   0  0  0  0  0  0  0  0  0  0  0  0
   -0.7920   -8.4310  -24.2880 N   0  0  0  0  0  0  0  0  0  0  0  0
   -0.0530   -7.8360  -23.9530 H   0  0  0  0  0  0  0  0  0  0  0  0
   -1.6220   -9.0890  -23.3810 C   0  0  0  0  0  0  0  0  0  0  0  0
   -2.4120   -8.3080  -22.6230 N   0  0  0  0  0  0  0  0  0  0  0  0
   -2.8560   -8.8320  -21.4850 C   0  0  0  0  0  3  0  0  0  0  0  0
   -2.4990  -10.0200  -21.0000 N   0  0  0  0  0  0  0  0  0  0  0  0
   -1.7600  -10.8180  -21.7920 C   0  0  0  0  0  0  0  0  0  0  0  0
   -1.2520  -12.0340  -21.3350 C   0  0  0  0  0  0  0  0  0  0  0  0
   -0.5900  -12.9570  -22.1580 C   0  0  0  0  0  3  0  0  0  0  0  0
   -0.3660  -12.6380  -23.4860 C   0  0  0  0  0  3  0  0  0  0  0  0
   -0.7130  -11.3660  -23.9330 C   0  0  0  0  0  3  0  0  0  0  0  0
   -1.3830  -10.4410  -23.0830 C   0  0  0  0  0  0  0  0  0  0  0  0
   -1.1150  -12.2200  -19.8810 C   0  0  0  0  0  0  0  0  0  0  0  0
   -2.1710  -12.8960  -19.3220 N   0  0  0  0  0  0  0  0  0  0  0  0
   -0.1810  -11.7830  -19.2300 O   0  0  0  0  0  0  0  0  0  0  0  0
   -2.1760  -13.0550  -18.3260 H   0  0  0  0  0  0  0  0  0  0  0  0
   -2.9260  -13.2720  -19.8810 H   0  0  0  0  0  0  0  0  0  0  0  0
  1  2  1  6  0  0  0
  1 21  1  0  0  0  0
  3  4  2  0  0  0  0
  3  8  1  0  0  0  0
  4  5  1  0  0  0  0
  5  6  2  0  0  0  0
  7  6  1  0  0  0  0
  7  1  1  0  0  0  0
  8  7  2  0  0  0  0
  9 16  1  0  0  0  0
 10  9  2  0  0  0  0
 11  9  1  0  0  0  0
 11  3  1  0  0  0  0
 12 11  1  0  0  0  0
 13 20  1  0  0  0  0
 13 14  1  0  0  0  0
 15 14  2  0  0  0  0
 16 15  1  0  0  0  0
 17 18  1  0  0  0  0
 17 16  2  0  0  0  0
 18 13  2  0  0  0  0
 20 19  1  0  0  0  0
 21 22  1  0  0  0  0
 21 23  1  0  0  0  0
 23 32  2  0  0  0  0
 23 24  1  0  0  0  0
 24 25  2  0  0  0  0
 25 26  1  0  0  0  0
 27 28  1  0  0  0  0
 27 26  2  0  0  0  0
 28 33  1  0  0  0  0
 29 28  2  0  0  0  0
 30 29  1  0  0  0  0
 31 30  2  0  0  0  0
 31 32  1  0  0  0  0
 32 27  1  0  0  0  0
 33 34  1  0  0  0  0
 33 35  2  0  0  0  0
 34 36  1  0  0  0  0
 37 34  1  0  0  0  0
M  END
>  <minimizedAffinity>
-9.59989071

$$$$
