
 OpenBabel10152419373D

 37 40  0  0  1  0  0  0  0  0999 V2000
    4.3710   -8.5870  -27.1530 C   0  0  2  0  0  3  0  0  0  0  0  0
    4.7140   -7.8670  -28.4600 C   0  0  0  0  0  1  0  0  0  0  0  0
    2.6570  -11.9770  -26.6040 C   0  0  0  0  0  0  0  0  0  0  0  0
    2.9520  -12.6320  -27.8000 C   0  0  0  0  0  3  0  0  0  0  0  0
    3.5770  -11.9450  -28.8400 C   0  0  0  0  0  3  0  0  0  0  0  0
    3.9870  -10.6240  -28.6590 C   0  0  0  0  0  3  0  0  0  0  0  0
    3.7720   -9.9690  -27.4360 C   0  0  0  0  0  0  0  0  0  0  0  0
    3.0430  -10.6410  -26.4310 C   0  0  0  0  0  3  0  0  0  0  0  0
    1.4850  -12.3250  -24.4140 C   0  0  0  0  0  0  0  0  0  0  0  0
    1.6390  -12.9240  -23.3520 O   0  0  0  0  0  0  0  0  0  0  0  0
    2.1160  -12.7480  -25.5590 N   0  0  0  0  0  0  0  0  0  0  0  0
    2.3570  -13.7330  -25.5510 H   0  0  0  0  0  0  0  0  0  0  0  0
   -1.6690   -9.5260  -24.4110 C   0  0  0  0  0  0  0  0  0  0  0  0
   -1.5170  -10.3310  -25.5330 C   0  0  0  0  0  3  0  0  0  0  0  0
   -0.4360  -11.2120  -25.5850 C   0  0  0  0  0  3  0  0  0  0  0  0
    0.4470  -11.2760  -24.5060 C   0  0  0  0  0  0  0  0  0  0  0  0
    0.1980  -10.4600  -23.4150 C   0  0  0  0  0  3  0  0  0  0  0  0
   -0.8290   -9.5730  -23.3540 N   0  0  0  0  0  0  0  0  0  0  0  0
   -2.8220   -8.1370  -22.9270 C   0  0  0  0  0  1  0  0  0  0  0  0
   -2.7400   -8.6940  -24.2350 O   0  0  0  0  0  0  0  0  0  0  0  0
    3.4600   -7.7580  -26.3710 N   0  0  0  0  0  0  0  0  0  0  0  0
    3.8030   -7.2860  -25.5520 H   0  0  0  0  0  0  0  0  0  0  0  0
    2.3630   -7.2460  -27.0620 C   0  0  0  0  0  0  0  0  0  0  0  0
    2.5340   -7.0380  -28.3800 N   0  0  0  0  0  0  0  0  0  0  0  0
    1.7170   -6.1650  -28.9590 C   0  0  0  0  0  3  0  0  0  0  0  0
    0.8190   -5.4170  -28.3190 N   0  0  0  0  0  0  0  0  0  0  0  0
    0.6120   -5.6750  -27.0150 C   0  0  0  0  0  0  0  0  0  0  0  0
   -0.2300   -4.8810  -26.2370 C   0  0  0  0  0  0  0  0  0  0  0  0
   -0.5790   -5.1850  -24.9120 C   0  0  0  0  0  3  0  0  0  0  0  0
   -0.0220   -6.2980  -24.3060 C   0  0  0  0  0  3  0  0  0  0  0  0
    0.9470   -7.0180  -24.9990 C   0  0  0  0  0  3  0  0  0  0  0  0
    1.2910   -6.6940  -26.3420 C   0  0  0  0  0  0  0  0  0  0  0  0
   -0.5070   -3.5110  -26.7010 C   0  0  0  0  0  0  0  0  0  0  0  0
    0.5020   -2.9890  -27.4710 N   0  0  0  0  0  0  0  0  0  0  0  0
   -1.5090   -2.8860  -26.3990 O   0  0  0  0  0  0  0  0  0  0  0  0
    0.4110   -2.0470  -27.8210 H   0  0  0  0  0  0  0  0  0  0  0  0
    1.3170   -3.5310  -27.7320 H   0  0  0  0  0  0  0  0  0  0  0  0
  1  2  1  6  0  0  0
  1 21  1  0  0  0  0
  3  8  1  0  0  0  0
  3 11  1  0  0  0  0
  4  3  2  0  0  0  0
  5  6  2  0  0  0  0
  5  4  1  0  0  0  0
  6  7  1  0  0  0  0
  7  1  1  0  0  0  0
  7  8  2  0  0  0  0
  9 10  2  0  0  0  0
 11 12  1  0  0  0  0
 11  9  1  0  0  0  0
 13 20  1  0  0  0  0
 13 18  2  0  0  0  0
 14 13  1  0  0  0  0
 15 14  2  0  0  0  0
 15 16  1  0  0  0  0
 16  9  1  0  0  0  0
 16 17  2  0  0  0  0
 17 18  1  0  0  0  0
 20 19  1  0  0  0  0
 21 22  1  0  0  0  0
 23 21  1  0  0  0  0
 23 32  1  0  0  0  0
 24 23  2  0  0  0  0
 25 24  1  0  0  0  0
 25 26  2  0  0  0  0
 26 27  1  0  0  0  0
 27 32  2  0  0  0  0
 27 28  1  0  0  0  0
 28 29  2  0  0  0  0
 29 30  1  0  0  0  0
 31 30  2  0  0  0  0
 32 31  1  0  0  0  0
 33 35  2  0  0  0  0
 33 28  1  0  0  0  0
 34 33  1  0  0  0  0
 36 34  1  0  0  0  0
 37 34  1  0  0  0  0
M  END
>  <minimizedAffinity>
-7.89780903

$$$$
