
 OpenBabel10152419563D

 41 44  0  0  1  0  0  0  0  0999 V2000
   -1.7070   -6.8300  -25.3540 C   0  0  2  0  0  3  0  0  0  0  0  0
   -2.7140   -7.3680  -24.3370 C   0  0  0  0  0  0  0  0  0  0  0  0
   -4.0020   -7.7800  -24.6770 C   0  0  0  0  0  3  0  0  0  0  0  0
   -5.0080   -7.7360  -23.7230 C   0  0  0  0  0  3  0  0  0  0  0  0
   -4.6830   -7.5310  -22.3910 C   0  0  0  0  0  3  0  0  0  0  0  0
   -3.3630   -7.5950  -21.9830 C   0  0  0  0  0  0  0  0  0  0  0  0
   -2.3800   -7.3950  -22.9630 C   0  0  0  0  0  3  0  0  0  0  0  0
   -2.9500   -7.8980  -20.6710 N   0  0  0  0  0  0  0  0  0  0  0  0
   -2.0870   -8.8470  -20.1500 C   0  0  0  0  0  0  0  0  0  0  0  0
   -1.8440   -8.8360  -18.9440 O   0  0  0  0  0  0  0  0  0  0  0  0
   -3.2390   -7.2610  -19.9380 H   0  0  0  0  0  0  0  0  0  0  0  0
   -1.4820   -9.9100  -20.9750 C   0  0  0  0  0  0  0  0  0  0  0  0
   -0.8140   -9.5150  -22.1400 C   0  0  0  0  0  3  0  0  0  0  0  0
   -0.0400  -10.4400  -22.8420 C   0  0  0  0  0  3  0  0  0  0  0  0
    0.0550  -11.7530  -22.3790 C   0  0  0  0  0  0  0  0  0  0  0  0
    1.2310  -12.9590  -23.2360 Br  0  0  0  0  0  0  0  0  0  0  0  0
   -0.6800  -12.1720  -21.2670 C   0  0  0  0  0  3  0  0  0  0  0  0
   -1.4840  -11.2560  -20.5810 C   0  0  0  0  0  3  0  0  0  0  0  0
   -1.1220   -7.7630  -26.3340 N   0  0  0  0  0  0  0  0  0  0  0  0
   -0.5350   -7.3280  -27.0450 H   0  0  0  0  0  0  0  0  0  0  0  0
   -0.4480   -8.9480  -26.1080 C   0  0  0  0  0  0  0  0  0  0  0  0
   -1.3300   -9.9600  -26.0820 N   0  0  0  0  0  0  0  0  0  0  0  0
   -0.8290  -11.1890  -26.1890 C   0  0  0  0  0  3  0  0  0  0  0  0
    0.4590  -11.4860  -26.3660 N   0  0  0  0  0  0  0  0  0  0  0  0
    1.3610  -10.4800  -26.3180 C   0  0  0  0  0  0  0  0  0  0  0  0
    2.7310  -10.6980  -26.5590 C   0  0  0  0  0  0  0  0  0  0  0  0
    3.6650   -9.6530  -26.4360 C   0  0  0  0  0  3  0  0  0  0  0  0
    3.2540   -8.3720  -26.0980 C   0  0  0  0  0  3  0  0  0  0  0  0
    1.8970   -8.1170  -25.9390 C   0  0  0  0  0  3  0  0  0  0  0  0
    0.9410   -9.1510  -26.0860 C   0  0  0  0  0  0  0  0  0  0  0  0
    3.2790  -12.0020  -27.0530 C   0  0  0  0  0  0  0  0  0  0  0  0
    2.9150  -12.4410  -28.2920 N   0  0  0  0  0  0  0  0  0  0  0  0
    4.0760  -12.6530  -26.3850 O   0  0  0  0  0  0  0  0  0  0  0  0
    3.3030  -13.3090  -28.6360 H   0  0  0  0  0  0  0  0  0  0  0  0
    2.2480  -11.9280  -28.8590 H   0  0  0  0  0  0  0  0  0  0  0  0
   -0.5740   -6.0710  -24.6290 C   0  0  0  0  0  2  0  0  0  0  0  0
   -0.4640   -4.5720  -24.9300 C   0  0  0  0  0  2  0  0  0  0  0  0
   -1.1240   -2.7310  -26.5360 C   0  0  0  0  0  1  0  0  0  0  0  0
   -0.8170   -4.1910  -26.3510 N   0  0  0  0  0  4  0  0  0  0  0  0
    0.2720   -4.6270  -27.3080 C   0  0  0  0  0  1  0  0  0  0  0  0
   -1.6480   -4.7340  -26.6290 H   0  0  0  0  0  0  0  0  0  0  0  0
  1 36  1  1  0  0  0
  1  2  1  0  0  0  0
  2  7  1  0  0  0  0
  3  2  2  0  0  0  0
  3  4  1  0  0  0  0
  4  5  2  0  0  0  0
  5  6  1  0  0  0  0
  6  8  1  0  0  0  0
  7  6  2  0  0  0  0
  8  9  1  0  0  0  0
  8 11  1  0  0  0  0
  9 10  2  0  0  0  0
 12 18  1  0  0  0  0
 12  9  1  0  0  0  0
 13 12  2  0  0  0  0
 14 15  2  0  0  0  0
 14 13  1  0  0  0  0
 15 17  1  0  0  0  0
 16 15  1  0  0  0  0
 17 18  2  0  0  0  0
 19 21  1  0  0  0  0
 19  1  1  0  0  0  0
 20 19  1  0  0  0  0
 21 30  2  0  0  0  0
 21 22  1  0  0  0  0
 23 22  2  0  0  0  0
 24 25  2  0  0  0  0
 24 23  1  0  0  0  0
 25 30  1  0  0  0  0
 26 27  2  0  0  0  0
 26 25  1  0  0  0  0
 27 28  1  0  0  0  0
 28 29  2  0  0  0  0
 30 29  1  0  0  0  0
 31 26  1  0  0  0  0
 31 33  2  0  0  0  0
 32 31  1  0  0  0  0
 34 32  1  0  0  0  0
 35 32  1  0  0  0  0
 37 36  1  0  0  0  0
 38 39  1  0  0  0  0
 39 37  1  0  0  0  0
 40 39  1  0  0  0  0
 41 39  1  0  0  0  0
M  END
>  <minimizedAffinity>
-6.06184006

$$$$
