
 OpenBabel10152419563D

 41 44  0  0  1  0  0  0  0  0999 V2000
   -0.4910   -7.7430  -24.4560 C   0  0  2  0  0  3  0  0  0  0  0  0
   -0.0590   -8.8840  -25.3760 C   0  0  0  0  0  0  0  0  0  0  0  0
   -0.7260   -9.2140  -26.5550 C   0  0  0  0  0  3  0  0  0  0  0  0
   -0.6540  -10.5120  -27.0410 C   0  0  0  0  0  3  0  0  0  0  0  0
    0.2700  -11.3950  -26.5060 C   0  0  0  0  0  3  0  0  0  0  0  0
    1.2600  -10.9330  -25.6590 C   0  0  0  0  0  0  0  0  0  0  0  0
    1.0250   -9.7140  -25.0060 C   0  0  0  0  0  3  0  0  0  0  0  0
    2.4970  -11.5750  -25.4560 N   0  0  0  0  0  0  0  0  0  0  0  0
    3.7640  -11.3670  -25.9750 C   0  0  0  0  0  0  0  0  0  0  0  0
    4.7010  -12.0420  -25.5530 O   0  0  0  0  0  0  0  0  0  0  0  0
    2.5410  -12.2700  -24.7190 H   0  0  0  0  0  0  0  0  0  0  0  0
    4.0300  -10.4010  -27.0580 C   0  0  0  0  0  0  0  0  0  0  0  0
    4.2140  -10.9180  -28.3460 C   0  0  0  0  0  3  0  0  0  0  0  0
    4.2510  -10.0530  -29.4400 C   0  0  0  0  0  3  0  0  0  0  0  0
    4.1120   -8.6790  -29.2390 C   0  0  0  0  0  0  0  0  0  0  0  0
    3.9980   -7.5260  -30.7330 Br  0  0  0  0  0  0  0  0  0  0  0  0
    4.0150   -8.1540  -27.9490 C   0  0  0  0  0  3  0  0  0  0  0  0
    4.0120   -9.0160  -26.8460 C   0  0  0  0  0  3  0  0  0  0  0  0
   -1.5460   -7.9970  -23.4570 N   0  0  0  0  0  0  0  0  0  0  0  0
   -2.4180   -8.3650  -23.8370 H   0  0  0  0  0  0  0  0  0  0  0  0
   -1.4580   -8.6790  -22.2590 C   0  0  0  0  0  0  0  0  0  0  0  0
   -1.7840   -7.8500  -21.2540 N   0  0  0  0  0  0  0  0  0  0  0  0
   -2.0560   -8.4170  -20.0790 C   0  0  0  0  0  3  0  0  0  0  0  0
   -2.0760   -9.7280  -19.8400 N   0  0  0  0  0  0  0  0  0  0  0  0
   -1.6770  -10.5650  -20.8240 C   0  0  0  0  0  0  0  0  0  0  0  0
   -1.7290  -11.9640  -20.6760 C   0  0  0  0  0  0  0  0  0  0  0  0
   -1.2440  -12.8200  -21.6820 C   0  0  0  0  0  3  0  0  0  0  0  0
   -0.7240  -12.3040  -22.8600 C   0  0  0  0  0  3  0  0  0  0  0  0
   -0.7420  -10.9280  -23.0610 C   0  0  0  0  0  3  0  0  0  0  0  0
   -1.2510  -10.0550  -22.0700 C   0  0  0  0  0  0  0  0  0  0  0  0
   -2.3820  -12.6410  -19.5100 C   0  0  0  0  0  0  0  0  0  0  0  0
   -3.7060  -12.9580  -19.5890 N   0  0  0  0  0  0  0  0  0  0  0  0
   -1.7400  -12.9520  -18.5110 O   0  0  0  0  0  0  0  0  0  0  0  0
   -4.1420  -13.4370  -18.8130 H   0  0  0  0  0  0  0  0  0  0  0  0
   -4.2620  -12.7010  -20.3990 H   0  0  0  0  0  0  0  0  0  0  0  0
   -0.8650   -6.5000  -25.2910 C   0  0  0  0  0  2  0  0  0  0  0  0
    0.2830   -5.8220  -26.0470 C   0  0  0  0  0  2  0  0  0  0  0  0
   -0.8380   -3.6270  -26.6210 C   0  0  0  0  0  1  0  0  0  0  0  0
   -0.1610   -4.8670  -27.1340 N   0  0  0  0  0  4  0  0  0  0  0  0
    1.0010   -4.5020  -28.0320 C   0  0  0  0  0  1  0  0  0  0  0  0
   -0.8230   -5.3680  -27.7460 H   0  0  0  0  0  0  0  0  0  0  0  0
  1 36  1  6  0  0  0
  1 19  1  0  0  0  0
  2  7  1  0  0  0  0
  2  1  1  0  0  0  0
  3  2  2  0  0  0  0
  4  3  1  0  0  0  0
  4  5  2  0  0  0  0
  5  6  1  0  0  0  0
  6  8  1  0  0  0  0
  6  7  2  0  0  0  0
  8 11  1  0  0  0  0
  9 10  2  0  0  0  0
  9  8  1  0  0  0  0
 12 18  1  0  0  0  0
 12  9  1  0  0  0  0
 13 12  2  0  0  0  0
 14 15  2  0  0  0  0
 14 13  1  0  0  0  0
 15 17  1  0  0  0  0
 16 15  1  0  0  0  0
 17 18  2  0  0  0  0
 19 21  1  0  0  0  0
 20 19  1  0  0  0  0
 21 30  2  0  0  0  0
 21 22  1  0  0  0  0
 22 23  2  0  0  0  0
 23 24  1  0  0  0  0
 25 26  1  0  0  0  0
 25 24  2  0  0  0  0
 26 31  1  0  0  0  0
 27 26  2  0  0  0  0
 28 27  1  0  0  0  0
 29 28  2  0  0  0  0
 29 30  1  0  0  0  0
 30 25  1  0  0  0  0
 31 33  2  0  0  0  0
 32 31  1  0  0  0  0
 32 34  1  0  0  0  0
 35 32  1  0  0  0  0
 37 36  1  0  0  0  0
 39 38  1  0  0  0  0
 39 37  1  0  0  0  0
 40 39  1  0  0  0  0
 41 39  1  0  0  0  0
M  END
>  <minimizedAffinity>
-8.16206169

$$$$
