
 OpenBabel10152419563D

 41 44  0  0  1  0  0  0  0  0999 V2000
    1.6690  -11.4680  -24.3610 C   0  0  2  0  0  3  0  0  0  0  0  0
    0.6500  -11.4980  -23.2220 C   0  0  0  0  0  0  0  0  0  0  0  0
    0.1880  -12.6750  -22.6360 C   0  0  0  0  0  3  0  0  0  0  0  0
   -1.0630  -12.6940  -22.0350 C   0  0  0  0  0  3  0  0  0  0  0  0
   -1.7280  -11.5020  -21.7950 C   0  0  0  0  0  3  0  0  0  0  0  0
   -1.0650  -10.2980  -21.9440 C   0  0  0  0  0  0  0  0  0  0  0  0
    0.0720  -10.2910  -22.7640 C   0  0  0  0  0  3  0  0  0  0  0  0
   -1.4260   -9.1060  -21.2870 N   0  0  0  0  0  0  0  0  0  0  0  0
   -1.6020   -7.8040  -21.7250 C   0  0  0  0  0  0  0  0  0  0  0  0
   -2.0060   -6.9550  -20.9320 O   0  0  0  0  0  0  0  0  0  0  0  0
   -1.7230   -9.1830  -20.3210 H   0  0  0  0  0  0  0  0  0  0  0  0
   -1.2720   -7.3750  -23.0980 C   0  0  0  0  0  0  0  0  0  0  0  0
   -2.1710   -7.7280  -24.1120 C   0  0  0  0  0  3  0  0  0  0  0  0
   -2.0320   -7.1730  -25.3840 C   0  0  0  0  0  3  0  0  0  0  0  0
   -0.9940   -6.2740  -25.6350 C   0  0  0  0  0  0  0  0  0  0  0  0
   -0.9050   -5.3980  -27.3080 Br  0  0  0  0  0  0  0  0  0  0  0  0
   -0.0460   -5.9870  -24.6510 C   0  0  0  0  0  3  0  0  0  0  0  0
   -0.1620   -6.5690  -23.3840 C   0  0  0  0  0  3  0  0  0  0  0  0
    2.1130  -10.1620  -24.8820 N   0  0  0  0  0  0  0  0  0  0  0  0
    2.3390   -9.4690  -24.1690 H   0  0  0  0  0  0  0  0  0  0  0  0
    3.0700   -9.8920  -25.8410 C   0  0  0  0  0  0  0  0  0  0  0  0
    3.9340  -10.9180  -25.9060 N   0  0  0  0  0  0  0  0  0  0  0  0
    4.7220  -10.9670  -26.9790 C   0  0  0  0  0  3  0  0  0  0  0  0
    4.6860  -10.1130  -28.0030 N   0  0  0  0  0  0  0  0  0  0  0  0
    3.8730   -9.0370  -27.9120 C   0  0  0  0  0  0  0  0  0  0  0  0
    3.7280   -8.1240  -28.9740 C   0  0  0  0  0  0  0  0  0  0  0  0
    2.9330   -6.9720  -28.8370 C   0  0  0  0  0  3  0  0  0  0  0  0
    2.2490   -6.7190  -27.6570 C   0  0  0  0  0  3  0  0  0  0  0  0
    2.3120   -7.6500  -26.6270 C   0  0  0  0  0  3  0  0  0  0  0  0
    3.0860   -8.8280  -26.7580 C   0  0  0  0  0  0  0  0  0  0  0  0
    4.3100   -8.3510  -30.3360 C   0  0  0  0  0  0  0  0  0  0  0  0
    4.3350   -9.6190  -30.8370 N   0  0  0  0  0  0  0  0  0  0  0  0
    4.7210   -7.4180  -31.0180 O   0  0  0  0  0  0  0  0  0  0  0  0
    4.7060   -9.7700  -31.7660 H   0  0  0  0  0  0  0  0  0  0  0  0
    4.0130  -10.4100  -30.2890 H   0  0  0  0  0  0  0  0  0  0  0  0
    1.1830  -12.3490  -25.5320 C   0  0  0  0  0  2  0  0  0  0  0  0
    0.4050  -11.6320  -26.6410 C   0  0  0  0  0  2  0  0  0  0  0  0
   -0.8950   -9.5300  -27.1870 C   0  0  0  0  0  1  0  0  0  0  0  0
   -0.5410  -10.5590  -26.1480 N   0  0  0  0  0  4  0  0  0  0  0  0
   -1.7940  -11.1760  -25.5670 C   0  0  0  0  0  1  0  0  0  0  0  0
   -0.0910  -10.0770  -25.3560 H   0  0  0  0  0  0  0  0  0  0  0  0
  1 36  1  6  0  0  0
  1  2  1  0  0  0  0
  2  7  2  0  0  0  0
  2  3  1  0  0  0  0
  3  4  2  0  0  0  0
  4  5  1  0  0  0  0
  6  5  2  0  0  0  0
  6  8  1  0  0  0  0
  7  6  1  0  0  0  0
  8 11  1  0  0  0  0
  9  8  1  0  0  0  0
  9 10  2  0  0  0  0
 12  9  1  0  0  0  0
 13 12  2  0  0  0  0
 14 13  1  0  0  0  0
 15 14  2  0  0  0  0
 15 17  1  0  0  0  0
 16 15  1  0  0  0  0
 17 18  2  0  0  0  0
 18 12  1  0  0  0  0
 19  1  1  0  0  0  0
 19 20  1  0  0  0  0
 21 19  1  0  0  0  0
 22 21  1  0  0  0  0
 23 22  2  0  0  0  0
 24 25  2  0  0  0  0
 24 23  1  0  0  0  0
 25 30  1  0  0  0  0
 26 27  2  0  0  0  0
 26 25  1  0  0  0  0
 27 28  1  0  0  0  0
 28 29  2  0  0  0  0
 30 29  1  0  0  0  0
 30 21  2  0  0  0  0
 31 26  1  0  0  0  0
 32 31  1  0  0  0  0
 32 35  1  0  0  0  0
 33 31  2  0  0  0  0
 34 32  1  0  0  0  0
 37 39  1  0  0  0  0
 37 36  1  0  0  0  0
 38 39  1  0  0  0  0
 39 40  1  0  0  0  0
 39 41  1  0  0  0  0
M  END
>  <minimizedAffinity>
-7.50974751

$$$$
