
 OpenBabel10152419563D

 41 44  0  0  1  0  0  0  0  0999 V2000
   -0.1130   -6.7880  -26.5020 C   0  0  2  0  0  3  0  0  0  0  0  0
   -0.5810   -6.4040  -25.0980 C   0  0  0  0  0  0  0  0  0  0  0  0
   -0.5130   -5.1060  -24.5950 C   0  0  0  0  0  3  0  0  0  0  0  0
   -0.4270   -4.9080  -23.2240 C   0  0  0  0  0  3  0  0  0  0  0  0
   -0.6660   -5.9660  -22.3610 C   0  0  0  0  0  3  0  0  0  0  0  0
   -1.2010   -7.1450  -22.8440 C   0  0  0  0  0  0  0  0  0  0  0  0
   -1.0470   -7.4040  -24.2140 C   0  0  0  0  0  3  0  0  0  0  0  0
   -1.9300   -8.0650  -22.0650 N   0  0  0  0  0  0  0  0  0  0  0  0
   -1.9880   -9.4490  -22.0480 C   0  0  0  0  0  0  0  0  0  0  0  0
   -2.6670  -10.0080  -21.1880 O   0  0  0  0  0  0  0  0  0  0  0  0
   -2.4550   -7.6930  -21.2820 H   0  0  0  0  0  0  0  0  0  0  0  0
   -1.3080  -10.2860  -23.0550 C   0  0  0  0  0  0  0  0  0  0  0  0
   -1.8960  -10.3630  -24.3240 C   0  0  0  0  0  3  0  0  0  0  0  0
   -1.1960  -10.9540  -25.3760 C   0  0  0  0  0  3  0  0  0  0  0  0
    0.0830  -11.4680  -25.1520 C   0  0  0  0  0  0  0  0  0  0  0  0
    1.0930  -12.1190  -26.6110 Br  0  0  0  0  0  0  0  0  0  0  0  0
    0.6360  -11.4700  -23.8700 C   0  0  0  0  0  3  0  0  0  0  0  0
   -0.0780  -10.9090  -22.8040 C   0  0  0  0  0  3  0  0  0  0  0  0
    1.3140   -6.6340  -26.8400 N   0  0  0  0  0  0  0  0  0  0  0  0
    1.7940   -5.8810  -26.3480 H   0  0  0  0  0  0  0  0  0  0  0  0
    2.3010   -7.6000  -26.8940 C   0  0  0  0  0  0  0  0  0  0  0  0
    2.3430   -8.2550  -25.7230 N   0  0  0  0  0  0  0  0  0  0  0  0
    3.0080   -9.4090  -25.7090 C   0  0  0  0  0  3  0  0  0  0  0  0
    3.5870   -9.9800  -26.7670 N   0  0  0  0  0  0  0  0  0  0  0  0
    3.6140   -9.2920  -27.9310 C   0  0  0  0  0  0  0  0  0  0  0  0
    4.1460   -9.8490  -29.1090 C   0  0  0  0  0  0  0  0  0  0  0  0
    4.2320   -9.0950  -30.2940 C   0  0  0  0  0  3  0  0  0  0  0  0
    3.7660   -7.7880  -30.3370 C   0  0  0  0  0  3  0  0  0  0  0  0
    3.1590   -7.2500  -29.2090 C   0  0  0  0  0  3  0  0  0  0  0  0
    3.0420   -8.0040  -28.0160 C   0  0  0  0  0  0  0  0  0  0  0  0
    4.5630  -11.2830  -29.2240 C   0  0  0  0  0  0  0  0  0  0  0  0
    4.7210  -12.0150  -28.0840 N   0  0  0  0  0  0  0  0  0  0  0  0
    4.7190  -11.8170  -30.3170 O   0  0  0  0  0  0  0  0  0  0  0  0
    4.9780  -12.9900  -28.1600 H   0  0  0  0  0  0  0  0  0  0  0  0
    4.6100  -11.5940  -27.1670 H   0  0  0  0  0  0  0  0  0  0  0  0
   -0.9720   -6.0690  -27.5640 C   0  0  0  0  0  2  0  0  0  0  0  0
   -0.3380   -4.8440  -28.2310 C   0  0  0  0  0  2  0  0  0  0  0  0
    1.3480   -3.0390  -27.6750 C   0  0  0  0  0  1  0  0  0  0  0  0
    0.0910   -3.7580  -27.2680 N   0  0  0  0  0  4  0  0  0  0  0  0
   -1.0320   -2.7710  -27.0400 C   0  0  0  0  0  1  0  0  0  0  0  0
    0.2510   -4.1950  -26.3480 H   0  0  0  0  0  0  0  0  0  0  0  0
  1 36  1  6  0  0  0
  1  2  1  0  0  0  0
  2  3  2  0  0  0  0
  2  7  1  0  0  0  0
  3  4  1  0  0  0  0
  4  5  2  0  0  0  0
  6  5  1  0  0  0  0
  6  8  1  0  0  0  0
  7  6  2  0  0  0  0
  8  9  1  0  0  0  0
  8 11  1  0  0  0  0
  9 10  2  0  0  0  0
 12 18  1  0  0  0  0
 12  9  1  0  0  0  0
 13 12  2  0  0  0  0
 14 15  2  0  0  0  0
 14 13  1  0  0  0  0
 15 17  1  0  0  0  0
 16 15  1  0  0  0  0
 17 18  2  0  0  0  0
 19  1  1  0  0  0  0
 19 20  1  0  0  0  0
 21 19  1  0  0  0  0
 21 22  1  0  0  0  0
 22 23  2  0  0  0  0
 24 23  1  0  0  0  0
 25 24  2  0  0  0  0
 26 25  1  0  0  0  0
 27 26  2  0  0  0  0
 28 27  1  0  0  0  0
 28 29  2  0  0  0  0
 29 30  1  0  0  0  0
 30 25  1  0  0  0  0
 30 21  2  0  0  0  0
 31 26  1  0  0  0  0
 31 32  1  0  0  0  0
 32 35  1  0  0  0  0
 33 31  2  0  0  0  0
 34 32  1  0  0  0  0
 37 36  1  0  0  0  0
 37 39  1  0  0  0  0
 38 39  1  0  0  0  0
 39 40  1  0  0  0  0
 39 41  1  0  0  0  0
M  END
>  <minimizedAffinity>
-6.00620222

$$$$
