
 OpenBabel10152419563D

 41 44  0  0  1  0  0  0  0  0999 V2000
    1.9780  -10.1410  -26.1110 C   0  0  2  0  0  3  0  0  0  0  0  0
    2.6990   -9.0660  -26.9250 C   0  0  0  0  0  0  0  0  0  0  0  0
    4.0780   -9.0540  -27.1290 C   0  0  0  0  0  3  0  0  0  0  0  0
    4.7220   -7.8500  -27.3760 C   0  0  0  0  0  3  0  0  0  0  0  0
    3.9750   -6.7200  -27.6710 C   0  0  0  0  0  3  0  0  0  0  0  0
    2.6240   -6.8340  -27.9380 C   0  0  0  0  0  0  0  0  0  0  0  0
    1.9700   -7.9750  -27.4520 C   0  0  0  0  0  3  0  0  0  0  0  0
    1.8840   -5.9120  -28.7060 N   0  0  0  0  0  0  0  0  0  0  0  0
    0.8460   -5.0500  -28.4000 C   0  0  0  0  0  0  0  0  0  0  0  0
    0.4310   -4.2820  -29.2660 O   0  0  0  0  0  0  0  0  0  0  0  0
    2.2040   -5.7390  -29.6510 H   0  0  0  0  0  0  0  0  0  0  0  0
    0.1730   -5.0490  -27.0860 C   0  0  0  0  0  0  0  0  0  0  0  0
    0.1210   -6.2640  -26.3930 C   0  0  0  0  0  3  0  0  0  0  0  0
   -0.3010   -6.2850  -25.0630 C   0  0  0  0  0  3  0  0  0  0  0  0
   -0.6740   -5.0940  -24.4380 C   0  0  0  0  0  0  0  0  0  0  0  0
   -1.0880   -5.1000  -22.5940 Br  0  0  0  0  0  0  0  0  0  0  0  0
   -0.7060   -3.8940  -25.1520 C   0  0  0  0  0  3  0  0  0  0  0  0
   -0.3160   -3.8750  -26.4960 C   0  0  0  0  0  3  0  0  0  0  0  0
    0.7940   -9.7570  -25.3200 N   0  0  0  0  0  0  0  0  0  0  0  0
    0.1390   -9.1400  -25.7990 H   0  0  0  0  0  0  0  0  0  0  0  0
   -0.0630  -10.5630  -24.5980 C   0  0  0  0  0  0  0  0  0  0  0  0
    0.0200  -11.8220  -25.0570 N   0  0  0  0  0  0  0  0  0  0  0  0
   -0.4930  -12.7750  -24.2810 C   0  0  0  0  0  3  0  0  0  0  0  0
   -1.0340  -12.5830  -23.0770 N   0  0  0  0  0  0  0  0  0  0  0  0
   -1.1890  -11.3130  -22.6400 C   0  0  0  0  0  0  0  0  0  0  0  0
   -1.6900  -11.0260  -21.3560 C   0  0  0  0  0  0  0  0  0  0  0  0
   -1.9130   -9.7000  -20.9430 C   0  0  0  0  0  3  0  0  0  0  0  0
   -1.6190   -8.6370  -21.7850 C   0  0  0  0  0  3  0  0  0  0  0  0
   -1.0430   -8.8960  -23.0240 C   0  0  0  0  0  3  0  0  0  0  0  0
   -0.7880  -10.2230  -23.4440 C   0  0  0  0  0  0  0  0  0  0  0  0
   -1.9260  -12.0760  -20.3140 C   0  0  0  0  0  0  0  0  0  0  0  0
   -0.8890  -12.8830  -19.9480 N   0  0  0  0  0  0  0  0  0  0  0  0
   -3.0140  -12.1920  -19.7590 O   0  0  0  0  0  0  0  0  0  0  0  0
   -1.0400  -13.5760  -19.2270 H   0  0  0  0  0  0  0  0  0  0  0  0
    0.0170  -12.8170  -20.4000 H   0  0  0  0  0  0  0  0  0  0  0  0
    2.9830  -10.8840  -25.2040 C   0  0  0  0  0  2  0  0  0  0  0  0
    3.0020  -12.4110  -25.3240 C   0  0  0  0  0  2  0  0  0  0  0  0
    2.3420  -12.6750  -27.7530 C   0  0  0  0  0  1  0  0  0  0  0  0
    3.3810  -12.9270  -26.6950 N   0  0  0  0  0  4  0  0  0  0  0  0
    4.7190  -12.3690  -27.1260 C   0  0  0  0  0  1  0  0  0  0  0  0
    3.5280  -13.9450  -26.6220 H   0  0  0  0  0  0  0  0  0  0  0  0
  1 19  1  0  0  0  0
  1 36  1  1  0  0  0
  2  1  1  0  0  0  0
  3  2  1  0  0  0  0
  4  3  2  0  0  0  0
  5  4  1  0  0  0  0
  6  5  2  0  0  0  0
  6  7  1  0  0  0  0
  7  2  2  0  0  0  0
  8  9  1  0  0  0  0
  8  6  1  0  0  0  0
  9 12  1  0  0  0  0
 10  9  2  0  0  0  0
 11  8  1  0  0  0  0
 12 18  2  0  0  0  0
 12 13  1  0  0  0  0
 13 14  2  0  0  0  0
 14 15  1  0  0  0  0
 15 16  1  0  0  0  0
 17 15  2  0  0  0  0
 18 17  1  0  0  0  0
 19 21  1  0  0  0  0
 20 19  1  0  0  0  0
 21 30  1  0  0  0  0
 22 21  2  0  0  0  0
 22 23  1  0  0  0  0
 23 24  2  0  0  0  0
 24 25  1  0  0  0  0
 25 26  1  0  0  0  0
 26 27  2  0  0  0  0
 26 31  1  0  0  0  0
 28 27  1  0  0  0  0
 29 28  2  0  0  0  0
 30 29  1  0  0  0  0
 30 25  2  0  0  0  0
 31 32  1  0  0  0  0
 31 33  2  0  0  0  0
 32 34  1  0  0  0  0
 35 32  1  0  0  0  0
 37 36  1  0  0  0  0
 38 39  1  0  0  0  0
 39 41  1  0  0  0  0
 39 37  1  0  0  0  0
 40 39  1  0  0  0  0
M  END
>  <minimizedAffinity>
-6.40507174

$$$$
