
 OpenBabel10152419563D

 41 44  0  0  1  0  0  0  0  0999 V2000
    3.3240  -10.0750  -26.5450 C   0  0  2  0  0  3  0  0  0  0  0  0
    3.2870   -8.6950  -27.2020 C   0  0  0  0  0  0  0  0  0  0  0  0
    4.4320   -7.9760  -27.5430 C   0  0  0  0  0  3  0  0  0  0  0  0
    4.3740   -6.5920  -27.6150 C   0  0  0  0  0  3  0  0  0  0  0  0
    3.1430   -5.9550  -27.6020 C   0  0  0  0  0  3  0  0  0  0  0  0
    1.9810   -6.6910  -27.7420 C   0  0  0  0  0  0  0  0  0  0  0  0
    2.0460   -8.0550  -27.4240 C   0  0  0  0  0  3  0  0  0  0  0  0
    0.7660   -6.1720  -28.2300 N   0  0  0  0  0  0  0  0  0  0  0  0
   -0.4190   -5.8050  -27.6140 C   0  0  0  0  0  0  0  0  0  0  0  0
   -1.3120   -5.2960  -28.2880 O   0  0  0  0  0  0  0  0  0  0  0  0
    0.7380   -5.9040  -29.2070 H   0  0  0  0  0  0  0  0  0  0  0  0
   -0.6790   -6.0500  -26.1820 C   0  0  0  0  0  0  0  0  0  0  0  0
   -1.8830   -6.6810  -25.8490 C   0  0  0  0  0  3  0  0  0  0  0  0
   -2.0900   -7.1340  -24.5460 C   0  0  0  0  0  3  0  0  0  0  0  0
   -1.0950   -6.9490  -23.5840 C   0  0  0  0  0  0  0  0  0  0  0  0
   -1.3080   -7.7080  -21.8660 Br  0  0  0  0  0  0  0  0  0  0  0  0
    0.0710   -6.2440  -23.8910 C   0  0  0  0  0  3  0  0  0  0  0  0
    0.2670   -5.7570  -25.1890 C   0  0  0  0  0  3  0  0  0  0  0  0
    2.9490  -10.1930  -25.1230 N   0  0  0  0  0  0  0  0  0  0  0  0
    2.5590   -9.3470  -24.7100 H   0  0  0  0  0  0  0  0  0  0  0  0
    2.2000  -11.1750  -24.5040 C   0  0  0  0  0  0  0  0  0  0  0  0
    3.0220  -12.1160  -24.0130 N   0  0  0  0  0  0  0  0  0  0  0  0
    2.4990  -12.9580  -23.1240 C   0  0  0  0  0  3  0  0  0  0  0  0
    1.2510  -12.9110  -22.6550 N   0  0  0  0  0  0  0  0  0  0  0  0
    0.3970  -12.0160  -23.1990 C   0  0  0  0  0  0  0  0  0  0  0  0
   -0.9170  -11.8560  -22.7170 C   0  0  0  0  0  0  0  0  0  0  0  0
   -1.8160  -10.9710  -23.3390 C   0  0  0  0  0  3  0  0  0  0  0  0
   -1.4200  -10.2110  -24.4300 C   0  0  0  0  0  3  0  0  0  0  0  0
   -0.1030  -10.2910  -24.8670 C   0  0  0  0  0  3  0  0  0  0  0  0
    0.8210  -11.1570  -24.2360 C   0  0  0  0  0  0  0  0  0  0  0  0
   -1.4210  -12.5230  -21.4740 C   0  0  0  0  0  0  0  0  0  0  0  0
   -0.5230  -12.8960  -20.5170 N   0  0  0  0  0  0  0  0  0  0  0  0
   -2.6210  -12.6980  -21.2850 O   0  0  0  0  0  0  0  0  0  0  0  0
   -0.8640  -13.3240  -19.6670 H   0  0  0  0  0  0  0  0  0  0  0  0
    0.4750  -12.7740  -20.6540 H   0  0  0  0  0  0  0  0  0  0  0  0
    4.7030  -10.7330  -26.7680 C   0  0  0  0  0  2  0  0  0  0  0  0
    4.7200  -11.9850  -27.6520 C   0  0  0  0  0  2  0  0  0  0  0  0
    3.6520  -12.9280  -29.7440 C   0  0  0  0  0  1  0  0  0  0  0  0
    3.4460  -12.2150  -28.4360 N   0  0  0  0  0  4  0  0  0  0  0  0
    2.4230  -12.9440  -27.5930 C   0  0  0  0  0  1  0  0  0  0  0  0
    3.0230  -11.2960  -28.6320 H   0  0  0  0  0  0  0  0  0  0  0  0
  1 36  1  1  0  0  0
  1 19  1  0  0  0  0
  2  1  1  0  0  0  0
  3  2  2  0  0  0  0
  4  5  2  0  0  0  0
  4  3  1  0  0  0  0
  6  5  1  0  0  0  0
  6  7  2  0  0  0  0
  7  2  1  0  0  0  0
  8  6  1  0  0  0  0
  8  9  1  0  0  0  0
  9 12  1  0  0  0  0
 10  9  2  0  0  0  0
 11  8  1  0  0  0  0
 12 13  2  0  0  0  0
 12 18  1  0  0  0  0
 13 14  1  0  0  0  0
 14 15  2  0  0  0  0
 15 16  1  0  0  0  0
 17 15  1  0  0  0  0
 18 17  2  0  0  0  0
 19 20  1  0  0  0  0
 19 21  1  0  0  0  0
 21 30  2  0  0  0  0
 21 22  1  0  0  0  0
 22 23  2  0  0  0  0
 23 24  1  0  0  0  0
 25 26  1  0  0  0  0
 25 24  2  0  0  0  0
 26 31  1  0  0  0  0
 27 26  2  0  0  0  0
 28 27  1  0  0  0  0
 29 28  2  0  0  0  0
 29 30  1  0  0  0  0
 30 25  1  0  0  0  0
 31 33  2  0  0  0  0
 31 32  1  0  0  0  0
 32 34  1  0  0  0  0
 35 32  1  0  0  0  0
 37 36  1  0  0  0  0
 38 39  1  0  0  0  0
 39 37  1  0  0  0  0
 39 40  1  0  0  0  0
 41 39  1  0  0  0  0
M  END
>  <minimizedAffinity>
-5.9433322

$$$$
