
 OpenBabel10152419563D

 41 44  0  0  1  0  0  0  0  0999 V2000
   -1.2630   -8.0120  -24.2310 C   0  0  2  0  0  3  0  0  0  0  0  0
   -0.8600   -9.4350  -24.6180 C   0  0  0  0  0  0  0  0  0  0  0  0
   -1.3860  -10.1090  -25.7190 C   0  0  0  0  0  3  0  0  0  0  0  0
   -1.4210  -11.4960  -25.7180 C   0  0  0  0  0  3  0  0  0  0  0  0
   -0.7110  -12.2010  -24.7580 C   0  0  0  0  0  3  0  0  0  0  0  0
    0.1980  -11.5440  -23.9500 C   0  0  0  0  0  0  0  0  0  0  0  0
    0.0370  -10.1590  -23.7990 C   0  0  0  0  0  3  0  0  0  0  0  0
    1.2950  -12.1650  -23.3200 N   0  0  0  0  0  0  0  0  0  0  0  0
    2.5740  -12.4790  -23.7480 C   0  0  0  0  0  0  0  0  0  0  0  0
    3.3720  -12.9590  -22.9450 O   0  0  0  0  0  0  0  0  0  0  0  0
    1.2140  -12.3470  -22.3270 H   0  0  0  0  0  0  0  0  0  0  0  0
    3.0080  -12.3100  -25.1480 C   0  0  0  0  0  0  0  0  0  0  0  0
    2.0440  -12.5030  -26.1440 C   0  0  0  0  0  3  0  0  0  0  0  0
    2.3310  -12.1480  -27.4630 C   0  0  0  0  0  3  0  0  0  0  0  0
    3.5790  -11.6090  -27.7770 C   0  0  0  0  0  0  0  0  0  0  0  0
    3.9070  -10.9780  -29.5280 Br  0  0  0  0  0  0  0  0  0  0  0  0
    4.5720  -11.4960  -26.8020 C   0  0  0  0  0  3  0  0  0  0  0  0
    4.3000  -11.8840  -25.4850 C   0  0  0  0  0  3  0  0  0  0  0  0
   -0.3660   -6.8980  -24.5910 N   0  0  0  0  0  0  0  0  0  0  0  0
   -0.1440   -6.2610  -23.8270 H   0  0  0  0  0  0  0  0  0  0  0  0
    0.8340   -6.9380  -25.2750 C   0  0  0  0  0  0  0  0  0  0  0  0
    1.6540   -7.8180  -24.6780 N   0  0  0  0  0  0  0  0  0  0  0  0
    2.7170   -8.2110  -25.3770 C   0  0  0  0  0  3  0  0  0  0  0  0
    3.0010   -7.8390  -26.6260 N   0  0  0  0  0  0  0  0  0  0  0  0
    2.2230   -6.8970  -27.2060 C   0  0  0  0  0  0  0  0  0  0  0  0
    2.4140   -6.4970  -28.5430 C   0  0  0  0  0  0  0  0  0  0  0  0
    1.6420   -5.4660  -29.1090 C   0  0  0  0  0  3  0  0  0  0  0  0
    0.6520   -4.8340  -28.3700 C   0  0  0  0  0  3  0  0  0  0  0  0
    0.3910   -5.2730  -27.0770 C   0  0  0  0  0  3  0  0  0  0  0  0
    1.1400   -6.3270  -26.5010 C   0  0  0  0  0  0  0  0  0  0  0  0
    3.3590   -7.1860  -29.4780 C   0  0  0  0  0  0  0  0  0  0  0  0
    4.6490   -7.3830  -29.0820 N   0  0  0  0  0  0  0  0  0  0  0  0
    2.9850   -7.6100  -30.5670 O   0  0  0  0  0  0  0  0  0  0  0  0
    5.2830   -7.8690  -29.7020 H   0  0  0  0  0  0  0  0  0  0  0  0
    4.9880   -7.0310  -28.1920 H   0  0  0  0  0  0  0  0  0  0  0  0
   -1.5860   -7.9430  -22.7230 C   0  0  0  0  0  2  0  0  0  0  0  0
   -2.6850   -8.8870  -22.2220 C   0  0  0  0  0  2  0  0  0  0  0  0
   -2.1200  -11.0430  -21.0230 C   0  0  0  0  0  1  0  0  0  0  0  0
   -2.3750   -9.5660  -20.9060 N   0  0  0  0  0  4  0  0  0  0  0  0
   -1.2180   -8.8830  -20.2110 C   0  0  0  0  0  1  0  0  0  0  0  0
   -3.1820   -9.4260  -20.2790 H   0  0  0  0  0  0  0  0  0  0  0  0
  1 36  1  1  0  0  0
  2  1  1  0  0  0  0
  2  7  1  0  0  0  0
  3  4  1  0  0  0  0
  3  2  2  0  0  0  0
  4  5  2  0  0  0  0
  5  6  1  0  0  0  0
  6  7  2  0  0  0  0
  6  8  1  0  0  0  0
  8 11  1  0  0  0  0
  9  8  1  0  0  0  0
  9 10  2  0  0  0  0
 12  9  1  0  0  0  0
 13 12  2  0  0  0  0
 14 13  1  0  0  0  0
 15 14  2  0  0  0  0
 15 17  1  0  0  0  0
 16 15  1  0  0  0  0
 17 18  2  0  0  0  0
 18 12  1  0  0  0  0
 19  1  1  0  0  0  0
 19 20  1  0  0  0  0
 21 22  1  0  0  0  0
 21 19  1  0  0  0  0
 23 22  2  0  0  0  0
 24 23  1  0  0  0  0
 25 24  2  0  0  0  0
 25 30  1  0  0  0  0
 26 25  1  0  0  0  0
 27 26  2  0  0  0  0
 27 28  1  0  0  0  0
 28 29  2  0  0  0  0
 29 30  1  0  0  0  0
 30 21  2  0  0  0  0
 31 32  1  0  0  0  0
 31 26  1  0  0  0  0
 32 35  1  0  0  0  0
 33 31  2  0  0  0  0
 34 32  1  0  0  0  0
 36 37  1  0  0  0  0
 37 39  1  0  0  0  0
 38 39  1  0  0  0  0
 39 41  1  0  0  0  0
 39 40  1  0  0  0  0
M  END
>  <minimizedAffinity>
-8.64396667

$$$$
