
 OpenBabel10152419563D

 41 44  0  0  1  0  0  0  0  0999 V2000
   -0.0090   -7.1950  -25.1350 C   0  0  2  0  0  3  0  0  0  0  0  0
   -1.1850   -7.7950  -24.3650 C   0  0  0  0  0  0  0  0  0  0  0  0
   -2.5170   -7.6120  -24.7340 C   0  0  0  0  0  3  0  0  0  0  0  0
   -3.5110   -7.6920  -23.7690 C   0  0  0  0  0  3  0  0  0  0  0  0
   -3.2100   -8.1970  -22.5140 C   0  0  0  0  0  3  0  0  0  0  0  0
   -1.9980   -8.8230  -22.2920 C   0  0  0  0  0  0  0  0  0  0  0  0
   -0.9500   -8.5180  -23.1730 C   0  0  0  0  0  3  0  0  0  0  0  0
   -1.7690   -9.7770  -21.2810 N   0  0  0  0  0  0  0  0  0  0  0  0
   -1.1560  -11.0190  -21.2780 C   0  0  0  0  0  0  0  0  0  0  0  0
   -1.0220  -11.6180  -20.2120 O   0  0  0  0  0  0  0  0  0  0  0  0
   -1.9900   -9.5050  -20.3310 H   0  0  0  0  0  0  0  0  0  0  0  0
   -0.7020  -11.6840  -22.5150 C   0  0  0  0  0  0  0  0  0  0  0  0
   -1.3820  -11.3710  -23.6970 C   0  0  0  0  0  3  0  0  0  0  0  0
   -0.8670  -11.7920  -24.9240 C   0  0  0  0  0  3  0  0  0  0  0  0
    0.3180  -12.5290  -24.9600 C   0  0  0  0  0  0  0  0  0  0  0  0
    1.0980  -12.9570  -26.6270 Br  0  0  0  0  0  0  0  0  0  0  0  0
    0.9510  -12.9170  -23.7770 C   0  0  0  0  0  3  0  0  0  0  0  0
    0.4200  -12.5250  -22.5430 C   0  0  0  0  0  3  0  0  0  0  0  0
    1.3600   -7.6010  -24.7670 N   0  0  0  0  0  0  0  0  0  0  0  0
    1.4400   -8.0840  -23.8730 H   0  0  0  0  0  0  0  0  0  0  0  0
    2.2990   -8.2710  -25.5280 C   0  0  0  0  0  0  0  0  0  0  0  0
    2.5580   -9.4610  -24.9610 N   0  0  0  0  0  0  0  0  0  0  0  0
    3.1910  -10.3550  -25.7180 C   0  0  0  0  0  3  0  0  0  0  0  0
    3.5410  -10.1800  -26.9930 N   0  0  0  0  0  0  0  0  0  0  0  0
    3.3510   -8.9610  -27.5470 C   0  0  0  0  0  0  0  0  0  0  0  0
    3.6320   -8.7110  -28.9040 C   0  0  0  0  0  0  0  0  0  0  0  0
    3.4960   -7.4200  -29.4470 C   0  0  0  0  0  3  0  0  0  0  0  0
    3.0560   -6.3640  -28.6620 C   0  0  0  0  0  3  0  0  0  0  0  0
    2.6920   -6.6080  -27.3430 C   0  0  0  0  0  3  0  0  0  0  0  0
    2.7980   -7.9070  -26.7880 C   0  0  0  0  0  0  0  0  0  0  0  0
    3.9900   -9.7890  -29.8800 C   0  0  0  0  0  0  0  0  0  0  0  0
    4.4750  -10.9720  -29.4040 N   0  0  0  0  0  0  0  0  0  0  0  0
    3.8170   -9.6430  -31.0860 O   0  0  0  0  0  0  0  0  0  0  0  0
    4.6940  -11.7100  -30.0600 H   0  0  0  0  0  0  0  0  0  0  0  0
    4.6400  -11.1150  -28.4130 H   0  0  0  0  0  0  0  0  0  0  0  0
   -0.1050   -5.6540  -25.1350 C   0  0  0  0  0  2  0  0  0  0  0  0
   -0.6000   -5.0070  -26.4330 C   0  0  0  0  0  2  0  0  0  0  0  0
    0.6680   -3.5460  -28.0660 C   0  0  0  0  0  1  0  0  0  0  0  0
   -0.0010   -3.6480  -26.7230 N   0  0  0  0  0  4  0  0  0  0  0  0
   -1.0420   -2.5600  -26.5680 C   0  0  0  0  0  1  0  0  0  0  0  0
    0.7020   -3.4480  -25.9960 H   0  0  0  0  0  0  0  0  0  0  0  0
  1 36  1  1  0  0  0
  1 19  1  0  0  0  0
  1  2  1  0  0  0  0
  2  7  1  0  0  0  0
  3  2  2  0  0  0  0
  3  4  1  0  0  0  0
  4  5  2  0  0  0  0
  5  6  1  0  0  0  0
  6  8  1  0  0  0  0
  7  6  2  0  0  0  0
  8  9  1  0  0  0  0
  8 11  1  0  0  0  0
  9 10  2  0  0  0  0
 12  9  1  0  0  0  0
 13 12  2  0  0  0  0
 14 13  1  0  0  0  0
 15 14  2  0  0  0  0
 15 17  1  0  0  0  0
 16 15  1  0  0  0  0
 17 18  2  0  0  0  0
 18 12  1  0  0  0  0
 19 20  1  0  0  0  0
 21 22  1  0  0  0  0
 21 19  1  0  0  0  0
 23 22  2  0  0  0  0
 24 23  1  0  0  0  0
 25 24  2  0  0  0  0
 25 30  1  0  0  0  0
 26 25  1  0  0  0  0
 27 26  2  0  0  0  0
 27 28  1  0  0  0  0
 28 29  2  0  0  0  0
 29 30  1  0  0  0  0
 30 21  2  0  0  0  0
 31 32  1  0  0  0  0
 31 26  1  0  0  0  0
 32 35  1  0  0  0  0
 33 31  2  0  0  0  0
 34 32  1  0  0  0  0
 37 36  1  0  0  0  0
 38 39  1  0  0  0  0
 39 40  1  0  0  0  0
 39 37  1  0  0  0  0
 39 41  1  0  0  0  0
M  END
>  <minimizedAffinity>
-7.35822821

$$$$
