
 OpenBabel10152419553D

 34 37  0  0  1  0  0  0  0  0999 V2000
   -0.5240   -5.0950  -24.2120 C   0  0  0  0  0  1  0  0  0  0  0  0
   -0.0950   -6.4460  -24.8040 C   0  0  2  0  0  3  0  0  0  0  0  0
    0.8020   -6.2960  -26.0300 C   0  0  0  0  0  0  0  0  0  0  0  0
    0.4560   -5.5430  -27.1570 C   0  0  0  0  0  3  0  0  0  0  0  0
    1.1730   -5.6910  -28.3470 C   0  0  0  0  0  3  0  0  0  0  0  0
    2.2120   -6.6240  -28.4410 C   0  0  0  0  0  3  0  0  0  0  0  0
    2.6260   -7.3160  -27.3130 C   0  0  0  0  0  0  0  0  0  0  0  0
    1.9530   -7.0960  -26.1070 C   0  0  0  0  0  3  0  0  0  0  0  0
    3.5340   -8.3760  -27.3050 N   0  0  0  0  0  0  0  0  0  0  0  0
    3.5810   -9.6130  -26.7690 C   0  0  0  0  0  0  0  0  0  0  0  0
    4.7210  -10.0660  -26.5900 O   0  0  0  0  0  0  0  0  0  0  0  0
    4.4530   -8.1460  -27.6710 H   0  0  0  0  0  0  0  0  0  0  0  0
    2.3870  -10.5150  -26.4950 C   0  0  0  0  0  3  0  0  0  0  0  0
    2.1940  -11.8470  -27.2020 C   0  0  0  0  0  2  0  0  0  0  0  0
    1.3050  -12.6390  -26.2570 C   0  0  0  0  0  2  0  0  0  0  0  0
    1.8260  -12.3040  -24.8750 C   0  0  0  0  0  2  0  0  0  0  0  0
    2.5140  -10.9510  -25.0140 C   0  0  0  0  0  2  0  0  0  0  0  0
   -1.3180   -7.2280  -25.0860 N   0  0  0  0  0  0  0  0  0  0  0  0
   -1.5480   -7.2250  -26.0770 H   0  0  0  0  0  0  0  0  0  0  0  0
   -1.4750   -8.5470  -24.6770 C   0  0  0  0  0  0  0  0  0  0  0  0
   -1.4890   -9.3960  -25.7150 N   0  0  0  0  0  0  0  0  0  0  0  0
   -1.4420  -10.6910  -25.4170 C   0  0  0  0  0  3  0  0  0  0  0  0
   -1.3890  -11.2170  -24.1890 N   0  0  0  0  0  0  0  0  0  0  0  0
   -1.4500  -10.3740  -23.1350 C   0  0  0  0  0  0  0  0  0  0  0  0
   -1.4210  -10.8400  -21.8040 C   0  0  0  0  0  0  0  0  0  0  0  0
   -1.5270   -9.9520  -20.7160 C   0  0  0  0  0  3  0  0  0  0  0  0
   -1.6860   -8.5920  -20.9280 C   0  0  0  0  0  3  0  0  0  0  0  0
   -1.7020   -8.1110  -22.2330 C   0  0  0  0  0  3  0  0  0  0  0  0
   -1.5450   -8.9820  -23.3400 C   0  0  0  0  0  0  0  0  0  0  0  0
   -1.2750  -12.2860  -21.4430 C   0  0  0  0  0  0  0  0  0  0  0  0
   -0.1750  -12.9580  -21.8920 N   0  0  0  0  0  0  0  0  0  0  0  0
   -2.1090  -12.8680  -20.7620 O   0  0  0  0  0  0  0  0  0  0  0  0
   -0.0620  -13.9300  -21.6440 H   0  0  0  0  0  0  0  0  0  0  0  0
    0.5010  -12.5040  -22.4990 H   0  0  0  0  0  0  0  0  0  0  0  0
  2  1  1  6  0  0  0
  3  2  1  0  0  0  0
  4  3  2  0  0  0  0
  5  4  1  0  0  0  0
  6  5  2  0  0  0  0
  6  7  1  0  0  0  0
  7  9  1  0  0  0  0
  7  8  2  0  0  0  0
  8  3  1  0  0  0  0
  9 10  1  0  0  0  0
 10 11  2  0  0  0  0
 10 13  1  0  0  0  0
 12  9  1  0  0  0  0
 13 17  1  0  0  0  0
 14 13  1  0  0  0  0
 14 15  1  0  0  0  0
 15 16  1  0  0  0  0
 17 16  1  0  0  0  0
 18  2  1  0  0  0  0
 18 20  1  0  0  0  0
 19 18  1  0  0  0  0
 20 29  1  0  0  0  0
 21 22  1  0  0  0  0
 21 20  2  0  0  0  0
 22 23  2  0  0  0  0
 23 24  1  0  0  0  0
 24 25  1  0  0  0  0
 25 30  1  0  0  0  0
 25 26  2  0  0  0  0
 27 26  1  0  0  0  0
 28 27  2  0  0  0  0
 29 24  2  0  0  0  0
 29 28  1  0  0  0  0
 30 32  2  0  0  0  0
 31 33  1  0  0  0  0
 31 30  1  0  0  0  0
 34 31  1  0  0  0  0
M  END
>  <minimizedAffinity>
-8.99046898

$$$$
