
 OpenBabel10152419553D

 34 37  0  0  1  0  0  0  0  0999 V2000
    2.1190   -8.2300  -24.2700 C   0  0  0  0  0  1  0  0  0  0  0  0
    2.1980   -9.3170  -25.3510 C   0  0  2  0  0  3  0  0  0  0  0  0
    2.6750   -8.7790  -26.6970 C   0  0  0  0  0  0  0  0  0  0  0  0
    3.7330   -9.3340  -27.4240 C   0  0  0  0  0  3  0  0  0  0  0  0
    4.3080   -8.6240  -28.4820 C   0  0  0  0  0  3  0  0  0  0  0  0
    3.8650   -7.3340  -28.7960 C   0  0  0  0  0  3  0  0  0  0  0  0
    2.7640   -6.8010  -28.1450 C   0  0  0  0  0  0  0  0  0  0  0  0
    2.1450   -7.5580  -27.1440 C   0  0  0  0  0  3  0  0  0  0  0  0
    2.3230   -5.4800  -28.2520 N   0  0  0  0  0  0  0  0  0  0  0  0
    1.1320   -4.8470  -28.2260 C   0  0  0  0  0  0  0  0  0  0  0  0
    1.1060   -3.7540  -28.8120 O   0  0  0  0  0  0  0  0  0  0  0  0
    3.0340   -4.8240  -28.5590 H   0  0  0  0  0  0  0  0  0  0  0  0
   -0.1000   -5.2900  -27.4530 C   0  0  0  0  0  3  0  0  0  0  0  0
   -0.5160   -6.7500  -27.3510 C   0  0  0  0  0  2  0  0  0  0  0  0
   -1.3490   -6.8050  -26.0810 C   0  0  0  0  0  2  0  0  0  0  0  0
   -0.6230   -5.8980  -25.1090 C   0  0  0  0  0  2  0  0  0  0  0  0
    0.1730   -4.9270  -25.9720 C   0  0  0  0  0  2  0  0  0  0  0  0
    0.8740   -9.9700  -25.4360 N   0  0  0  0  0  0  0  0  0  0  0  0
    0.7550  -10.4680  -26.3170 H   0  0  0  0  0  0  0  0  0  0  0  0
    0.4010  -10.8370  -24.4590 C   0  0  0  0  0  0  0  0  0  0  0  0
    0.9470  -12.0570  -24.5630 N   0  0  0  0  0  0  0  0  0  0  0  0
    0.7060  -12.8980  -23.5620 C   0  0  0  0  0  3  0  0  0  0  0  0
   -0.0290  -12.6410  -22.4750 N   0  0  0  0  0  0  0  0  0  0  0  0
   -0.6450  -11.4410  -22.3960 C   0  0  0  0  0  0  0  0  0  0  0  0
   -1.4560  -11.0900  -21.2960 C   0  0  0  0  0  0  0  0  0  0  0  0
   -2.1250   -9.8510  -21.2470 C   0  0  0  0  0  3  0  0  0  0  0  0
   -2.0180   -8.9500  -22.2940 C   0  0  0  0  0  3  0  0  0  0  0  0
   -1.2110   -9.2710  -23.3800 C   0  0  0  0  0  3  0  0  0  0  0  0
   -0.4900  -10.4900  -23.4260 C   0  0  0  0  0  0  0  0  0  0  0  0
   -1.6690  -11.9840  -20.1130 C   0  0  0  0  0  0  0  0  0  0  0  0
   -0.5740  -12.5350  -19.5140 N   0  0  0  0  0  0  0  0  0  0  0  0
   -2.7880  -12.2240  -19.6800 O   0  0  0  0  0  0  0  0  0  0  0  0
   -0.7060  -13.1290  -18.7080 H   0  0  0  0  0  0  0  0  0  0  0  0
    0.3570  -12.3860  -19.8900 H   0  0  0  0  0  0  0  0  0  0  0  0
  2  1  1  1  0  0  0
  3  2  1  0  0  0  0
  4  3  2  0  0  0  0
  5  4  1  0  0  0  0
  6  5  2  0  0  0  0
  6  7  1  0  0  0  0
  7  8  2  0  0  0  0
  8  3  1  0  0  0  0
  9 10  1  0  0  0  0
  9  7  1  0  0  0  0
 10 13  1  0  0  0  0
 11 10  2  0  0  0  0
 12  9  1  0  0  0  0
 13 14  1  0  0  0  0
 13 17  1  0  0  0  0
 14 15  1  0  0  0  0
 15 16  1  0  0  0  0
 17 16  1  0  0  0  0
 18  2  1  0  0  0  0
 18 20  1  0  0  0  0
 19 18  1  0  0  0  0
 20 29  1  0  0  0  0
 21 20  2  0  0  0  0
 21 22  1  0  0  0  0
 22 23  2  0  0  0  0
 23 24  1  0  0  0  0
 24 25  1  0  0  0  0
 25 26  2  0  0  0  0
 25 30  1  0  0  0  0
 27 26  1  0  0  0  0
 28 27  2  0  0  0  0
 29 28  1  0  0  0  0
 29 24  2  0  0  0  0
 30 32  2  0  0  0  0
 30 31  1  0  0  0  0
 31 33  1  0  0  0  0
 34 31  1  0  0  0  0
M  END
>  <minimizedAffinity>
-8.87959194

$$$$
