
 OpenBabel10152419553D

 34 37  0  0  1  0  0  0  0  0999 V2000
    0.0030   -5.7250  -23.9690 C   0  0  0  0  0  1  0  0  0  0  0  0
    0.3610   -7.2120  -24.1080 C   0  0  2  0  0  3  0  0  0  0  0  0
    1.2030   -7.5040  -25.3470 C   0  0  0  0  0  0  0  0  0  0  0  0
    2.2660   -8.4130  -25.3670 C   0  0  0  0  0  3  0  0  0  0  0  0
    3.1730   -8.4100  -26.4310 C   0  0  0  0  0  3  0  0  0  0  0  0
    3.0560   -7.4710  -27.4610 C   0  0  0  0  0  3  0  0  0  0  0  0
    1.9630   -6.6210  -27.5050 C   0  0  0  0  0  0  0  0  0  0  0  0
    1.0170   -6.6910  -26.4770 C   0  0  0  0  0  3  0  0  0  0  0  0
    1.8110   -5.5450  -28.3820 N   0  0  0  0  0  0  0  0  0  0  0  0
    1.0660   -4.4210  -28.4230 C   0  0  0  0  0  0  0  0  0  0  0  0
    0.8660   -3.9640  -29.5580 O   0  0  0  0  0  0  0  0  0  0  0  0
    2.2550   -5.6730  -29.2860 H   0  0  0  0  0  0  0  0  0  0  0  0
    0.5800   -3.6260  -27.2200 C   0  0  0  0  0  3  0  0  0  0  0  0
    0.3530   -2.1230  -27.2760 C   0  0  0  0  0  2  0  0  0  0  0  0
   -0.6480   -1.8620  -26.1620 C   0  0  0  0  0  2  0  0  0  0  0  0
   -1.6140   -3.0260  -26.2370 C   0  0  0  0  0  2  0  0  0  0  0  0
   -0.8420   -4.1560  -26.9070 C   0  0  0  0  0  2  0  0  0  0  0  0
   -0.8980   -7.9880  -24.0790 N   0  0  0  0  0  0  0  0  0  0  0  0
   -0.9310   -8.6810  -24.8230 H   0  0  0  0  0  0  0  0  0  0  0  0
   -1.3450   -8.6490  -22.9420 C   0  0  0  0  0  0  0  0  0  0  0  0
   -2.1320   -7.8700  -22.1860 N   0  0  0  0  0  0  0  0  0  0  0  0
   -2.7630   -8.4690  -21.1800 C   0  0  0  0  0  3  0  0  0  0  0  0
   -2.6790   -9.7640  -20.8550 N   0  0  0  0  0  0  0  0  0  0  0  0
   -1.8310  -10.5410  -21.5640 C   0  0  0  0  0  0  0  0  0  0  0  0
   -1.6620  -11.9120  -21.2800 C   0  0  0  0  0  0  0  0  0  0  0  0
   -0.7440  -12.7010  -22.0000 C   0  0  0  0  0  3  0  0  0  0  0  0
    0.0360  -12.1400  -22.9990 C   0  0  0  0  0  3  0  0  0  0  0  0
   -0.1260  -10.7930  -23.3040 C   0  0  0  0  0  3  0  0  0  0  0  0
   -1.0810   -9.9950  -22.6250 C   0  0  0  0  0  0  0  0  0  0  0  0
   -2.4300  -12.6310  -20.2120 C   0  0  0  0  0  0  0  0  0  0  0  0
   -1.7810  -12.9580  -19.0570 N   0  0  0  0  0  0  0  0  0  0  0  0
   -3.6090  -12.9250  -20.3540 O   0  0  0  0  0  0  0  0  0  0  0  0
   -2.2930  -13.4310  -18.3280 H   0  0  0  0  0  0  0  0  0  0  0  0
   -0.7900  -12.7650  -18.9440 H   0  0  0  0  0  0  0  0  0  0  0  0
  2 18  1  0  0  0  0
  2  1  1  6  0  0  0
  3  2  1  0  0  0  0
  4  3  1  0  0  0  0
  5  4  2  0  0  0  0
  6  5  1  0  0  0  0
  7  6  2  0  0  0  0
  7  8  1  0  0  0  0
  8  3  2  0  0  0  0
  9  7  1  0  0  0  0
 10  9  1  0  0  0  0
 10 13  1  0  0  0  0
 11 10  2  0  0  0  0
 12  9  1  0  0  0  0
 13 17  1  0  0  0  0
 14 13  1  0  0  0  0
 14 15  1  0  0  0  0
 16 15  1  0  0  0  0
 17 16  1  0  0  0  0
 18 20  1  0  0  0  0
 19 18  1  0  0  0  0
 20 29  2  0  0  0  0
 20 21  1  0  0  0  0
 21 22  2  0  0  0  0
 22 23  1  0  0  0  0
 24 25  1  0  0  0  0
 24 23  2  0  0  0  0
 25 30  1  0  0  0  0
 26 25  2  0  0  0  0
 27 26  1  0  0  0  0
 28 27  2  0  0  0  0
 28 29  1  0  0  0  0
 29 24  1  0  0  0  0
 30 31  1  0  0  0  0
 31 34  1  0  0  0  0
 31 33  1  0  0  0  0
 32 30  2  0  0  0  0
M  END
>  <minimizedAffinity>
-8.49563026

$$$$
