
 OpenBabel10152419553D

 34 37  0  0  1  0  0  0  0  0999 V2000
   -0.5130  -11.1910  -25.6360 C   0  0  0  0  0  1  0  0  0  0  0  0
   -0.1070  -12.0120  -24.4030 C   0  0  2  0  0  3  0  0  0  0  0  0
   -0.6050  -11.4000  -23.0960 C   0  0  0  0  0  0  0  0  0  0  0  0
   -1.0910  -12.1530  -22.0230 C   0  0  0  0  0  3  0  0  0  0  0  0
   -1.8010  -11.5310  -20.9930 C   0  0  0  0  0  3  0  0  0  0  0  0
   -2.0760  -10.1600  -21.0450 C   0  0  0  0  0  3  0  0  0  0  0  0
   -1.5300   -9.3820  -22.0550 C   0  0  0  0  0  0  0  0  0  0  0  0
   -0.7500  -10.0050  -23.0350 C   0  0  0  0  0  3  0  0  0  0  0  0
   -1.8510   -8.0470  -22.3080 N   0  0  0  0  0  0  0  0  0  0  0  0
   -1.3530   -7.0550  -23.0740 C   0  0  0  0  0  0  0  0  0  0  0  0
   -1.6150   -5.9070  -22.6840 O   0  0  0  0  0  0  0  0  0  0  0  0
   -2.5430   -7.6530  -21.6770 H   0  0  0  0  0  0  0  0  0  0  0  0
   -0.6300   -7.2270  -24.4020 C   0  0  0  0  0  3  0  0  0  0  0  0
   -1.3640   -7.5710  -25.6890 C   0  0  0  0  0  2  0  0  0  0  0  0
   -0.4400   -7.0630  -26.7840 C   0  0  0  0  0  2  0  0  0  0  0  0
    0.0920   -5.7490  -26.2540 C   0  0  0  0  0  2  0  0  0  0  0  0
   -0.0210   -5.8430  -24.7380 C   0  0  0  0  0  2  0  0  0  0  0  0
    1.3620  -12.1770  -24.4310 N   0  0  0  0  0  0  0  0  0  0  0  0
    1.6390  -13.1280  -24.1960 H   0  0  0  0  0  0  0  0  0  0  0  0
    2.1350  -11.8320  -25.5330 C   0  0  0  0  0  0  0  0  0  0  0  0
    2.4110  -12.8940  -26.3040 N   0  0  0  0  0  0  0  0  0  0  0  0
    2.9800  -12.6370  -27.4780 C   0  0  0  0  0  3  0  0  0  0  0  0
    3.3020  -11.4290  -27.9520 N   0  0  0  0  0  0  0  0  0  0  0  0
    3.0960  -10.3590  -27.1520 C   0  0  0  0  0  0  0  0  0  0  0  0
    3.4240   -9.0490  -27.5600 C   0  0  0  0  0  0  0  0  0  0  0  0
    3.2420   -7.9490  -26.7000 C   0  0  0  0  0  3  0  0  0  0  0  0
    2.7520   -8.1310  -25.4160 C   0  0  0  0  0  3  0  0  0  0  0  0
    2.4100   -9.4130  -25.0010 C   0  0  0  0  0  3  0  0  0  0  0  0
    2.5370  -10.5260  -25.8680 C   0  0  0  0  0  0  0  0  0  0  0  0
    3.9790   -8.7240  -28.9120 C   0  0  0  0  0  0  0  0  0  0  0  0
    4.7220   -9.6730  -29.5530 N   0  0  0  0  0  0  0  0  0  0  0  0
    3.7810   -7.6420  -29.4470 O   0  0  0  0  0  0  0  0  0  0  0  0
    5.0900   -9.4680  -30.4700 H   0  0  0  0  0  0  0  0  0  0  0  0
    4.9370  -10.5580  -29.1020 H   0  0  0  0  0  0  0  0  0  0  0  0
  2  1  1  6  0  0  0
  2  3  1  0  0  0  0
  3  8  2  0  0  0  0
  3  4  1  0  0  0  0
  4  5  2  0  0  0  0
  6  5  1  0  0  0  0
  7  6  2  0  0  0  0
  8  7  1  0  0  0  0
  9  7  1  0  0  0  0
  9 12  1  0  0  0  0
 10 11  2  0  0  0  0
 10  9  1  0  0  0  0
 13 10  1  0  0  0  0
 14 13  1  0  0  0  0
 15 16  1  0  0  0  0
 15 14  1  0  0  0  0
 16 17  1  0  0  0  0
 17 13  1  0  0  0  0
 18  2  1  0  0  0  0
 18 19  1  0  0  0  0
 20 18  1  0  0  0  0
 21 20  2  0  0  0  0
 22 21  1  0  0  0  0
 23 22  2  0  0  0  0
 23 24  1  0  0  0  0
 24 29  1  0  0  0  0
 25 24  2  0  0  0  0
 25 26  1  0  0  0  0
 26 27  2  0  0  0  0
 27 28  1  0  0  0  0
 29 20  1  0  0  0  0
 29 28  2  0  0  0  0
 30 25  1  0  0  0  0
 31 34  1  0  0  0  0
 31 30  1  0  0  0  0
 32 30  2  0  0  0  0
 33 31  1  0  0  0  0
M  END
>  <minimizedAffinity>
-8.81958389

$$$$
