
 OpenBabel10152419553D

 34 37  0  0  1  0  0  0  0  0999 V2000
   -0.9370   -5.4610  -23.0350 C   0  0  0  0  0  1  0  0  0  0  0  0
   -0.8360   -6.7760  -23.8210 C   0  0  2  0  0  3  0  0  0  0  0  0
   -1.3450   -7.9780  -23.0290 C   0  0  0  0  0  0  0  0  0  0  0  0
   -1.5010   -7.9820  -21.6400 C   0  0  0  0  0  3  0  0  0  0  0  0
   -1.6770   -9.1880  -20.9560 C   0  0  0  0  0  3  0  0  0  0  0  0
   -1.6530  -10.4060  -21.6450 C   0  0  0  0  0  3  0  0  0  0  0  0
   -1.5860  -10.4180  -23.0290 C   0  0  0  0  0  0  0  0  0  0  0  0
   -1.4950   -9.1980  -23.7080 C   0  0  0  0  0  3  0  0  0  0  0  0
   -1.3980  -11.5550  -23.8180 N   0  0  0  0  0  0  0  0  0  0  0  0
   -0.3680  -12.1160  -24.4860 C   0  0  0  0  0  0  0  0  0  0  0  0
   -0.6920  -12.8480  -25.4340 O   0  0  0  0  0  0  0  0  0  0  0  0
   -2.2550  -12.0280  -24.0870 H   0  0  0  0  0  0  0  0  0  0  0  0
    1.1010  -12.0280  -24.1020 C   0  0  0  0  0  3  0  0  0  0  0  0
    1.7320  -12.9590  -23.0790 C   0  0  0  0  0  2  0  0  0  0  0  0
    3.2090  -12.9500  -23.4370 C   0  0  0  0  0  2  0  0  0  0  0  0
    3.2340  -12.9590  -24.9510 C   0  0  0  0  0  2  0  0  0  0  0  0
    1.8980  -12.3710  -25.3860 C   0  0  0  0  0  2  0  0  0  0  0  0
    0.5670   -6.9370  -24.2600 N   0  0  0  0  0  0  0  0  0  0  0  0
    0.9960   -7.7670  -23.8570 H   0  0  0  0  0  0  0  0  0  0  0  0
    0.9370   -6.9470  -25.5990 C   0  0  0  0  0  0  0  0  0  0  0  0
    0.2720   -6.0230  -26.3100 N   0  0  0  0  0  0  0  0  0  0  0  0
    0.6920   -5.8250  -27.5560 C   0  0  0  0  0  3  0  0  0  0  0  0
    1.7030   -6.4600  -28.1590 N   0  0  0  0  0  0  0  0  0  0  0  0
    2.3300   -7.4430  -27.4770 C   0  0  0  0  0  0  0  0  0  0  0  0
    3.3930   -8.1800  -28.0400 C   0  0  0  0  0  0  0  0  0  0  0  0
    4.0110   -9.2300  -27.3330 C   0  0  0  0  0  3  0  0  0  0  0  0
    3.5710   -9.5810  -26.0660 C   0  0  0  0  0  3  0  0  0  0  0  0
    2.5340   -8.8560  -25.4880 C   0  0  0  0  0  3  0  0  0  0  0  0
    1.9340   -7.7640  -26.1630 C   0  0  0  0  0  0  0  0  0  0  0  0
    3.9450   -7.9130  -29.4070 C   0  0  0  0  0  0  0  0  0  0  0  0
    4.0320   -6.6180  -29.8280 N   0  0  0  0  0  0  0  0  0  0  0  0
    4.3140   -8.8200  -30.1410 O   0  0  0  0  0  0  0  0  0  0  0  0
    4.4140   -6.4270  -30.7430 H   0  0  0  0  0  0  0  0  0  0  0  0
    3.6840   -5.8580  -29.2510 H   0  0  0  0  0  0  0  0  0  0  0  0
  2  1  1  1  0  0  0
  2  3  1  0  0  0  0
  3  4  1  0  0  0  0
  4  5  2  0  0  0  0
  6  5  1  0  0  0  0
  7  6  2  0  0  0  0
  8  3  2  0  0  0  0
  8  7  1  0  0  0  0
  9  7  1  0  0  0  0
 10 13  1  0  0  0  0
 10  9  1  0  0  0  0
 11 10  2  0  0  0  0
 12  9  1  0  0  0  0
 13 14  1  0  0  0  0
 15 14  1  0  0  0  0
 16 15  1  0  0  0  0
 17 16  1  0  0  0  0
 17 13  1  0  0  0  0
 18 19  1  0  0  0  0
 18  2  1  0  0  0  0
 20 18  1  0  0  0  0
 21 20  2  0  0  0  0
 22 21  1  0  0  0  0
 23 22  2  0  0  0  0
 23 24  1  0  0  0  0
 24 29  1  0  0  0  0
 25 24  2  0  0  0  0
 25 26  1  0  0  0  0
 26 27  2  0  0  0  0
 27 28  1  0  0  0  0
 29 20  1  0  0  0  0
 29 28  2  0  0  0  0
 30 25  1  0  0  0  0
 31 30  1  0  0  0  0
 31 34  1  0  0  0  0
 32 30  2  0  0  0  0
 33 31  1  0  0  0  0
M  END
>  <minimizedAffinity>
-8.70632744

$$$$
