
 OpenBabel10152419553D

 34 37  0  0  1  0  0  0  0  0999 V2000
   -0.7090   -5.3240  -23.3390 C   0  0  0  0  0  1  0  0  0  0  0  0
   -0.1200   -6.6230  -23.9090 C   0  0  2  0  0  3  0  0  0  0  0  0
    0.4510   -6.4470  -25.3130 C   0  0  0  0  0  0  0  0  0  0  0  0
   -0.2440   -5.8350  -26.3620 C   0  0  0  0  0  3  0  0  0  0  0  0
    0.2060   -5.9750  -27.6780 C   0  0  0  0  0  3  0  0  0  0  0  0
    1.3240   -6.7640  -27.9670 C   0  0  0  0  0  3  0  0  0  0  0  0
    2.0750   -7.3070  -26.9360 C   0  0  0  0  0  0  0  0  0  0  0  0
    1.6610   -7.0890  -25.6180 C   0  0  0  0  0  3  0  0  0  0  0  0
    3.1090   -8.2330  -27.0920 N   0  0  0  0  0  0  0  0  0  0  0  0
    3.4370   -9.4250  -26.5520 C   0  0  0  0  0  0  0  0  0  0  0  0
    4.6430   -9.7100  -26.5990 O   0  0  0  0  0  0  0  0  0  0  0  0
    3.8950   -7.8970  -27.6390 H   0  0  0  0  0  0  0  0  0  0  0  0
    2.4610  -10.4670  -26.0260 C   0  0  0  0  0  3  0  0  0  0  0  0
    1.2200  -10.8840  -26.8000 C   0  0  0  0  0  2  0  0  0  0  0  0
    0.9060  -12.2730  -26.2680 C   0  0  0  0  0  2  0  0  0  0  0  0
    2.2590  -12.9350  -26.1090 C   0  0  0  0  0  2  0  0  0  0  0  0
    3.2570  -11.7950  -25.9510 C   0  0  0  0  0  2  0  0  0  0  0  0
   -1.1690   -7.6630  -23.8460 N   0  0  0  0  0  0  0  0  0  0  0  0
   -1.0430   -8.3700  -24.5670 H   0  0  0  0  0  0  0  0  0  0  0  0
   -1.4570   -8.3690  -22.6850 C   0  0  0  0  0  0  0  0  0  0  0  0
   -2.1880   -7.6450  -21.8250 N   0  0  0  0  0  0  0  0  0  0  0  0
   -2.6750   -8.2960  -20.7730 C   0  0  0  0  0  3  0  0  0  0  0  0
   -2.4980   -9.5920  -20.4950 N   0  0  0  0  0  0  0  0  0  0  0  0
   -1.7020  -10.3130  -21.3150 C   0  0  0  0  0  0  0  0  0  0  0  0
   -1.4420  -11.6810  -21.0890 C   0  0  0  0  0  0  0  0  0  0  0  0
   -0.5770  -12.4090  -21.9280 C   0  0  0  0  0  3  0  0  0  0  0  0
    0.0610  -11.7900  -22.9910 C   0  0  0  0  0  3  0  0  0  0  0  0
   -0.1940  -10.4450  -23.2390 C   0  0  0  0  0  3  0  0  0  0  0  0
   -1.1000   -9.7080  -22.4370 C   0  0  0  0  0  0  0  0  0  0  0  0
   -2.0530  -12.4580  -19.9630 C   0  0  0  0  0  0  0  0  0  0  0  0
   -3.4020  -12.6650  -19.9760 N   0  0  0  0  0  0  0  0  0  0  0  0
   -1.3750  -12.9050  -19.0470 O   0  0  0  0  0  0  0  0  0  0  0  0
   -3.8200  -13.1980  -19.2280 H   0  0  0  0  0  0  0  0  0  0  0  0
   -3.9840  -12.2580  -20.7020 H   0  0  0  0  0  0  0  0  0  0  0  0
  2 18  1  0  0  0  0
  2  1  1  6  0  0  0
  3  2  1  0  0  0  0
  4  3  2  0  0  0  0
  5  4  1  0  0  0  0
  6  5  2  0  0  0  0
  6  7  1  0  0  0  0
  7  8  2  0  0  0  0
  8  3  1  0  0  0  0
  9  7  1  0  0  0  0
  9 10  1  0  0  0  0
 10 13  1  0  0  0  0
 11 10  2  0  0  0  0
 12  9  1  0  0  0  0
 13 17  1  0  0  0  0
 14 15  1  0  0  0  0
 14 13  1  0  0  0  0
 15 16  1  0  0  0  0
 16 17  1  0  0  0  0
 18 20  1  0  0  0  0
 19 18  1  0  0  0  0
 20 29  2  0  0  0  0
 20 21  1  0  0  0  0
 21 22  2  0  0  0  0
 22 23  1  0  0  0  0
 24 25  1  0  0  0  0
 24 23  2  0  0  0  0
 25 30  1  0  0  0  0
 26 25  2  0  0  0  0
 27 26  1  0  0  0  0
 28 27  2  0  0  0  0
 28 29  1  0  0  0  0
 29 24  1  0  0  0  0
 30 32  2  0  0  0  0
 31 30  1  0  0  0  0
 31 33  1  0  0  0  0
 34 31  1  0  0  0  0
M  END
>  <minimizedAffinity>
-9.01451588

$$$$

 OpenBabel10152419553D

 34 37  0  0  1  0  0  0  0  0999 V2000
   -0.5240   -5.0950  -24.2120 C   0  0  0  0  0  1  0  0  0  0  0  0
   -0.0950   -6.4460  -24.8040 C   0  0  2  0  0  3  0  0  0  0  0  0
    0.8020   -6.2960  -26.0300 C   0  0  0  0  0  0  0  0  0  0  0  0
    0.4560   -5.5430  -27.1570 C   0  0  0  0  0  3  0  0  0  0  0  0
    1.1730   -5.6910  -28.3470 C   0  0  0  0  0  3  0  0  0  0  0  0
    2.2120   -6.6240  -28.4410 C   0  0  0  0  0  3  0  0  0  0  0  0
    2.6260   -7.3160  -27.3130 C   0  0  0  0  0  0  0  0  0  0  0  0
    1.9530   -7.0960  -26.1070 C   0  0  0  0  0  3  0  0  0  0  0  0
    3.5340   -8.3760  -27.3050 N   0  0  0  0  0  0  0  0  0  0  0  0
    3.5810   -9.6130  -26.7690 C   0  0  0  0  0  0  0  0  0  0  0  0
    4.7210  -10.0660  -26.5900 O   0  0  0  0  0  0  0  0  0  0  0  0
    4.4530   -8.1460  -27.6710 H   0  0  0  0  0  0  0  0  0  0  0  0
    2.3870  -10.5150  -26.4950 C   0  0  0  0  0  3  0  0  0  0  0  0
    2.1940  -11.8470  -27.2020 C   0  0  0  0  0  2  0  0  0  0  0  0
    1.3050  -12.6390  -26.2570 C   0  0  0  0  0  2  0  0  0  0  0  0
    1.8260  -12.3040  -24.8750 C   0  0  0  0  0  2  0  0  0  0  0  0
    2.5140  -10.9510  -25.0140 C   0  0  0  0  0  2  0  0  0  0  0  0
   -1.3180   -7.2280  -25.0860 N   0  0  0  0  0  0  0  0  0  0  0  0
   -1.5480   -7.2250  -26.0770 H   0  0  0  0  0  0  0  0  0  0  0  0
   -1.4750   -8.5470  -24.6770 C   0  0  0  0  0  0  0  0  0  0  0  0
   -1.4890   -9.3960  -25.7150 N   0  0  0  0  0  0  0  0  0  0  0  0
   -1.4420  -10.6910  -25.4170 C   0  0  0  0  0  3  0  0  0  0  0  0
   -1.3890  -11.2170  -24.1890 N   0  0  0  0  0  0  0  0  0  0  0  0
   -1.4500  -10.3740  -23.1350 C   0  0  0  0  0  0  0  0  0  0  0  0
   -1.4210  -10.8400  -21.8040 C   0  0  0  0  0  0  0  0  0  0  0  0
   -1.5270   -9.9520  -20.7160 C   0  0  0  0  0  3  0  0  0  0  0  0
   -1.6860   -8.5920  -20.9280 C   0  0  0  0  0  3  0  0  0  0  0  0
   -1.7020   -8.1110  -22.2330 C   0  0  0  0  0  3  0  0  0  0  0  0
   -1.5450   -8.9820  -23.3400 C   0  0  0  0  0  0  0  0  0  0  0  0
   -1.2750  -12.2860  -21.4430 C   0  0  0  0  0  0  0  0  0  0  0  0
   -0.1750  -12.9580  -21.8920 N   0  0  0  0  0  0  0  0  0  0  0  0
   -2.1090  -12.8680  -20.7620 O   0  0  0  0  0  0  0  0  0  0  0  0
   -0.0620  -13.9300  -21.6440 H   0  0  0  0  0  0  0  0  0  0  0  0
    0.5010  -12.5040  -22.4990 H   0  0  0  0  0  0  0  0  0  0  0  0
  2  1  1  6  0  0  0
  3  2  1  0  0  0  0
  4  3  2  0  0  0  0
  5  4  1  0  0  0  0
  6  5  2  0  0  0  0
  6  7  1  0  0  0  0
  7  9  1  0  0  0  0
  7  8  2  0  0  0  0
  8  3  1  0  0  0  0
  9 10  1  0  0  0  0
 10 11  2  0  0  0  0
 10 13  1  0  0  0  0
 12  9  1  0  0  0  0
 13 17  1  0  0  0  0
 14 13  1  0  0  0  0
 14 15  1  0  0  0  0
 15 16  1  0  0  0  0
 17 16  1  0  0  0  0
 18  2  1  0  0  0  0
 18 20  1  0  0  0  0
 19 18  1  0  0  0  0
 20 29  1  0  0  0  0
 21 22  1  0  0  0  0
 21 20  2  0  0  0  0
 22 23  2  0  0  0  0
 23 24  1  0  0  0  0
 24 25  1  0  0  0  0
 25 30  1  0  0  0  0
 25 26  2  0  0  0  0
 27 26  1  0  0  0  0
 28 27  2  0  0  0  0
 29 24  2  0  0  0  0
 29 28  1  0  0  0  0
 30 32  2  0  0  0  0
 31 33  1  0  0  0  0
 31 30  1  0  0  0  0
 34 31  1  0  0  0  0
M  END
>  <minimizedAffinity>
-8.99046898

$$$$

 OpenBabel10152419553D

 34 37  0  0  1  0  0  0  0  0999 V2000
    2.1190   -8.2300  -24.2700 C   0  0  0  0  0  1  0  0  0  0  0  0
    2.1980   -9.3170  -25.3510 C   0  0  2  0  0  3  0  0  0  0  0  0
    2.6750   -8.7790  -26.6970 C   0  0  0  0  0  0  0  0  0  0  0  0
    3.7330   -9.3340  -27.4240 C   0  0  0  0  0  3  0  0  0  0  0  0
    4.3080   -8.6240  -28.4820 C   0  0  0  0  0  3  0  0  0  0  0  0
    3.8650   -7.3340  -28.7960 C   0  0  0  0  0  3  0  0  0  0  0  0
    2.7640   -6.8010  -28.1450 C   0  0  0  0  0  0  0  0  0  0  0  0
    2.1450   -7.5580  -27.1440 C   0  0  0  0  0  3  0  0  0  0  0  0
    2.3230   -5.4800  -28.2520 N   0  0  0  0  0  0  0  0  0  0  0  0
    1.1320   -4.8470  -28.2260 C   0  0  0  0  0  0  0  0  0  0  0  0
    1.1060   -3.7540  -28.8120 O   0  0  0  0  0  0  0  0  0  0  0  0
    3.0340   -4.8240  -28.5590 H   0  0  0  0  0  0  0  0  0  0  0  0
   -0.1000   -5.2900  -27.4530 C   0  0  0  0  0  3  0  0  0  0  0  0
   -0.5160   -6.7500  -27.3510 C   0  0  0  0  0  2  0  0  0  0  0  0
   -1.3490   -6.8050  -26.0810 C   0  0  0  0  0  2  0  0  0  0  0  0
   -0.6230   -5.8980  -25.1090 C   0  0  0  0  0  2  0  0  0  0  0  0
    0.1730   -4.9270  -25.9720 C   0  0  0  0  0  2  0  0  0  0  0  0
    0.8740   -9.9700  -25.4360 N   0  0  0  0  0  0  0  0  0  0  0  0
    0.7550  -10.4680  -26.3170 H   0  0  0  0  0  0  0  0  0  0  0  0
    0.4010  -10.8370  -24.4590 C   0  0  0  0  0  0  0  0  0  0  0  0
    0.9470  -12.0570  -24.5630 N   0  0  0  0  0  0  0  0  0  0  0  0
    0.7060  -12.8980  -23.5620 C   0  0  0  0  0  3  0  0  0  0  0  0
   -0.0290  -12.6410  -22.4750 N   0  0  0  0  0  0  0  0  0  0  0  0
   -0.6450  -11.4410  -22.3960 C   0  0  0  0  0  0  0  0  0  0  0  0
   -1.4560  -11.0900  -21.2960 C   0  0  0  0  0  0  0  0  0  0  0  0
   -2.1250   -9.8510  -21.2470 C   0  0  0  0  0  3  0  0  0  0  0  0
   -2.0180   -8.9500  -22.2940 C   0  0  0  0  0  3  0  0  0  0  0  0
   -1.2110   -9.2710  -23.3800 C   0  0  0  0  0  3  0  0  0  0  0  0
   -0.4900  -10.4900  -23.4260 C   0  0  0  0  0  0  0  0  0  0  0  0
   -1.6690  -11.9840  -20.1130 C   0  0  0  0  0  0  0  0  0  0  0  0
   -0.5740  -12.5350  -19.5140 N   0  0  0  0  0  0  0  0  0  0  0  0
   -2.7880  -12.2240  -19.6800 O   0  0  0  0  0  0  0  0  0  0  0  0
   -0.7060  -13.1290  -18.7080 H   0  0  0  0  0  0  0  0  0  0  0  0
    0.3570  -12.3860  -19.8900 H   0  0  0  0  0  0  0  0  0  0  0  0
  2  1  1  1  0  0  0
  3  2  1  0  0  0  0
  4  3  2  0  0  0  0
  5  4  1  0  0  0  0
  6  5  2  0  0  0  0
  6  7  1  0  0  0  0
  7  8  2  0  0  0  0
  8  3  1  0  0  0  0
  9 10  1  0  0  0  0
  9  7  1  0  0  0  0
 10 13  1  0  0  0  0
 11 10  2  0  0  0  0
 12  9  1  0  0  0  0
 13 14  1  0  0  0  0
 13 17  1  0  0  0  0
 14 15  1  0  0  0  0
 15 16  1  0  0  0  0
 17 16  1  0  0  0  0
 18  2  1  0  0  0  0
 18 20  1  0  0  0  0
 19 18  1  0  0  0  0
 20 29  1  0  0  0  0
 21 20  2  0  0  0  0
 21 22  1  0  0  0  0
 22 23  2  0  0  0  0
 23 24  1  0  0  0  0
 24 25  1  0  0  0  0
 25 26  2  0  0  0  0
 25 30  1  0  0  0  0
 27 26  1  0  0  0  0
 28 27  2  0  0  0  0
 29 28  1  0  0  0  0
 29 24  2  0  0  0  0
 30 32  2  0  0  0  0
 30 31  1  0  0  0  0
 31 33  1  0  0  0  0
 34 31  1  0  0  0  0
M  END
>  <minimizedAffinity>
-8.87959194

$$$$

 OpenBabel10152419553D

 34 37  0  0  1  0  0  0  0  0999 V2000
   -0.5130  -11.1910  -25.6360 C   0  0  0  0  0  1  0  0  0  0  0  0
   -0.1070  -12.0120  -24.4030 C   0  0  2  0  0  3  0  0  0  0  0  0
   -0.6050  -11.4000  -23.0960 C   0  0  0  0  0  0  0  0  0  0  0  0
   -1.0910  -12.1530  -22.0230 C   0  0  0  0  0  3  0  0  0  0  0  0
   -1.8010  -11.5310  -20.9930 C   0  0  0  0  0  3  0  0  0  0  0  0
   -2.0760  -10.1600  -21.0450 C   0  0  0  0  0  3  0  0  0  0  0  0
   -1.5300   -9.3820  -22.0550 C   0  0  0  0  0  0  0  0  0  0  0  0
   -0.7500  -10.0050  -23.0350 C   0  0  0  0  0  3  0  0  0  0  0  0
   -1.8510   -8.0470  -22.3080 N   0  0  0  0  0  0  0  0  0  0  0  0
   -1.3530   -7.0550  -23.0740 C   0  0  0  0  0  0  0  0  0  0  0  0
   -1.6150   -5.9070  -22.6840 O   0  0  0  0  0  0  0  0  0  0  0  0
   -2.5430   -7.6530  -21.6770 H   0  0  0  0  0  0  0  0  0  0  0  0
   -0.6300   -7.2270  -24.4020 C   0  0  0  0  0  3  0  0  0  0  0  0
   -1.3640   -7.5710  -25.6890 C   0  0  0  0  0  2  0  0  0  0  0  0
   -0.4400   -7.0630  -26.7840 C   0  0  0  0  0  2  0  0  0  0  0  0
    0.0920   -5.7490  -26.2540 C   0  0  0  0  0  2  0  0  0  0  0  0
   -0.0210   -5.8430  -24.7380 C   0  0  0  0  0  2  0  0  0  0  0  0
    1.3620  -12.1770  -24.4310 N   0  0  0  0  0  0  0  0  0  0  0  0
    1.6390  -13.1280  -24.1960 H   0  0  0  0  0  0  0  0  0  0  0  0
    2.1350  -11.8320  -25.5330 C   0  0  0  0  0  0  0  0  0  0  0  0
    2.4110  -12.8940  -26.3040 N   0  0  0  0  0  0  0  0  0  0  0  0
    2.9800  -12.6370  -27.4780 C   0  0  0  0  0  3  0  0  0  0  0  0
    3.3020  -11.4290  -27.9520 N   0  0  0  0  0  0  0  0  0  0  0  0
    3.0960  -10.3590  -27.1520 C   0  0  0  0  0  0  0  0  0  0  0  0
    3.4240   -9.0490  -27.5600 C   0  0  0  0  0  0  0  0  0  0  0  0
    3.2420   -7.9490  -26.7000 C   0  0  0  0  0  3  0  0  0  0  0  0
    2.7520   -8.1310  -25.4160 C   0  0  0  0  0  3  0  0  0  0  0  0
    2.4100   -9.4130  -25.0010 C   0  0  0  0  0  3  0  0  0  0  0  0
    2.5370  -10.5260  -25.8680 C   0  0  0  0  0  0  0  0  0  0  0  0
    3.9790   -8.7240  -28.9120 C   0  0  0  0  0  0  0  0  0  0  0  0
    4.7220   -9.6730  -29.5530 N   0  0  0  0  0  0  0  0  0  0  0  0
    3.7810   -7.6420  -29.4470 O   0  0  0  0  0  0  0  0  0  0  0  0
    5.0900   -9.4680  -30.4700 H   0  0  0  0  0  0  0  0  0  0  0  0
    4.9370  -10.5580  -29.1020 H   0  0  0  0  0  0  0  0  0  0  0  0
  2  1  1  6  0  0  0
  2  3  1  0  0  0  0
  3  8  2  0  0  0  0
  3  4  1  0  0  0  0
  4  5  2  0  0  0  0
  6  5  1  0  0  0  0
  7  6  2  0  0  0  0
  8  7  1  0  0  0  0
  9  7  1  0  0  0  0
  9 12  1  0  0  0  0
 10 11  2  0  0  0  0
 10  9  1  0  0  0  0
 13 10  1  0  0  0  0
 14 13  1  0  0  0  0
 15 16  1  0  0  0  0
 15 14  1  0  0  0  0
 16 17  1  0  0  0  0
 17 13  1  0  0  0  0
 18  2  1  0  0  0  0
 18 19  1  0  0  0  0
 20 18  1  0  0  0  0
 21 20  2  0  0  0  0
 22 21  1  0  0  0  0
 23 22  2  0  0  0  0
 23 24  1  0  0  0  0
 24 29  1  0  0  0  0
 25 24  2  0  0  0  0
 25 26  1  0  0  0  0
 26 27  2  0  0  0  0
 27 28  1  0  0  0  0
 29 20  1  0  0  0  0
 29 28  2  0  0  0  0
 30 25  1  0  0  0  0
 31 34  1  0  0  0  0
 31 30  1  0  0  0  0
 32 30  2  0  0  0  0
 33 31  1  0  0  0  0
M  END
>  <minimizedAffinity>
-8.81958389

$$$$

 OpenBabel10152419553D

 34 37  0  0  1  0  0  0  0  0999 V2000
    2.2910  -12.0400  -23.5940 C   0  0  0  0  0  1  0  0  0  0  0  0
    1.7530  -12.7650  -24.8360 C   0  0  2  0  0  3  0  0  0  0  0  0
    2.2910  -12.1830  -26.1400 C   0  0  0  0  0  0  0  0  0  0  0  0
    2.6500  -12.9600  -27.2460 C   0  0  0  0  0  3  0  0  0  0  0  0
    3.4080  -12.4010  -28.2800 C   0  0  0  0  0  3  0  0  0  0  0  0
    3.8550  -11.0780  -28.1990 C   0  0  0  0  0  3  0  0  0  0  0  0
    3.4380  -10.2680  -27.1550 C   0  0  0  0  0  0  0  0  0  0  0  0
    2.6100  -10.8160  -26.1700 C   0  0  0  0  0  3  0  0  0  0  0  0
    3.9320   -8.9920  -26.8760 N   0  0  0  0  0  0  0  0  0  0  0  0
    3.5780   -7.7250  -27.1760 C   0  0  0  0  0  0  0  0  0  0  0  0
    4.5040   -6.8990  -27.1470 O   0  0  0  0  0  0  0  0  0  0  0  0
    4.8580   -8.9800  -26.4620 H   0  0  0  0  0  0  0  0  0  0  0  0
    2.1610   -7.2230  -27.4100 C   0  0  0  0  0  3  0  0  0  0  0  0
    1.3820   -6.4610  -26.3500 C   0  0  0  0  0  2  0  0  0  0  0  0
    0.3580   -5.6680  -27.1470 C   0  0  0  0  0  2  0  0  0  0  0  0
    1.1140   -5.1940  -28.3710 C   0  0  0  0  0  2  0  0  0  0  0  0
    2.2620   -6.1790  -28.5510 C   0  0  0  0  0  2  0  0  0  0  0  0
    0.2750  -12.7440  -24.7700 N   0  0  0  0  0  0  0  0  0  0  0  0
   -0.1060  -13.6650  -24.5650 H   0  0  0  0  0  0  0  0  0  0  0  0
   -0.4260  -11.8660  -23.9530 C   0  0  0  0  0  0  0  0  0  0  0  0
   -0.5710  -12.3460  -22.7090 N   0  0  0  0  0  0  0  0  0  0  0  0
   -1.0580  -11.5010  -21.8050 C   0  0  0  0  0  3  0  0  0  0  0  0
   -1.4170  -10.2320  -22.0230 N   0  0  0  0  0  0  0  0  0  0  0  0
   -1.3450   -9.7620  -23.2880 C   0  0  0  0  0  0  0  0  0  0  0  0
   -1.7210   -8.4430  -23.6160 C   0  0  0  0  0  0  0  0  0  0  0  0
   -1.6800   -7.9790  -24.9450 C   0  0  0  0  0  3  0  0  0  0  0  0
   -1.2850   -8.8200  -25.9730 C   0  0  0  0  0  3  0  0  0  0  0  0
   -0.8960  -10.1200  -25.6680 C   0  0  0  0  0  3  0  0  0  0  0  0
   -0.8820  -10.5900  -24.3310 C   0  0  0  0  0  0  0  0  0  0  0  0
   -2.1840   -7.4440  -22.6000 C   0  0  0  0  0  0  0  0  0  0  0  0
   -3.1320   -7.8310  -21.6970 N   0  0  0  0  0  0  0  0  0  0  0  0
   -1.7360   -6.3060  -22.5650 O   0  0  0  0  0  0  0  0  0  0  0  0
   -3.4410   -7.1680  -21.0010 H   0  0  0  0  0  0  0  0  0  0  0  0
   -3.5500   -8.7550  -21.7440 H   0  0  0  0  0  0  0  0  0  0  0  0
  2 18  1  0  0  0  0
  2  1  1  1  0  0  0
  3  2  1  0  0  0  0
  4  3  2  0  0  0  0
  5  6  2  0  0  0  0
  5  4  1  0  0  0  0
  6  7  1  0  0  0  0
  7  9  1  0  0  0  0
  7  8  2  0  0  0  0
  8  3  1  0  0  0  0
  9 12  1  0  0  0  0
 10 11  2  0  0  0  0
 10  9  1  0  0  0  0
 13 10  1  0  0  0  0
 13 14  1  0  0  0  0
 15 14  1  0  0  0  0
 16 15  1  0  0  0  0
 17 16  1  0  0  0  0
 17 13  1  0  0  0  0
 18 19  1  0  0  0  0
 18 20  1  0  0  0  0
 20 21  1  0  0  0  0
 21 22  2  0  0  0  0
 23 22  1  0  0  0  0
 24 23  2  0  0  0  0
 25 24  1  0  0  0  0
 25 30  1  0  0  0  0
 26 25  2  0  0  0  0
 27 28  2  0  0  0  0
 27 26  1  0  0  0  0
 28 29  1  0  0  0  0
 29 20  2  0  0  0  0
 29 24  1  0  0  0  0
 30 32  2  0  0  0  0
 30 31  1  0  0  0  0
 31 33  1  0  0  0  0
 34 31  1  0  0  0  0
M  END
>  <minimizedAffinity>
-8.76424122

$$$$

 OpenBabel10152419553D

 34 37  0  0  1  0  0  0  0  0999 V2000
   -0.9370   -5.4610  -23.0350 C   0  0  0  0  0  1  0  0  0  0  0  0
   -0.8360   -6.7760  -23.8210 C   0  0  2  0  0  3  0  0  0  0  0  0
   -1.3450   -7.9780  -23.0290 C   0  0  0  0  0  0  0  0  0  0  0  0
   -1.5010   -7.9820  -21.6400 C   0  0  0  0  0  3  0  0  0  0  0  0
   -1.6770   -9.1880  -20.9560 C   0  0  0  0  0  3  0  0  0  0  0  0
   -1.6530  -10.4060  -21.6450 C   0  0  0  0  0  3  0  0  0  0  0  0
   -1.5860  -10.4180  -23.0290 C   0  0  0  0  0  0  0  0  0  0  0  0
   -1.4950   -9.1980  -23.7080 C   0  0  0  0  0  3  0  0  0  0  0  0
   -1.3980  -11.5550  -23.8180 N   0  0  0  0  0  0  0  0  0  0  0  0
   -0.3680  -12.1160  -24.4860 C   0  0  0  0  0  0  0  0  0  0  0  0
   -0.6920  -12.8480  -25.4340 O   0  0  0  0  0  0  0  0  0  0  0  0
   -2.2550  -12.0280  -24.0870 H   0  0  0  0  0  0  0  0  0  0  0  0
    1.1010  -12.0280  -24.1020 C   0  0  0  0  0  3  0  0  0  0  0  0
    1.7320  -12.9590  -23.0790 C   0  0  0  0  0  2  0  0  0  0  0  0
    3.2090  -12.9500  -23.4370 C   0  0  0  0  0  2  0  0  0  0  0  0
    3.2340  -12.9590  -24.9510 C   0  0  0  0  0  2  0  0  0  0  0  0
    1.8980  -12.3710  -25.3860 C   0  0  0  0  0  2  0  0  0  0  0  0
    0.5670   -6.9370  -24.2600 N   0  0  0  0  0  0  0  0  0  0  0  0
    0.9960   -7.7670  -23.8570 H   0  0  0  0  0  0  0  0  0  0  0  0
    0.9370   -6.9470  -25.5990 C   0  0  0  0  0  0  0  0  0  0  0  0
    0.2720   -6.0230  -26.3100 N   0  0  0  0  0  0  0  0  0  0  0  0
    0.6920   -5.8250  -27.5560 C   0  0  0  0  0  3  0  0  0  0  0  0
    1.7030   -6.4600  -28.1590 N   0  0  0  0  0  0  0  0  0  0  0  0
    2.3300   -7.4430  -27.4770 C   0  0  0  0  0  0  0  0  0  0  0  0
    3.3930   -8.1800  -28.0400 C   0  0  0  0  0  0  0  0  0  0  0  0
    4.0110   -9.2300  -27.3330 C   0  0  0  0  0  3  0  0  0  0  0  0
    3.5710   -9.5810  -26.0660 C   0  0  0  0  0  3  0  0  0  0  0  0
    2.5340   -8.8560  -25.4880 C   0  0  0  0  0  3  0  0  0  0  0  0
    1.9340   -7.7640  -26.1630 C   0  0  0  0  0  0  0  0  0  0  0  0
    3.9450   -7.9130  -29.4070 C   0  0  0  0  0  0  0  0  0  0  0  0
    4.0320   -6.6180  -29.8280 N   0  0  0  0  0  0  0  0  0  0  0  0
    4.3140   -8.8200  -30.1410 O   0  0  0  0  0  0  0  0  0  0  0  0
    4.4140   -6.4270  -30.7430 H   0  0  0  0  0  0  0  0  0  0  0  0
    3.6840   -5.8580  -29.2510 H   0  0  0  0  0  0  0  0  0  0  0  0
  2  1  1  1  0  0  0
  2  3  1  0  0  0  0
  3  4  1  0  0  0  0
  4  5  2  0  0  0  0
  6  5  1  0  0  0  0
  7  6  2  0  0  0  0
  8  3  2  0  0  0  0
  8  7  1  0  0  0  0
  9  7  1  0  0  0  0
 10 13  1  0  0  0  0
 10  9  1  0  0  0  0
 11 10  2  0  0  0  0
 12  9  1  0  0  0  0
 13 14  1  0  0  0  0
 15 14  1  0  0  0  0
 16 15  1  0  0  0  0
 17 16  1  0  0  0  0
 17 13  1  0  0  0  0
 18 19  1  0  0  0  0
 18  2  1  0  0  0  0
 20 18  1  0  0  0  0
 21 20  2  0  0  0  0
 22 21  1  0  0  0  0
 23 22  2  0  0  0  0
 23 24  1  0  0  0  0
 24 29  1  0  0  0  0
 25 24  2  0  0  0  0
 25 26  1  0  0  0  0
 26 27  2  0  0  0  0
 27 28  1  0  0  0  0
 29 20  1  0  0  0  0
 29 28  2  0  0  0  0
 30 25  1  0  0  0  0
 31 30  1  0  0  0  0
 31 34  1  0  0  0  0
 32 30  2  0  0  0  0
 33 31  1  0  0  0  0
M  END
>  <minimizedAffinity>
-8.70632744

$$$$

 OpenBabel10152419553D

 34 37  0  0  1  0  0  0  0  0999 V2000
    0.0030   -5.7250  -23.9690 C   0  0  0  0  0  1  0  0  0  0  0  0
    0.3610   -7.2120  -24.1080 C   0  0  2  0  0  3  0  0  0  0  0  0
    1.2030   -7.5040  -25.3470 C   0  0  0  0  0  0  0  0  0  0  0  0
    2.2660   -8.4130  -25.3670 C   0  0  0  0  0  3  0  0  0  0  0  0
    3.1730   -8.4100  -26.4310 C   0  0  0  0  0  3  0  0  0  0  0  0
    3.0560   -7.4710  -27.4610 C   0  0  0  0  0  3  0  0  0  0  0  0
    1.9630   -6.6210  -27.5050 C   0  0  0  0  0  0  0  0  0  0  0  0
    1.0170   -6.6910  -26.4770 C   0  0  0  0  0  3  0  0  0  0  0  0
    1.8110   -5.5450  -28.3820 N   0  0  0  0  0  0  0  0  0  0  0  0
    1.0660   -4.4210  -28.4230 C   0  0  0  0  0  0  0  0  0  0  0  0
    0.8660   -3.9640  -29.5580 O   0  0  0  0  0  0  0  0  0  0  0  0
    2.2550   -5.6730  -29.2860 H   0  0  0  0  0  0  0  0  0  0  0  0
    0.5800   -3.6260  -27.2200 C   0  0  0  0  0  3  0  0  0  0  0  0
    0.3530   -2.1230  -27.2760 C   0  0  0  0  0  2  0  0  0  0  0  0
   -0.6480   -1.8620  -26.1620 C   0  0  0  0  0  2  0  0  0  0  0  0
   -1.6140   -3.0260  -26.2370 C   0  0  0  0  0  2  0  0  0  0  0  0
   -0.8420   -4.1560  -26.9070 C   0  0  0  0  0  2  0  0  0  0  0  0
   -0.8980   -7.9880  -24.0790 N   0  0  0  0  0  0  0  0  0  0  0  0
   -0.9310   -8.6810  -24.8230 H   0  0  0  0  0  0  0  0  0  0  0  0
   -1.3450   -8.6490  -22.9420 C   0  0  0  0  0  0  0  0  0  0  0  0
   -2.1320   -7.8700  -22.1860 N   0  0  0  0  0  0  0  0  0  0  0  0
   -2.7630   -8.4690  -21.1800 C   0  0  0  0  0  3  0  0  0  0  0  0
   -2.6790   -9.7640  -20.8550 N   0  0  0  0  0  0  0  0  0  0  0  0
   -1.8310  -10.5410  -21.5640 C   0  0  0  0  0  0  0  0  0  0  0  0
   -1.6620  -11.9120  -21.2800 C   0  0  0  0  0  0  0  0  0  0  0  0
   -0.7440  -12.7010  -22.0000 C   0  0  0  0  0  3  0  0  0  0  0  0
    0.0360  -12.1400  -22.9990 C   0  0  0  0  0  3  0  0  0  0  0  0
   -0.1260  -10.7930  -23.3040 C   0  0  0  0  0  3  0  0  0  0  0  0
   -1.0810   -9.9950  -22.6250 C   0  0  0  0  0  0  0  0  0  0  0  0
   -2.4300  -12.6310  -20.2120 C   0  0  0  0  0  0  0  0  0  0  0  0
   -1.7810  -12.9580  -19.0570 N   0  0  0  0  0  0  0  0  0  0  0  0
   -3.6090  -12.9250  -20.3540 O   0  0  0  0  0  0  0  0  0  0  0  0
   -2.2930  -13.4310  -18.3280 H   0  0  0  0  0  0  0  0  0  0  0  0
   -0.7900  -12.7650  -18.9440 H   0  0  0  0  0  0  0  0  0  0  0  0
  2 18  1  0  0  0  0
  2  1  1  6  0  0  0
  3  2  1  0  0  0  0
  4  3  1  0  0  0  0
  5  4  2  0  0  0  0
  6  5  1  0  0  0  0
  7  6  2  0  0  0  0
  7  8  1  0  0  0  0
  8  3  2  0  0  0  0
  9  7  1  0  0  0  0
 10  9  1  0  0  0  0
 10 13  1  0  0  0  0
 11 10  2  0  0  0  0
 12  9  1  0  0  0  0
 13 17  1  0  0  0  0
 14 13  1  0  0  0  0
 14 15  1  0  0  0  0
 16 15  1  0  0  0  0
 17 16  1  0  0  0  0
 18 20  1  0  0  0  0
 19 18  1  0  0  0  0
 20 29  2  0  0  0  0
 20 21  1  0  0  0  0
 21 22  2  0  0  0  0
 22 23  1  0  0  0  0
 24 25  1  0  0  0  0
 24 23  2  0  0  0  0
 25 30  1  0  0  0  0
 26 25  2  0  0  0  0
 27 26  1  0  0  0  0
 28 27  2  0  0  0  0
 28 29  1  0  0  0  0
 29 24  1  0  0  0  0
 30 31  1  0  0  0  0
 31 34  1  0  0  0  0
 31 33  1  0  0  0  0
 32 30  2  0  0  0  0
M  END
>  <minimizedAffinity>
-8.49563026

$$$$

 OpenBabel10152419553D

 34 37  0  0  1  0  0  0  0  0999 V2000
   -0.0290   -9.6910  -26.5110 C   0  0  0  0  0  1  0  0  0  0  0  0
    1.3910   -9.8080  -25.9380 C   0  0  2  0  0  3  0  0  0  0  0  0
    1.4860  -10.8140  -24.7940 C   0  0  0  0  0  0  0  0  0  0  0  0
    2.4330  -11.8420  -24.7420 C   0  0  0  0  0  3  0  0  0  0  0  0
    2.2770  -12.8950  -23.8350 C   0  0  0  0  0  3  0  0  0  0  0  0
    1.1520  -12.9580  -23.0060 C   0  0  0  0  0  3  0  0  0  0  0  0
    0.2480  -11.9070  -22.9820 C   0  0  0  0  0  0  0  0  0  0  0  0
    0.4610  -10.8190  -23.8340 C   0  0  0  0  0  3  0  0  0  0  0  0
   -0.9840  -11.9170  -22.3240 N   0  0  0  0  0  0  0  0  0  0  0  0
   -1.6900  -11.0500  -21.5690 C   0  0  0  0  0  0  0  0  0  0  0  0
   -2.5030  -11.5720  -20.7910 O   0  0  0  0  0  0  0  0  0  0  0  0
   -1.4230  -12.8300  -22.2660 H   0  0  0  0  0  0  0  0  0  0  0  0
   -1.6610   -9.5340  -21.6840 C   0  0  0  0  0  3  0  0  0  0  0  0
   -2.6470   -8.7650  -22.5500 C   0  0  0  0  0  2  0  0  0  0  0  0
   -2.6710   -7.3760  -21.9320 C   0  0  0  0  0  2  0  0  0  0  0  0
   -2.6280   -7.6230  -20.4380 C   0  0  0  0  0  2  0  0  0  0  0  0
   -1.9840   -8.9930  -20.2680 C   0  0  0  0  0  2  0  0  0  0  0  0
    1.8360   -8.4540  -25.5440 N   0  0  0  0  0  0  0  0  0  0  0  0
    2.6290   -8.1400  -26.0990 H   0  0  0  0  0  0  0  0  0  0  0  0
    0.9720   -7.3670  -25.4930 C   0  0  0  0  0  0  0  0  0  0  0  0
    0.2690   -7.3370  -24.3510 N   0  0  0  0  0  0  0  0  0  0  0  0
   -0.4410   -6.2360  -24.1250 C   0  0  0  0  0  3  0  0  0  0  0  0
   -0.5200   -5.1690  -24.9270 N   0  0  0  0  0  0  0  0  0  0  0  0
    0.1240   -5.2190  -26.1140 C   0  0  0  0  0  0  0  0  0  0  0  0
    0.0790   -4.1500  -27.0320 C   0  0  0  0  0  0  0  0  0  0  0  0
    0.7210   -4.2330  -28.2830 C   0  0  0  0  0  3  0  0  0  0  0  0
    1.4000   -5.3840  -28.6530 C   0  0  0  0  0  3  0  0  0  0  0  0
    1.4670   -6.4440  -27.7550 C   0  0  0  0  0  3  0  0  0  0  0  0
    0.8710   -6.3600  -26.4710 C   0  0  0  0  0  0  0  0  0  0  0  0
   -0.6370   -2.8620  -26.7610 C   0  0  0  0  0  0  0  0  0  0  0  0
   -0.0480   -1.6980  -27.1600 N   0  0  0  0  0  0  0  0  0  0  0  0
   -1.7220   -2.8360  -26.1970 O   0  0  0  0  0  0  0  0  0  0  0  0
   -0.5290   -0.8260  -26.9930 H   0  0  0  0  0  0  0  0  0  0  0  0
    0.8740   -1.6990  -27.5840 H   0  0  0  0  0  0  0  0  0  0  0  0
  2  1  1  1  0  0  0
  2 18  1  0  0  0  0
  2  3  1  0  0  0  0
  3  4  2  0  0  0  0
  3  8  1  0  0  0  0
  4  5  1  0  0  0  0
  5  6  2  0  0  0  0
  6  7  1  0  0  0  0
  7  9  1  0  0  0  0
  8  7  2  0  0  0  0
  9 12  1  0  0  0  0
  9 10  1  0  0  0  0
 10 11  2  0  0  0  0
 13 10  1  0  0  0  0
 13 17  1  0  0  0  0
 14 15  1  0  0  0  0
 14 13  1  0  0  0  0
 15 16  1  0  0  0  0
 16 17  1  0  0  0  0
 18 20  1  0  0  0  0
 19 18  1  0  0  0  0
 20 21  1  0  0  0  0
 21 22  2  0  0  0  0
 23 22  1  0  0  0  0
 24 23  2  0  0  0  0
 25 30  1  0  0  0  0
 25 24  1  0  0  0  0
 26 25  2  0  0  0  0
 27 26  1  0  0  0  0
 27 28  2  0  0  0  0
 28 29  1  0  0  0  0
 29 24  1  0  0  0  0
 29 20  2  0  0  0  0
 30 32  2  0  0  0  0
 31 33  1  0  0  0  0
 31 30  1  0  0  0  0
 34 31  1  0  0  0  0
M  END
>  <minimizedAffinity>
-8.07928467

$$$$

 OpenBabel10152419553D

 34 37  0  0  1  0  0  0  0  0999 V2000
   -0.6970   -5.2860  -23.9530 C   0  0  0  0  0  1  0  0  0  0  0  0
   -0.0230   -6.6630  -24.0480 C   0  0  2  0  0  3  0  0  0  0  0  0
    0.8700   -6.8000  -25.2780 C   0  0  0  0  0  0  0  0  0  0  0  0
    0.5510   -6.2670  -26.5310 C   0  0  0  0  0  3  0  0  0  0  0  0
    1.2500   -6.6810  -27.6690 C   0  0  0  0  0  3  0  0  0  0  0  0
    2.2410   -7.6640  -27.5760 C   0  0  0  0  0  3  0  0  0  0  0  0
    2.6310   -8.1410  -26.3340 C   0  0  0  0  0  0  0  0  0  0  0  0
    1.9800   -7.6560  -25.1950 C   0  0  0  0  0  3  0  0  0  0  0  0
    3.4860   -9.2230  -26.1170 N   0  0  0  0  0  0  0  0  0  0  0  0
    4.1390  -10.1170  -26.8880 C   0  0  0  0  0  0  0  0  0  0  0  0
    4.4150  -11.1900  -26.3300 O   0  0  0  0  0  0  0  0  0  0  0  0
    3.5490   -9.5220  -25.1490 H   0  0  0  0  0  0  0  0  0  0  0  0
    4.6580   -9.8730  -28.2970 C   0  0  0  0  0  3  0  0  0  0  0  0
    3.8820  -10.2980  -29.5350 C   0  0  0  0  0  2  0  0  0  0  0  0
    4.4040   -9.3780  -30.6270 C   0  0  0  0  0  2  0  0  0  0  0  0
    4.5560   -8.0320  -29.9510 C   0  0  0  0  0  2  0  0  0  0  0  0
    4.7210   -8.3350  -28.4670 C   0  0  0  0  0  2  0  0  0  0  0  0
   -1.0830   -7.6930  -23.9950 N   0  0  0  0  0  0  0  0  0  0  0  0
   -0.9530   -8.4050  -24.7110 H   0  0  0  0  0  0  0  0  0  0  0  0
   -1.3930   -8.3910  -22.8350 C   0  0  0  0  0  0  0  0  0  0  0  0
   -2.1320   -7.6580  -21.9900 N   0  0  0  0  0  0  0  0  0  0  0  0
   -2.6390   -8.3000  -20.9420 C   0  0  0  0  0  3  0  0  0  0  0  0
   -2.4760   -9.5950  -20.6540 N   0  0  0  0  0  0  0  0  0  0  0  0
   -1.6720  -10.3260  -21.4580 C   0  0  0  0  0  0  0  0  0  0  0  0
   -1.4250  -11.6940  -21.2220 C   0  0  0  0  0  0  0  0  0  0  0  0
   -0.5520  -12.4330  -22.0440 C   0  0  0  0  0  3  0  0  0  0  0  0
    0.1060  -11.8240  -23.1010 C   0  0  0  0  0  3  0  0  0  0  0  0
   -0.1360  -10.4790  -23.3590 C   0  0  0  0  0  3  0  0  0  0  0  0
   -1.0490   -9.7310  -22.5750 C   0  0  0  0  0  0  0  0  0  0  0  0
   -2.0580  -12.4620  -20.1020 C   0  0  0  0  0  0  0  0  0  0  0  0
   -3.3670  -12.8260  -20.2250 N   0  0  0  0  0  0  0  0  0  0  0  0
   -1.4320  -12.7650  -19.0950 O   0  0  0  0  0  0  0  0  0  0  0  0
   -3.7990  -13.3530  -19.4810 H   0  0  0  0  0  0  0  0  0  0  0  0
   -3.9140  -12.5390  -21.0320 H   0  0  0  0  0  0  0  0  0  0  0  0
  2 18  1  0  0  0  0
  2  1  1  6  0  0  0
  3  8  1  0  0  0  0
  3  2  1  0  0  0  0
  4  3  2  0  0  0  0
  5  6  2  0  0  0  0
  5  4  1  0  0  0  0
  6  7  1  0  0  0  0
  7  9  1  0  0  0  0
  7  8  2  0  0  0  0
  9 12  1  0  0  0  0
 10 11  2  0  0  0  0
 10  9  1  0  0  0  0
 13 10  1  0  0  0  0
 14 13  1  0  0  0  0
 15 16  1  0  0  0  0
 15 14  1  0  0  0  0
 16 17  1  0  0  0  0
 17 13  1  0  0  0  0
 18 20  1  0  0  0  0
 19 18  1  0  0  0  0
 20 29  2  0  0  0  0
 20 21  1  0  0  0  0
 21 22  2  0  0  0  0
 22 23  1  0  0  0  0
 24 25  1  0  0  0  0
 24 23  2  0  0  0  0
 25 30  1  0  0  0  0
 26 25  2  0  0  0  0
 27 26  1  0  0  0  0
 28 27  2  0  0  0  0
 28 29  1  0  0  0  0
 29 24  1  0  0  0  0
 30 32  2  0  0  0  0
 31 30  1  0  0  0  0
 31 33  1  0  0  0  0
 34 31  1  0  0  0  0
M  END
>  <minimizedAffinity>
-8.0545578

$$$$
