
 OpenBabel11232420433D

 41 46  0  0  1  0  0  0  0  0999 V2000
  -13.7540   34.2730    9.6830 C   0  0  0  0  0  0  0  0  0  0  0  0
  -13.4140   35.2790   10.5970 C   0  0  0  0  0  3  0  0  0  0  0  0
  -13.9630   35.2680   11.8820 C   0  0  0  0  0  3  0  0  0  0  0  0
  -14.8720   34.2730   12.2360 C   0  0  0  0  0  0  0  0  0  0  0  0
  -15.2220   33.2760   11.3180 C   0  0  0  0  0  0  0  0  0  0  0  0
  -14.6710   33.2780   10.0370 C   0  0  0  0  0  3  0  0  0  0  0  0
  -16.1420   32.2570   11.7630 C   0  0  0  0  0  0  0  0  0  0  0  0
  -16.4970   31.1310   11.1880 N   0  0  0  0  0  0  0  0  0  0  0  0
  -17.3950   30.5370   12.0530 C   0  0  0  0  0  0  0  0  0  0  0  0
  -17.5940   31.3280   13.1810 C   0  0  0  0  0  0  0  0  0  0  0  0
  -16.7710   32.4100   12.9650 N   0  0  0  0  0  0  0  0  0  0  0  0
  -16.5930   33.6030   13.7720 C   0  0  0  0  0  2  0  0  0  0  0  0
  -15.3480   34.2900   13.5230 O   0  0  0  0  0  0  0  0  0  0  0  0
  -18.3910   31.1530   14.3880 C   0  0  0  0  0  0  0  0  0  0  0  0
  -17.8400   30.5400   15.5200 C   0  0  0  0  0  3  0  0  0  0  0  0
  -18.6090   30.3670   16.6710 C   0  0  0  0  0  3  0  0  0  0  0  0
  -19.9330   30.8050   16.6970 C   0  0  0  0  0  3  0  0  0  0  0  0
  -20.4870   31.4180   15.5740 C   0  0  0  0  0  3  0  0  0  0  0  0
  -19.7190   31.5940   14.4230 C   0  0  0  0  0  3  0  0  0  0  0  0
  -17.9920   29.2500   11.7330 C   0  0  0  0  0  0  0  0  0  0  0  0
  -17.2560   28.0680   11.6480 C   0  0  0  0  0  3  0  0  0  0  0  0
  -17.8910   26.8470   11.3780 C   0  0  0  0  0  3  0  0  0  0  0  0
  -19.2860   26.7500   11.1900 C   0  0  0  0  0  0  0  0  0  0  0  0
  -20.0070   27.9570   11.2800 C   0  0  0  0  0  3  0  0  0  0  0  0
  -19.3760   29.1770   11.5480 C   0  0  0  0  0  3  0  0  0  0  0  0
  -20.0050   25.3700   10.9470 C   0  0  1  0  0  0  0  0  0  0  0  0
  -19.2980   24.2650   10.1040 C   0  0  0  0  0  2  0  0  0  0  0  0
  -20.0620   23.2240   10.9780 C   0  0  1  0  0  0  0  0  0  0  0  0
  -19.3000   21.9450   11.2710 C   0  0  0  0  0  1  0  0  0  0  0  0
  -20.0570   24.3110   12.0940 C   0  0  0  0  0  2  0  0  0  0  0  0
  -21.3610   25.6590   10.4110 N   0  0  0  0  0  4  0  0  0  0  0  0
  -21.9310   26.2020   11.0680 H   0  0  0  0  0  0  0  0  0  0  0  0
  -21.3190   26.1850    9.5300 H   0  0  0  0  0  0  0  0  0  0  0  0
  -21.8610   24.7690   10.2180 H   0  0  0  0  0  0  0  0  0  0  0  0
  -21.3970   22.9390   10.4780 O   0  0  0  0  0  0  0  0  0  0  0  0
  -21.6150   22.0360   10.7910 H   0  0  0  0  0  0  0  0  0  0  0  0
  -11.4650   32.5020    8.8170 C   0  0  0  0  0  1  0  0  0  0  0  0
  -12.1150   33.5030    8.0040 N   0  0  0  0  0  0  0  0  0  0  0  0
  -13.2120   34.2680    8.3070 C   0  0  0  0  0  0  0  0  0  0  0  0
  -13.7620   34.9400    7.4400 O   0  0  0  0  0  0  0  0  0  0  0  0
  -11.8040   33.6140    7.0450 H   0  0  0  0  0  0  0  0  0  0  0  0
  1  6  2  0  0  0  0
  1  2  1  0  0  0  0
  2  3  2  0  0  0  0
  3  4  1  0  0  0  0
  4 13  1  0  0  0  0
  5  7  1  0  0  0  0
  5  4  2  0  0  0  0
  6  5  1  0  0  0  0
  7 11  1  0  0  0  0
  8  7  2  0  0  0  0
  8  9  1  0  0  0  0
  9 10  2  0  0  0  0
 10 14  1  0  0  0  0
 11 10  1  0  0  0  0
 11 12  1  0  0  0  0
 13 12  1  0  0  0  0
 14 19  2  0  0  0  0
 14 15  1  0  0  0  0
 15 16  2  0  0  0  0
 16 17  1  0  0  0  0
 18 17  2  0  0  0  0
 19 18  1  0  0  0  0
 20  9  1  0  0  0  0
 21 20  1  0  0  0  0
 22 21  2  0  0  0  0
 23 24  2  0  0  0  0
 23 22  1  0  0  0  0
 24 25  1  0  0  0  0
 25 20  2  0  0  0  0
 26 31  1  6  0  0  0
 26 23  1  0  0  0  0
 26 30  1  0  0  0  0
 27 26  1  0  0  0  0
 27 28  1  0  0  0  0
 28 29  1  1  0  0  0
 28 30  1  0  0  0  0
 31 32  1  0  0  0  0
 33 31  1  0  0  0  0
 34 31  1  0  0  0  0
 35 36  1  0  0  0  0
 35 28  1  0  0  0  0
 38 39  1  0  0  0  0
 38 37  1  0  0  0  0
 39  1  1  0  0  0  0
 40 39  2  0  0  0  0
 41 38  1  0  0  0  0
M  END
>  <minimizedAffinity>
-10.3236847

$$$$
