
 OpenBabel11232420433D

 41 46  0  0  1  0  0  0  0  0999 V2000
  -21.8700   16.9380   14.8000 C   0  0  0  0  0  0  0  0  0  0  0  0
  -21.6080   15.6340   14.3600 C   0  0  0  0  0  3  0  0  0  0  0  0
  -20.8800   15.4290   13.1850 C   0  0  0  0  0  3  0  0  0  0  0  0
  -20.4470   16.5230   12.4390 C   0  0  0  0  0  0  0  0  0  0  0  0
  -20.7210   17.8260   12.8720 C   0  0  0  0  0  0  0  0  0  0  0  0
  -21.4410   18.0370   14.0480 C   0  0  0  0  0  3  0  0  0  0  0  0
  -20.2130   18.9130   12.0700 C   0  0  0  0  0  0  0  0  0  0  0  0
  -20.1670   20.2000   12.3260 N   0  0  0  0  0  0  0  0  0  0  0  0
  -19.5720   20.7780   11.2210 C   0  0  0  0  0  0  0  0  0  0  0  0
  -19.2530   19.8150   10.2680 C   0  0  0  0  0  0  0  0  0  0  0  0
  -19.6680   18.6380   10.8500 N   0  0  0  0  0  0  0  0  0  0  0  0
  -19.6510   17.2920   10.3080 C   0  0  0  0  0  2  0  0  0  0  0  0
  -19.7020   16.2610   11.3170 O   0  0  0  0  0  0  0  0  0  0  0  0
  -18.5940   19.8820    8.9710 C   0  0  0  0  0  0  0  0  0  0  0  0
  -17.7080   18.8740    8.5730 C   0  0  0  0  0  3  0  0  0  0  0  0
  -17.0720   18.9460    7.3320 C   0  0  0  0  0  3  0  0  0  0  0  0
  -17.3180   20.0250    6.4850 C   0  0  0  0  0  3  0  0  0  0  0  0
  -18.2020   21.0310    6.8740 C   0  0  0  0  0  3  0  0  0  0  0  0
  -18.8400   20.9600    8.1130 C   0  0  0  0  0  3  0  0  0  0  0  0
  -19.3490   22.2150   11.1660 C   0  0  0  0  0  0  0  0  0  0  0  0
  -18.0880   22.7960   11.2930 C   0  0  0  0  0  3  0  0  0  0  0  0
  -17.9260   24.1860   11.1900 C   0  0  0  0  0  3  0  0  0  0  0  0
  -19.0110   25.0530   10.9460 C   0  0  0  0  0  0  0  0  0  0  0  0
  -20.2750   24.4430   10.8230 C   0  0  0  0  0  3  0  0  0  0  0  0
  -20.4400   23.0560   10.9270 C   0  0  0  0  0  3  0  0  0  0  0  0
  -18.8190   26.6060   10.7700 C   0  0  1  0  0  0  0  0  0  0  0  0
  -19.9970   27.5760   11.0940 C   0  0  0  0  0  2  0  0  0  0  0  0
  -18.9150   28.6280   11.4850 C   0  0  1  0  0  0  0  0  0  0  0  0
  -19.2920   29.5430   12.6350 C   0  0  0  0  0  1  0  0  0  0  0  0
  -18.0050   27.4120   11.8310 C   0  0  0  0  0  2  0  0  0  0  0  0
  -18.3040   26.8410    9.3950 N   0  0  0  0  0  4  0  0  0  0  0  0
  -17.3970   26.3890    9.2380 H   0  0  0  0  0  0  0  0  0  0  0  0
  -18.9510   26.4910    8.6790 H   0  0  0  0  0  0  0  0  0  0  0  0
  -18.1830   27.8600    9.2330 H   0  0  0  0  0  0  0  0  0  0  0  0
  -18.4290   29.3870   10.3450 O   0  0  0  0  0  0  0  0  0  0  0  0
  -18.1160   30.2440   10.7050 H   0  0  0  0  0  0  0  0  0  0  0  0
  -20.6400   17.0870   17.5550 C   0  0  0  0  0  1  0  0  0  0  0  0
  -22.0510   17.1620   17.2530 N   0  0  0  0  0  0  0  0  0  0  0  0
  -22.6600   17.1930   16.0240 C   0  0  0  0  0  0  0  0  0  0  0  0
  -23.8560   17.4490   15.9280 O   0  0  0  0  0  0  0  0  0  0  0  0
  -22.6960   17.3040   18.0220 H   0  0  0  0  0  0  0  0  0  0  0  0
  1 39  1  0  0  0  0
  2  1  1  0  0  0  0
  3  2  2  0  0  0  0
  4  5  2  0  0  0  0
  4  3  1  0  0  0  0
  5  6  1  0  0  0  0
  6  1  2  0  0  0  0
  7  8  2  0  0  0  0
  7  5  1  0  0  0  0
  9  8  1  0  0  0  0
 10 11  1  0  0  0  0
 10  9  2  0  0  0  0
 11  7  1  0  0  0  0
 12 11  1  0  0  0  0
 12 13  1  0  0  0  0
 13  4  1  0  0  0  0
 14 10  1  0  0  0  0
 15 14  1  0  0  0  0
 16 15  2  0  0  0  0
 17 18  2  0  0  0  0
 17 16  1  0  0  0  0
 18 19  1  0  0  0  0
 19 14  2  0  0  0  0
 20  9  1  0  0  0  0
 20 21  1  0  0  0  0
 22 21  2  0  0  0  0
 23 22  1  0  0  0  0
 24 25  1  0  0  0  0
 24 23  2  0  0  0  0
 25 20  2  0  0  0  0
 26 31  1  6  0  0  0
 26 23  1  0  0  0  0
 26 27  1  0  0  0  0
 26 30  1  0  0  0  0
 27 28  1  0  0  0  0
 28 30  1  0  0  0  0
 28 29  1  1  0  0  0
 32 31  1  0  0  0  0
 33 31  1  0  0  0  0
 34 31  1  0  0  0  0
 35 36  1  0  0  0  0
 35 28  1  0  0  0  0
 38 37  1  0  0  0  0
 38 41  1  0  0  0  0
 39 38  1  0  0  0  0
 40 39  2  0  0  0  0
M  END
>  <minimizedAffinity>
-12.8991194

$$$$

 OpenBabel11232420433D

 41 46  0  0  1  0  0  0  0  0999 V2000
  -19.7160   28.8010   12.4550 C   0  0  0  0  0  0  0  0  0  0  0  0
  -19.1210   29.5050   11.3990 C   0  0  0  0  0  3  0  0  0  0  0  0
  -18.6390   28.8120   10.2850 C   0  0  0  0  0  3  0  0  0  0  0  0
  -18.7260   27.4220   10.2440 C   0  0  0  0  0  0  0  0  0  0  0  0
  -19.3090   26.7190   11.3050 C   0  0  0  0  0  0  0  0  0  0  0  0
  -19.7980   27.4060   12.4160 C   0  0  0  0  0  3  0  0  0  0  0  0
  -19.3970   25.2840   11.1810 C   0  0  0  0  0  0  0  0  0  0  0  0
  -20.0390   24.4110   11.9220 N   0  0  0  0  0  0  0  0  0  0  0  0
  -19.7900   23.1800   11.3490 C   0  0  0  0  0  0  0  0  0  0  0  0
  -18.9710   23.3090   10.2310 C   0  0  0  0  0  0  0  0  0  0  0  0
  -18.7490   24.6660   10.1510 N   0  0  0  0  0  0  0  0  0  0  0  0
  -17.9170   25.4060    9.2200 C   0  0  0  0  0  2  0  0  0  0  0  0
  -18.2730   26.8010    9.1080 O   0  0  0  0  0  0  0  0  0  0  0  0
  -18.4500   22.3520    9.2650 C   0  0  0  0  0  0  0  0  0  0  0  0
  -19.2300   21.9490    8.1750 C   0  0  0  0  0  3  0  0  0  0  0  0
  -18.7310   21.0250    7.2550 C   0  0  0  0  0  3  0  0  0  0  0  0
  -17.4510   20.4980    7.4220 C   0  0  0  0  0  3  0  0  0  0  0  0
  -16.6670   20.8970    8.5050 C   0  0  0  0  0  3  0  0  0  0  0  0
  -17.1640   21.8220    9.4240 C   0  0  0  0  0  3  0  0  0  0  0  0
  -20.3650   21.9680   11.9140 C   0  0  0  0  0  0  0  0  0  0  0  0
  -19.6660   20.7640   12.0060 C   0  0  0  0  0  3  0  0  0  0  0  0
  -20.2550   19.6390   12.6010 C   0  0  0  0  0  3  0  0  0  0  0  0
  -21.5600   19.6670   13.1360 C   0  0  0  0  0  0  0  0  0  0  0  0
  -22.2450   20.8930   13.0300 C   0  0  0  0  0  3  0  0  0  0  0  0
  -21.6610   22.0180   12.4360 C   0  0  0  0  0  3  0  0  0  0  0  0
  -22.1970   18.4200   13.8570 C   0  0  1  0  0  0  0  0  0  0  0  0
  -22.8150   17.2660   13.0100 C   0  0  0  0  0  2  0  0  0  0  0  0
  -22.4080   16.3070   14.1700 C   0  0  1  0  0  0  0  0  0  0  0  0
  -21.9780   14.9180   13.7370 C   0  0  0  0  0  1  0  0  0  0  0  0
  -21.2700   17.3260   14.4760 C   0  0  0  0  0  2  0  0  0  0  0  0
  -23.1770   18.9300   14.8520 N   0  0  0  0  0  4  0  0  0  0  0  0
  -22.7350   19.5180   15.5670 H   0  0  0  0  0  0  0  0  0  0  0  0
  -23.9180   19.4860   14.4090 H   0  0  0  0  0  0  0  0  0  0  0  0
  -23.6350   18.1330   15.3370 H   0  0  0  0  0  0  0  0  0  0  0  0
  -23.4050   16.2450   15.2260 O   0  0  0  0  0  0  0  0  0  0  0  0
  -23.2920   15.3690   15.6530 H   0  0  0  0  0  0  0  0  0  0  0  0
  -17.8900   30.1050   14.4770 C   0  0  0  0  0  1  0  0  0  0  0  0
  -19.3260   29.9930   14.5820 N   0  0  0  0  0  0  0  0  0  0  0  0
  -20.2130   29.4980   13.6610 C   0  0  0  0  0  0  0  0  0  0  0  0
  -21.4210   29.6430   13.8190 O   0  0  0  0  0  0  0  0  0  0  0  0
  -19.7790   30.4080   15.3890 H   0  0  0  0  0  0  0  0  0  0  0  0
  1 39  1  0  0  0  0
  2  1  2  0  0  0  0
  3  2  1  0  0  0  0
  4  3  2  0  0  0  0
  4  5  1  0  0  0  0
  5  6  2  0  0  0  0
  6  1  1  0  0  0  0
  7  5  1  0  0  0  0
  7  8  2  0  0  0  0
  9 20  1  0  0  0  0
  9  8  1  0  0  0  0
 10  9  2  0  0  0  0
 11 10  1  0  0  0  0
 11  7  1  0  0  0  0
 12 11  1  0  0  0  0
 13 12  1  0  0  0  0
 13  4  1  0  0  0  0
 14 19  1  0  0  0  0
 14 10  1  0  0  0  0
 15 14  2  0  0  0  0
 16 17  2  0  0  0  0
 16 15  1  0  0  0  0
 17 18  1  0  0  0  0
 18 19  2  0  0  0  0
 20 21  2  0  0  0  0
 20 25  1  0  0  0  0
 21 22  1  0  0  0  0
 22 23  2  0  0  0  0
 23 26  1  0  0  0  0
 24 23  1  0  0  0  0
 25 24  2  0  0  0  0
 26 30  1  0  0  0  0
 26 31  1  1  0  0  0
 27 26  1  0  0  0  0
 27 28  1  0  0  0  0
 28 29  1  6  0  0  0
 28 30  1  0  0  0  0
 28 35  1  0  0  0  0
 31 34  1  0  0  0  0
 31 32  1  0  0  0  0
 33 31  1  0  0  0  0
 35 36  1  0  0  0  0
 37 38  1  0  0  0  0
 38 41  1  0  0  0  0
 39 40  2  0  0  0  0
 39 38  1  0  0  0  0
M  END
>  <minimizedAffinity>
-11.7044325

$$$$

 OpenBabel11232420433D

 41 46  0  0  1  0  0  0  0  0999 V2000
  -21.3310   17.5170   13.4080 C   0  0  0  0  0  0  0  0  0  0  0  0
  -20.9330   16.2650   12.9230 C   0  0  0  0  0  3  0  0  0  0  0  0
  -20.0790   16.1830   11.8200 C   0  0  0  0  0  3  0  0  0  0  0  0
  -19.6530   17.3500   11.1880 C   0  0  0  0  0  0  0  0  0  0  0  0
  -20.0610   18.6010   11.6650 C   0  0  0  0  0  0  0  0  0  0  0  0
  -20.9080   18.6880   12.7700 C   0  0  0  0  0  3  0  0  0  0  0  0
  -19.5550   19.7680   10.9840 C   0  0  0  0  0  0  0  0  0  0  0  0
  -19.6260   21.0360   11.3160 N   0  0  0  0  0  0  0  0  0  0  0  0
  -18.9680   21.7220   10.3150 C   0  0  0  0  0  0  0  0  0  0  0  0
  -18.4870   20.8460    9.3460 C   0  0  0  0  0  0  0  0  0  0  0  0
  -18.8730   19.6090    9.8130 N   0  0  0  0  0  0  0  0  0  0  0  0
  -18.7050   18.3050    9.1990 C   0  0  0  0  0  2  0  0  0  0  0  0
  -18.7840   17.2090   10.1360 O   0  0  0  0  0  0  0  0  0  0  0  0
  -17.7090   21.0390    8.1300 C   0  0  0  0  0  0  0  0  0  0  0  0
  -18.0970   20.4210    6.9350 C   0  0  0  0  0  3  0  0  0  0  0  0
  -17.3440   20.6010    5.7730 C   0  0  0  0  0  3  0  0  0  0  0  0
  -16.2010   21.3990    5.8010 C   0  0  0  0  0  3  0  0  0  0  0  0
  -15.8110   22.0200    6.9870 C   0  0  0  0  0  3  0  0  0  0  0  0
  -16.5630   21.8420    8.1490 C   0  0  0  0  0  3  0  0  0  0  0  0
  -18.8430   23.1710   10.3660 C   0  0  0  0  0  0  0  0  0  0  0  0
  -19.8700   24.0380    9.9930 C   0  0  0  0  0  3  0  0  0  0  0  0
  -19.7100   25.4270   10.1030 C   0  0  0  0  0  3  0  0  0  0  0  0
  -18.5260   26.0110   10.5990 C   0  0  0  0  0  0  0  0  0  0  0  0
  -17.5030   25.1150   10.9680 C   0  0  0  0  0  3  0  0  0  0  0  0
  -17.6590   23.7280   10.8580 C   0  0  0  0  0  3  0  0  0  0  0  0
  -18.3700   27.5670   10.7790 C   0  0  1  0  0  0  0  0  0  0  0  0
  -19.2970   28.5370    9.9840 C   0  0  0  0  0  2  0  0  0  0  0  0
  -19.1570   29.5230   11.1840 C   0  0  1  0  0  0  0  0  0  0  0  0
  -20.3950   30.3480   11.4870 C   0  0  0  0  0  1  0  0  0  0  0  0
  -18.9290   28.2580   12.0640 C   0  0  0  0  0  2  0  0  0  0  0  0
  -16.9390   27.9040   10.5600 N   0  0  0  0  0  4  0  0  0  0  0  0
  -16.3230   27.4420   11.2370 H   0  0  0  0  0  0  0  0  0  0  0  0
  -16.6220   27.6330    9.6210 H   0  0  0  0  0  0  0  0  0  0  0  0
  -16.7990   28.9290   10.6510 H   0  0  0  0  0  0  0  0  0  0  0  0
  -17.9750   30.3630   11.0890 O   0  0  0  0  0  0  0  0  0  0  0  0
  -18.1810   31.1780   11.5940 H   0  0  0  0  0  0  0  0  0  0  0  0
  -22.6870   20.1090   14.1630 C   0  0  0  0  0  1  0  0  0  0  0  0
  -22.7680   18.8670   14.8950 N   0  0  0  0  0  0  0  0  0  0  0  0
  -22.2540   17.6410   14.5560 C   0  0  0  0  0  0  0  0  0  0  0  0
  -22.5680   16.6380   15.1890 O   0  0  0  0  0  0  0  0  0  0  0  0
  -23.3500   18.8400   15.7250 H   0  0  0  0  0  0  0  0  0  0  0  0
  1 39  1  0  0  0  0
  2  1  1  0  0  0  0
  3  2  2  0  0  0  0
  4  5  2  0  0  0  0
  4  3  1  0  0  0  0
  5  6  1  0  0  0  0
  6  1  2  0  0  0  0
  7  8  2  0  0  0  0
  7  5  1  0  0  0  0
  9 20  1  0  0  0  0
  9  8  1  0  0  0  0
 10 11  1  0  0  0  0
 10  9  2  0  0  0  0
 11  7  1  0  0  0  0
 12 11  1  0  0  0  0
 12 13  1  0  0  0  0
 13  4  1  0  0  0  0
 14 19  1  0  0  0  0
 14 10  1  0  0  0  0
 15 14  2  0  0  0  0
 16 17  2  0  0  0  0
 16 15  1  0  0  0  0
 17 18  1  0  0  0  0
 18 19  2  0  0  0  0
 20 25  1  0  0  0  0
 21 22  1  0  0  0  0
 21 20  2  0  0  0  0
 22 23  2  0  0  0  0
 23 26  1  0  0  0  0
 23 24  1  0  0  0  0
 25 24  2  0  0  0  0
 26 31  1  6  0  0  0
 26 30  1  0  0  0  0
 27 26  1  0  0  0  0
 27 28  1  0  0  0  0
 28 29  1  1  0  0  0
 28 30  1  0  0  0  0
 31 34  1  0  0  0  0
 31 32  1  0  0  0  0
 33 31  1  0  0  0  0
 35 28  1  0  0  0  0
 35 36  1  0  0  0  0
 37 38  1  0  0  0  0
 38 41  1  0  0  0  0
 39 38  1  0  0  0  0
 39 40  2  0  0  0  0
M  END
>  <minimizedAffinity>
-11.5619097

$$$$

 OpenBabel11232420433D

 41 46  0  0  1  0  0  0  0  0999 V2000
  -20.1740   33.6040    6.7190 C   0  0  0  0  0  0  0  0  0  0  0  0
  -19.6550   34.8280    7.1630 C   0  0  0  0  0  3  0  0  0  0  0  0
  -19.0210   34.9050    8.4060 C   0  0  0  0  0  3  0  0  0  0  0  0
  -18.9370   33.7710    9.2110 C   0  0  0  0  0  0  0  0  0  0  0  0
  -19.4670   32.5520    8.7730 C   0  0  0  0  0  0  0  0  0  0  0  0
  -20.0950   32.4680    7.5300 C   0  0  0  0  0  3  0  0  0  0  0  0
  -19.3150   31.4110    9.6430 C   0  0  0  0  0  0  0  0  0  0  0  0
  -19.5500   30.1400    9.4150 N   0  0  0  0  0  0  0  0  0  0  0  0
  -19.2230   29.4840   10.5860 C   0  0  0  0  0  0  0  0  0  0  0  0
  -18.7820   30.3840   11.5520 C   0  0  0  0  0  0  0  0  0  0  0  0
  -18.8450   31.6010   10.9100 N   0  0  0  0  0  0  0  0  0  0  0  0
  -18.5630   32.9260   11.4280 C   0  0  0  0  0  2  0  0  0  0  0  0
  -18.2670   33.8980   10.4020 O   0  0  0  0  0  0  0  0  0  0  0  0
  -18.2910   30.2190   12.9130 C   0  0  0  0  0  0  0  0  0  0  0  0
  -16.9800   29.7870   13.1470 C   0  0  0  0  0  3  0  0  0  0  0  0
  -16.5160   29.6210   14.4530 C   0  0  0  0  0  3  0  0  0  0  0  0
  -17.3600   29.8850   15.5310 C   0  0  0  0  0  3  0  0  0  0  0  0
  -18.6660   30.3170   15.3050 C   0  0  0  0  0  3  0  0  0  0  0  0
  -19.1310   30.4850   14.0000 C   0  0  0  0  0  3  0  0  0  0  0  0
  -19.3540   28.0390   10.6880 C   0  0  0  0  0  0  0  0  0  0  0  0
  -18.4280   27.1490   10.1430 C   0  0  0  0  0  3  0  0  0  0  0  0
  -18.5830   25.7650   10.3090 C   0  0  0  0  0  3  0  0  0  0  0  0
  -19.6590   25.2090   11.0320 C   0  0  0  0  0  0  0  0  0  0  0  0
  -20.5800   26.1280   11.5720 C   0  0  0  0  0  3  0  0  0  0  0  0
  -20.4310   27.5100   11.4070 C   0  0  0  0  0  3  0  0  0  0  0  0
  -19.7970   23.6580   11.2690 C   0  0  1  0  0  0  0  0  0  0  0  0
  -20.0810   22.7110   10.0630 C   0  0  0  0  0  2  0  0  0  0  0  0
  -19.2910   21.6160   10.8420 C   0  0  1  0  0  0  0  0  0  0  0  0
  -18.4760   20.6730    9.9770 C   0  0  0  0  0  1  0  0  0  0  0  0
  -18.5190   22.7940   11.5080 C   0  0  0  0  0  2  0  0  0  0  0  0
  -20.8000   23.4570   12.3480 N   0  0  0  0  0  4  0  0  0  0  0  0
  -20.5120   23.8890   13.2320 H   0  0  0  0  0  0  0  0  0  0  0  0
  -21.7160   23.8500   12.0960 H   0  0  0  0  0  0  0  0  0  0  0  0
  -20.9350   22.4410   12.5190 H   0  0  0  0  0  0  0  0  0  0  0  0
  -20.1210   20.8840   11.7830 O   0  0  0  0  0  0  0  0  0  0  0  0
  -19.6970   20.0060   11.8910 H   0  0  0  0  0  0  0  0  0  0  0  0
  -23.1840   33.5600    6.4680 C   0  0  0  0  0  1  0  0  0  0  0  0
  -22.2420   33.3890    5.3870 N   0  0  0  0  0  0  0  0  0  0  0  0
  -20.8750   33.4910    5.4220 C   0  0  0  0  0  0  0  0  0  0  0  0
  -20.2240   33.5050    4.3820 O   0  0  0  0  0  0  0  0  0  0  0  0
  -22.6090   33.2690    4.4490 H   0  0  0  0  0  0  0  0  0  0  0  0
  1  2  2  0  0  0  0
  1  6  1  0  0  0  0
  2  3  1  0  0  0  0
  3  4  2  0  0  0  0
  4 13  1  0  0  0  0
  5  4  1  0  0  0  0
  5  7  1  0  0  0  0
  6  5  2  0  0  0  0
  7 11  1  0  0  0  0
  8  7  2  0  0  0  0
  8  9  1  0  0  0  0
  9 20  1  0  0  0  0
  9 10  2  0  0  0  0
 10 14  1  0  0  0  0
 11 12  1  0  0  0  0
 11 10  1  0  0  0  0
 13 12  1  0  0  0  0
 14 15  2  0  0  0  0
 14 19  1  0  0  0  0
 15 16  1  0  0  0  0
 16 17  2  0  0  0  0
 18 17  1  0  0  0  0
 19 18  2  0  0  0  0
 20 25  1  0  0  0  0
 21 22  1  0  0  0  0
 21 20  2  0  0  0  0
 22 23  2  0  0  0  0
 23 26  1  0  0  0  0
 23 24  1  0  0  0  0
 25 24  2  0  0  0  0
 26 30  1  0  0  0  0
 26 31  1  1  0  0  0
 27 28  1  0  0  0  0
 27 26  1  0  0  0  0
 28 29  1  6  0  0  0
 28 30  1  0  0  0  0
 28 35  1  0  0  0  0
 31 34  1  0  0  0  0
 31 32  1  0  0  0  0
 33 31  1  0  0  0  0
 35 36  1  0  0  0  0
 38 39  1  0  0  0  0
 38 37  1  0  0  0  0
 39  1  1  0  0  0  0
 40 39  2  0  0  0  0
 41 38  1  0  0  0  0
M  END
>  <minimizedAffinity>
-10.9766569

$$$$

 OpenBabel11232420433D

 41 46  0  0  1  0  0  0  0  0999 V2000
  -13.7540   34.2730    9.6830 C   0  0  0  0  0  0  0  0  0  0  0  0
  -13.4140   35.2790   10.5970 C   0  0  0  0  0  3  0  0  0  0  0  0
  -13.9630   35.2680   11.8820 C   0  0  0  0  0  3  0  0  0  0  0  0
  -14.8720   34.2730   12.2360 C   0  0  0  0  0  0  0  0  0  0  0  0
  -15.2220   33.2760   11.3180 C   0  0  0  0  0  0  0  0  0  0  0  0
  -14.6710   33.2780   10.0370 C   0  0  0  0  0  3  0  0  0  0  0  0
  -16.1420   32.2570   11.7630 C   0  0  0  0  0  0  0  0  0  0  0  0
  -16.4970   31.1310   11.1880 N   0  0  0  0  0  0  0  0  0  0  0  0
  -17.3950   30.5370   12.0530 C   0  0  0  0  0  0  0  0  0  0  0  0
  -17.5940   31.3280   13.1810 C   0  0  0  0  0  0  0  0  0  0  0  0
  -16.7710   32.4100   12.9650 N   0  0  0  0  0  0  0  0  0  0  0  0
  -16.5930   33.6030   13.7720 C   0  0  0  0  0  2  0  0  0  0  0  0
  -15.3480   34.2900   13.5230 O   0  0  0  0  0  0  0  0  0  0  0  0
  -18.3910   31.1530   14.3880 C   0  0  0  0  0  0  0  0  0  0  0  0
  -17.8400   30.5400   15.5200 C   0  0  0  0  0  3  0  0  0  0  0  0
  -18.6090   30.3670   16.6710 C   0  0  0  0  0  3  0  0  0  0  0  0
  -19.9330   30.8050   16.6970 C   0  0  0  0  0  3  0  0  0  0  0  0
  -20.4870   31.4180   15.5740 C   0  0  0  0  0  3  0  0  0  0  0  0
  -19.7190   31.5940   14.4230 C   0  0  0  0  0  3  0  0  0  0  0  0
  -17.9920   29.2500   11.7330 C   0  0  0  0  0  0  0  0  0  0  0  0
  -17.2560   28.0680   11.6480 C   0  0  0  0  0  3  0  0  0  0  0  0
  -17.8910   26.8470   11.3780 C   0  0  0  0  0  3  0  0  0  0  0  0
  -19.2860   26.7500   11.1900 C   0  0  0  0  0  0  0  0  0  0  0  0
  -20.0070   27.9570   11.2800 C   0  0  0  0  0  3  0  0  0  0  0  0
  -19.3760   29.1770   11.5480 C   0  0  0  0  0  3  0  0  0  0  0  0
  -20.0050   25.3700   10.9470 C   0  0  1  0  0  0  0  0  0  0  0  0
  -19.2980   24.2650   10.1040 C   0  0  0  0  0  2  0  0  0  0  0  0
  -20.0620   23.2240   10.9780 C   0  0  1  0  0  0  0  0  0  0  0  0
  -19.3000   21.9450   11.2710 C   0  0  0  0  0  1  0  0  0  0  0  0
  -20.0570   24.3110   12.0940 C   0  0  0  0  0  2  0  0  0  0  0  0
  -21.3610   25.6590   10.4110 N   0  0  0  0  0  4  0  0  0  0  0  0
  -21.9310   26.2020   11.0680 H   0  0  0  0  0  0  0  0  0  0  0  0
  -21.3190   26.1850    9.5300 H   0  0  0  0  0  0  0  0  0  0  0  0
  -21.8610   24.7690   10.2180 H   0  0  0  0  0  0  0  0  0  0  0  0
  -21.3970   22.9390   10.4780 O   0  0  0  0  0  0  0  0  0  0  0  0
  -21.6150   22.0360   10.7910 H   0  0  0  0  0  0  0  0  0  0  0  0
  -11.4650   32.5020    8.8170 C   0  0  0  0  0  1  0  0  0  0  0  0
  -12.1150   33.5030    8.0040 N   0  0  0  0  0  0  0  0  0  0  0  0
  -13.2120   34.2680    8.3070 C   0  0  0  0  0  0  0  0  0  0  0  0
  -13.7620   34.9400    7.4400 O   0  0  0  0  0  0  0  0  0  0  0  0
  -11.8040   33.6140    7.0450 H   0  0  0  0  0  0  0  0  0  0  0  0
  1  6  2  0  0  0  0
  1  2  1  0  0  0  0
  2  3  2  0  0  0  0
  3  4  1  0  0  0  0
  4 13  1  0  0  0  0
  5  7  1  0  0  0  0
  5  4  2  0  0  0  0
  6  5  1  0  0  0  0
  7 11  1  0  0  0  0
  8  7  2  0  0  0  0
  8  9  1  0  0  0  0
  9 10  2  0  0  0  0
 10 14  1  0  0  0  0
 11 10  1  0  0  0  0
 11 12  1  0  0  0  0
 13 12  1  0  0  0  0
 14 19  2  0  0  0  0
 14 15  1  0  0  0  0
 15 16  2  0  0  0  0
 16 17  1  0  0  0  0
 18 17  2  0  0  0  0
 19 18  1  0  0  0  0
 20  9  1  0  0  0  0
 21 20  1  0  0  0  0
 22 21  2  0  0  0  0
 23 24  2  0  0  0  0
 23 22  1  0  0  0  0
 24 25  1  0  0  0  0
 25 20  2  0  0  0  0
 26 31  1  6  0  0  0
 26 23  1  0  0  0  0
 26 30  1  0  0  0  0
 27 26  1  0  0  0  0
 27 28  1  0  0  0  0
 28 29  1  1  0  0  0
 28 30  1  0  0  0  0
 31 32  1  0  0  0  0
 33 31  1  0  0  0  0
 34 31  1  0  0  0  0
 35 36  1  0  0  0  0
 35 28  1  0  0  0  0
 38 39  1  0  0  0  0
 38 37  1  0  0  0  0
 39  1  1  0  0  0  0
 40 39  2  0  0  0  0
 41 38  1  0  0  0  0
M  END
>  <minimizedAffinity>
-10.3236847

$$$$

 OpenBabel11232420433D

 41 46  0  0  1  0  0  0  0  0999 V2000
  -15.7170   19.8520    6.4360 C   0  0  0  0  0  0  0  0  0  0  0  0
  -16.1080   18.5130    6.3090 C   0  0  0  0  0  3  0  0  0  0  0  0
  -17.1550   18.0160    7.0900 C   0  0  0  0  0  3  0  0  0  0  0  0
  -17.7840   18.8480    8.0140 C   0  0  0  0  0  0  0  0  0  0  0  0
  -17.3840   20.1830    8.1500 C   0  0  0  0  0  0  0  0  0  0  0  0
  -16.3450   20.6860    7.3680 C   0  0  0  0  0  3  0  0  0  0  0  0
  -18.1010   20.9970    9.1010 C   0  0  0  0  0  0  0  0  0  0  0  0
  -18.0600   22.2940    9.3020 N   0  0  0  0  0  0  0  0  0  0  0  0
  -18.9540   22.5410   10.3260 C   0  0  0  0  0  0  0  0  0  0  0  0
  -19.5500   21.3610   10.7600 C   0  0  0  0  0  0  0  0  0  0  0  0
  -18.9880   20.4000    9.9500 N   0  0  0  0  0  0  0  0  0  0  0  0
  -19.1750   18.9610    9.9690 C   0  0  0  0  0  2  0  0  0  0  0  0
  -18.8310   18.3160    8.7230 O   0  0  0  0  0  0  0  0  0  0  0  0
  -20.5650   21.0720   11.7640 C   0  0  0  0  0  0  0  0  0  0  0  0
  -20.4170   19.9800   12.6280 C   0  0  0  0  0  3  0  0  0  0  0  0
  -21.3970   19.7010   13.5830 C   0  0  0  0  0  3  0  0  0  0  0  0
  -22.5280   20.5110   13.6780 C   0  0  0  0  0  3  0  0  0  0  0  0
  -22.6800   21.6010   12.8220 C   0  0  0  0  0  3  0  0  0  0  0  0
  -21.7010   21.8830   11.8680 C   0  0  0  0  0  3  0  0  0  0  0  0
  -19.1730   23.8970   10.8070 C   0  0  0  0  0  0  0  0  0  0  0  0
  -18.2380   24.5960   11.5690 C   0  0  0  0  0  3  0  0  0  0  0  0
  -18.4850   25.9170   11.9700 C   0  0  0  0  0  3  0  0  0  0  0  0
  -19.6680   26.6000   11.6210 C   0  0  0  0  0  0  0  0  0  0  0  0
  -20.5980   25.8730   10.8520 C   0  0  0  0  0  3  0  0  0  0  0  0
  -20.3560   24.5540   10.4520 C   0  0  0  0  0  3  0  0  0  0  0  0
  -19.9170   28.1030   12.0200 C   0  0  1  0  0  0  0  0  0  0  0  0
  -20.6910   28.4400   13.3310 C   0  0  0  0  0  2  0  0  0  0  0  0
  -19.8360   29.7420   13.4040 C   0  0  1  0  0  0  0  0  0  0  0  0
  -19.4680   30.1930   14.8060 C   0  0  0  0  0  1  0  0  0  0  0  0
  -18.7490   28.9500   12.6180 C   0  0  0  0  0  2  0  0  0  0  0  0
  -20.5370   28.7810   10.8510 N   0  0  0  0  0  4  0  0  0  0  0  0
  -19.9270   28.7690   10.0260 H   0  0  0  0  0  0  0  0  0  0  0  0
  -21.4280   28.3450   10.5830 H   0  0  0  0  0  0  0  0  0  0  0  0
  -20.7360   29.7740   11.0830 H   0  0  0  0  0  0  0  0  0  0  0  0
  -20.4040   30.8340   12.6310 O   0  0  0  0  0  0  0  0  0  0  0  0
  -20.0820   31.6590   13.0520 H   0  0  0  0  0  0  0  0  0  0  0  0
  -16.0800   21.9850    4.3280 C   0  0  0  0  0  1  0  0  0  0  0  0
  -14.8440   21.3090    4.6440 N   0  0  0  0  0  0  0  0  0  0  0  0
  -14.5970   20.4050    5.6460 C   0  0  0  0  0  0  0  0  0  0  0  0
  -13.4480   20.0620    5.9050 O   0  0  0  0  0  0  0  0  0  0  0  0
  -14.0080   21.5840    4.1390 H   0  0  0  0  0  0  0  0  0  0  0  0
  1  6  1  0  0  0  0
  2  1  2  0  0  0  0
  2  3  1  0  0  0  0
  3  4  2  0  0  0  0
  4  5  1  0  0  0  0
  4 13  1  0  0  0  0
  5  7  1  0  0  0  0
  6  5  2  0  0  0  0
  7  8  2  0  0  0  0
  7 11  1  0  0  0  0
  8  9  1  0  0  0  0
  9 10  2  0  0  0  0
  9 20  1  0  0  0  0
 10 14  1  0  0  0  0
 11 12  1  0  0  0  0
 11 10  1  0  0  0  0
 13 12  1  0  0  0  0
 14 19  2  0  0  0  0
 14 15  1  0  0  0  0
 15 16  2  0  0  0  0
 16 17  1  0  0  0  0
 18 17  2  0  0  0  0
 19 18  1  0  0  0  0
 20 21  1  0  0  0  0
 21 22  2  0  0  0  0
 23 22  1  0  0  0  0
 23 26  1  0  0  0  0
 24 23  2  0  0  0  0
 25 20  2  0  0  0  0
 25 24  1  0  0  0  0
 26 31  1  6  0  0  0
 26 30  1  0  0  0  0
 26 27  1  0  0  0  0
 27 28  1  0  0  0  0
 28 29  1  1  0  0  0
 30 28  1  0  0  0  0
 31 34  1  0  0  0  0
 32 31  1  0  0  0  0
 33 31  1  0  0  0  0
 35 36  1  0  0  0  0
 35 28  1  0  0  0  0
 37 38  1  0  0  0  0
 38 39  1  0  0  0  0
 39 40  2  0  0  0  0
 39  1  1  0  0  0  0
 41 38  1  0  0  0  0
M  END
>  <minimizedAffinity>
-10.3218317

$$$$

 OpenBabel11232420433D

 41 46  0  0  1  0  0  0  0  0999 V2000
  -21.4510   20.2760   12.4270 C   0  0  0  0  0  0  0  0  0  0  0  0
  -20.7320   19.2260   11.8420 C   0  0  0  0  0  3  0  0  0  0  0  0
  -19.5560   19.4940   11.1370 C   0  0  0  0  0  3  0  0  0  0  0  0
  -19.1210   20.8100   10.9930 C   0  0  0  0  0  0  0  0  0  0  0  0
  -19.8470   21.8610   11.5670 C   0  0  0  0  0  0  0  0  0  0  0  0
  -21.0180   21.5980   12.2770 C   0  0  0  0  0  3  0  0  0  0  0  0
  -19.3220   23.1950   11.4080 C   0  0  0  0  0  0  0  0  0  0  0  0
  -19.6880   24.3200   11.9770 N   0  0  0  0  0  0  0  0  0  0  0  0
  -18.8410   25.2880   11.4720 C   0  0  0  0  0  0  0  0  0  0  0  0
  -17.9390   24.7340   10.5690 C   0  0  0  0  0  0  0  0  0  0  0  0
  -18.2700   23.3980   10.5610 N   0  0  0  0  0  0  0  0  0  0  0  0
  -17.7150   22.3200    9.7640 C   0  0  0  0  0  2  0  0  0  0  0  0
  -17.9390   21.0090   10.3260 O   0  0  0  0  0  0  0  0  0  0  0  0
  -16.8360   25.2930    9.7980 C   0  0  0  0  0  0  0  0  0  0  0  0
  -17.0860   26.0240    8.6310 C   0  0  0  0  0  3  0  0  0  0  0  0
  -16.0260   26.5510    7.8900 C   0  0  0  0  0  3  0  0  0  0  0  0
  -14.7130   26.3490    8.3130 C   0  0  0  0  0  3  0  0  0  0  0  0
  -14.4580   25.6240    9.4760 C   0  0  0  0  0  3  0  0  0  0  0  0
  -15.5160   25.0980   10.2180 C   0  0  0  0  0  3  0  0  0  0  0  0
  -18.9590   26.6730   11.9010 C   0  0  0  0  0  0  0  0  0  0  0  0
  -17.8580   27.5060   12.0980 C   0  0  0  0  0  3  0  0  0  0  0  0
  -18.0320   28.8470   12.4710 C   0  0  0  0  0  3  0  0  0  0  0  0
  -19.3090   29.4160   12.6540 C   0  0  0  0  0  0  0  0  0  0  0  0
  -20.4050   28.5550   12.4510 C   0  0  0  0  0  3  0  0  0  0  0  0
  -20.2350   27.2160   12.0800 C   0  0  0  0  0  3  0  0  0  0  0  0
  -19.5050   30.9370   13.0140 C   0  0  1  0  0  0  0  0  0  0  0  0
  -19.3910   31.4050   14.4970 C   0  0  0  0  0  2  0  0  0  0  0  0
  -18.8770   32.7680   13.9420 C   0  0  1  0  0  0  0  0  0  0  0  0
  -17.8250   33.4560   14.7930 C   0  0  0  0  0  1  0  0  0  0  0  0
  -18.3610   31.9570   12.7160 C   0  0  0  0  0  2  0  0  0  0  0  0
  -20.7940   31.3770   12.4180 N   0  0  0  0  0  4  0  0  0  0  0  0
  -20.8000   31.2890   11.3960 H   0  0  0  0  0  0  0  0  0  0  0  0
  -21.5870   30.8340   12.7790 H   0  0  0  0  0  0  0  0  0  0  0  0
  -20.9690   32.3740   12.6510 H   0  0  0  0  0  0  0  0  0  0  0  0
  -19.9550   33.6800   13.5980 O   0  0  0  0  0  0  0  0  0  0  0  0
  -19.5800   34.5830   13.6750 H   0  0  0  0  0  0  0  0  0  0  0  0
  -21.5890   18.7150   15.0090 C   0  0  0  0  0  1  0  0  0  0  0  0
  -22.7170   19.2420   14.2780 N   0  0  0  0  0  0  0  0  0  0  0  0
  -22.7140   20.0330   13.1570 C   0  0  0  0  0  0  0  0  0  0  0  0
  -23.7510   20.5560   12.7610 O   0  0  0  0  0  0  0  0  0  0  0  0
  -23.6440   19.1060   14.6680 H   0  0  0  0  0  0  0  0  0  0  0  0
  1 39  1  0  0  0  0
  2  1  2  0  0  0  0
  3  2  1  0  0  0  0
  4  3  2  0  0  0  0
  4  5  1  0  0  0  0
  5  6  2  0  0  0  0
  6  1  1  0  0  0  0
  7  5  1  0  0  0  0
  7  8  2  0  0  0  0
  9 20  1  0  0  0  0
  9  8  1  0  0  0  0
 10  9  2  0  0  0  0
 11 10  1  0  0  0  0
 11  7  1  0  0  0  0
 12 13  1  0  0  0  0
 12 11  1  0  0  0  0
 13  4  1  0  0  0  0
 14 19  1  0  0  0  0
 14 10  1  0  0  0  0
 15 14  2  0  0  0  0
 16 17  2  0  0  0  0
 16 15  1  0  0  0  0
 17 18  1  0  0  0  0
 18 19  2  0  0  0  0
 20 25  2  0  0  0  0
 20 21  1  0  0  0  0
 21 22  2  0  0  0  0
 22 23  1  0  0  0  0
 23 26  1  0  0  0  0
 24 23  2  0  0  0  0
 25 24  1  0  0  0  0
 26 31  1  6  0  0  0
 26 27  1  0  0  0  0
 28 27  1  0  0  0  0
 28 29  1  1  0  0  0
 30 26  1  0  0  0  0
 30 28  1  0  0  0  0
 31 34  1  0  0  0  0
 31 33  1  0  0  0  0
 32 31  1  0  0  0  0
 35 36  1  0  0  0  0
 35 28  1  0  0  0  0
 38 41  1  0  0  0  0
 38 37  1  0  0  0  0
 39 38  1  0  0  0  0
 40 39  2  0  0  0  0
M  END
>  <minimizedAffinity>
-9.97881413

$$$$
