
 OpenBabel11232420433D

 41 46  0  0  1  0  0  0  0  0999 V2000
  -21.4510   20.2760   12.4270 C   0  0  0  0  0  0  0  0  0  0  0  0
  -20.7320   19.2260   11.8420 C   0  0  0  0  0  3  0  0  0  0  0  0
  -19.5560   19.4940   11.1370 C   0  0  0  0  0  3  0  0  0  0  0  0
  -19.1210   20.8100   10.9930 C   0  0  0  0  0  0  0  0  0  0  0  0
  -19.8470   21.8610   11.5670 C   0  0  0  0  0  0  0  0  0  0  0  0
  -21.0180   21.5980   12.2770 C   0  0  0  0  0  3  0  0  0  0  0  0
  -19.3220   23.1950   11.4080 C   0  0  0  0  0  0  0  0  0  0  0  0
  -19.6880   24.3200   11.9770 N   0  0  0  0  0  0  0  0  0  0  0  0
  -18.8410   25.2880   11.4720 C   0  0  0  0  0  0  0  0  0  0  0  0
  -17.9390   24.7340   10.5690 C   0  0  0  0  0  0  0  0  0  0  0  0
  -18.2700   23.3980   10.5610 N   0  0  0  0  0  0  0  0  0  0  0  0
  -17.7150   22.3200    9.7640 C   0  0  0  0  0  2  0  0  0  0  0  0
  -17.9390   21.0090   10.3260 O   0  0  0  0  0  0  0  0  0  0  0  0
  -16.8360   25.2930    9.7980 C   0  0  0  0  0  0  0  0  0  0  0  0
  -17.0860   26.0240    8.6310 C   0  0  0  0  0  3  0  0  0  0  0  0
  -16.0260   26.5510    7.8900 C   0  0  0  0  0  3  0  0  0  0  0  0
  -14.7130   26.3490    8.3130 C   0  0  0  0  0  3  0  0  0  0  0  0
  -14.4580   25.6240    9.4760 C   0  0  0  0  0  3  0  0  0  0  0  0
  -15.5160   25.0980   10.2180 C   0  0  0  0  0  3  0  0  0  0  0  0
  -18.9590   26.6730   11.9010 C   0  0  0  0  0  0  0  0  0  0  0  0
  -17.8580   27.5060   12.0980 C   0  0  0  0  0  3  0  0  0  0  0  0
  -18.0320   28.8470   12.4710 C   0  0  0  0  0  3  0  0  0  0  0  0
  -19.3090   29.4160   12.6540 C   0  0  0  0  0  0  0  0  0  0  0  0
  -20.4050   28.5550   12.4510 C   0  0  0  0  0  3  0  0  0  0  0  0
  -20.2350   27.2160   12.0800 C   0  0  0  0  0  3  0  0  0  0  0  0
  -19.5050   30.9370   13.0140 C   0  0  1  0  0  0  0  0  0  0  0  0
  -19.3910   31.4050   14.4970 C   0  0  0  0  0  2  0  0  0  0  0  0
  -18.8770   32.7680   13.9420 C   0  0  1  0  0  0  0  0  0  0  0  0
  -17.8250   33.4560   14.7930 C   0  0  0  0  0  1  0  0  0  0  0  0
  -18.3610   31.9570   12.7160 C   0  0  0  0  0  2  0  0  0  0  0  0
  -20.7940   31.3770   12.4180 N   0  0  0  0  0  4  0  0  0  0  0  0
  -20.8000   31.2890   11.3960 H   0  0  0  0  0  0  0  0  0  0  0  0
  -21.5870   30.8340   12.7790 H   0  0  0  0  0  0  0  0  0  0  0  0
  -20.9690   32.3740   12.6510 H   0  0  0  0  0  0  0  0  0  0  0  0
  -19.9550   33.6800   13.5980 O   0  0  0  0  0  0  0  0  0  0  0  0
  -19.5800   34.5830   13.6750 H   0  0  0  0  0  0  0  0  0  0  0  0
  -21.5890   18.7150   15.0090 C   0  0  0  0  0  1  0  0  0  0  0  0
  -22.7170   19.2420   14.2780 N   0  0  0  0  0  0  0  0  0  0  0  0
  -22.7140   20.0330   13.1570 C   0  0  0  0  0  0  0  0  0  0  0  0
  -23.7510   20.5560   12.7610 O   0  0  0  0  0  0  0  0  0  0  0  0
  -23.6440   19.1060   14.6680 H   0  0  0  0  0  0  0  0  0  0  0  0
  1 39  1  0  0  0  0
  2  1  2  0  0  0  0
  3  2  1  0  0  0  0
  4  3  2  0  0  0  0
  4  5  1  0  0  0  0
  5  6  2  0  0  0  0
  6  1  1  0  0  0  0
  7  5  1  0  0  0  0
  7  8  2  0  0  0  0
  9 20  1  0  0  0  0
  9  8  1  0  0  0  0
 10  9  2  0  0  0  0
 11 10  1  0  0  0  0
 11  7  1  0  0  0  0
 12 13  1  0  0  0  0
 12 11  1  0  0  0  0
 13  4  1  0  0  0  0
 14 19  1  0  0  0  0
 14 10  1  0  0  0  0
 15 14  2  0  0  0  0
 16 17  2  0  0  0  0
 16 15  1  0  0  0  0
 17 18  1  0  0  0  0
 18 19  2  0  0  0  0
 20 25  2  0  0  0  0
 20 21  1  0  0  0  0
 21 22  2  0  0  0  0
 22 23  1  0  0  0  0
 23 26  1  0  0  0  0
 24 23  2  0  0  0  0
 25 24  1  0  0  0  0
 26 31  1  6  0  0  0
 26 27  1  0  0  0  0
 28 27  1  0  0  0  0
 28 29  1  1  0  0  0
 30 26  1  0  0  0  0
 30 28  1  0  0  0  0
 31 34  1  0  0  0  0
 31 33  1  0  0  0  0
 32 31  1  0  0  0  0
 35 36  1  0  0  0  0
 35 28  1  0  0  0  0
 38 41  1  0  0  0  0
 38 37  1  0  0  0  0
 39 38  1  0  0  0  0
 40 39  2  0  0  0  0
M  END
>  <minimizedAffinity>
-9.97881413

$$$$
