
 OpenBabel11232420433D

 41 46  0  0  1  0  0  0  0  0999 V2000
  -21.3310   17.5170   13.4080 C   0  0  0  0  0  0  0  0  0  0  0  0
  -20.9330   16.2650   12.9230 C   0  0  0  0  0  3  0  0  0  0  0  0
  -20.0790   16.1830   11.8200 C   0  0  0  0  0  3  0  0  0  0  0  0
  -19.6530   17.3500   11.1880 C   0  0  0  0  0  0  0  0  0  0  0  0
  -20.0610   18.6010   11.6650 C   0  0  0  0  0  0  0  0  0  0  0  0
  -20.9080   18.6880   12.7700 C   0  0  0  0  0  3  0  0  0  0  0  0
  -19.5550   19.7680   10.9840 C   0  0  0  0  0  0  0  0  0  0  0  0
  -19.6260   21.0360   11.3160 N   0  0  0  0  0  0  0  0  0  0  0  0
  -18.9680   21.7220   10.3150 C   0  0  0  0  0  0  0  0  0  0  0  0
  -18.4870   20.8460    9.3460 C   0  0  0  0  0  0  0  0  0  0  0  0
  -18.8730   19.6090    9.8130 N   0  0  0  0  0  0  0  0  0  0  0  0
  -18.7050   18.3050    9.1990 C   0  0  0  0  0  2  0  0  0  0  0  0
  -18.7840   17.2090   10.1360 O   0  0  0  0  0  0  0  0  0  0  0  0
  -17.7090   21.0390    8.1300 C   0  0  0  0  0  0  0  0  0  0  0  0
  -18.0970   20.4210    6.9350 C   0  0  0  0  0  3  0  0  0  0  0  0
  -17.3440   20.6010    5.7730 C   0  0  0  0  0  3  0  0  0  0  0  0
  -16.2010   21.3990    5.8010 C   0  0  0  0  0  3  0  0  0  0  0  0
  -15.8110   22.0200    6.9870 C   0  0  0  0  0  3  0  0  0  0  0  0
  -16.5630   21.8420    8.1490 C   0  0  0  0  0  3  0  0  0  0  0  0
  -18.8430   23.1710   10.3660 C   0  0  0  0  0  0  0  0  0  0  0  0
  -19.8700   24.0380    9.9930 C   0  0  0  0  0  3  0  0  0  0  0  0
  -19.7100   25.4270   10.1030 C   0  0  0  0  0  3  0  0  0  0  0  0
  -18.5260   26.0110   10.5990 C   0  0  0  0  0  0  0  0  0  0  0  0
  -17.5030   25.1150   10.9680 C   0  0  0  0  0  3  0  0  0  0  0  0
  -17.6590   23.7280   10.8580 C   0  0  0  0  0  3  0  0  0  0  0  0
  -18.3700   27.5670   10.7790 C   0  0  1  0  0  0  0  0  0  0  0  0
  -19.2970   28.5370    9.9840 C   0  0  0  0  0  2  0  0  0  0  0  0
  -19.1570   29.5230   11.1840 C   0  0  1  0  0  0  0  0  0  0  0  0
  -20.3950   30.3480   11.4870 C   0  0  0  0  0  1  0  0  0  0  0  0
  -18.9290   28.2580   12.0640 C   0  0  0  0  0  2  0  0  0  0  0  0
  -16.9390   27.9040   10.5600 N   0  0  0  0  0  4  0  0  0  0  0  0
  -16.3230   27.4420   11.2370 H   0  0  0  0  0  0  0  0  0  0  0  0
  -16.6220   27.6330    9.6210 H   0  0  0  0  0  0  0  0  0  0  0  0
  -16.7990   28.9290   10.6510 H   0  0  0  0  0  0  0  0  0  0  0  0
  -17.9750   30.3630   11.0890 O   0  0  0  0  0  0  0  0  0  0  0  0
  -18.1810   31.1780   11.5940 H   0  0  0  0  0  0  0  0  0  0  0  0
  -22.6870   20.1090   14.1630 C   0  0  0  0  0  1  0  0  0  0  0  0
  -22.7680   18.8670   14.8950 N   0  0  0  0  0  0  0  0  0  0  0  0
  -22.2540   17.6410   14.5560 C   0  0  0  0  0  0  0  0  0  0  0  0
  -22.5680   16.6380   15.1890 O   0  0  0  0  0  0  0  0  0  0  0  0
  -23.3500   18.8400   15.7250 H   0  0  0  0  0  0  0  0  0  0  0  0
  1 39  1  0  0  0  0
  2  1  1  0  0  0  0
  3  2  2  0  0  0  0
  4  5  2  0  0  0  0
  4  3  1  0  0  0  0
  5  6  1  0  0  0  0
  6  1  2  0  0  0  0
  7  8  2  0  0  0  0
  7  5  1  0  0  0  0
  9 20  1  0  0  0  0
  9  8  1  0  0  0  0
 10 11  1  0  0  0  0
 10  9  2  0  0  0  0
 11  7  1  0  0  0  0
 12 11  1  0  0  0  0
 12 13  1  0  0  0  0
 13  4  1  0  0  0  0
 14 19  1  0  0  0  0
 14 10  1  0  0  0  0
 15 14  2  0  0  0  0
 16 17  2  0  0  0  0
 16 15  1  0  0  0  0
 17 18  1  0  0  0  0
 18 19  2  0  0  0  0
 20 25  1  0  0  0  0
 21 22  1  0  0  0  0
 21 20  2  0  0  0  0
 22 23  2  0  0  0  0
 23 26  1  0  0  0  0
 23 24  1  0  0  0  0
 25 24  2  0  0  0  0
 26 31  1  6  0  0  0
 26 30  1  0  0  0  0
 27 26  1  0  0  0  0
 27 28  1  0  0  0  0
 28 29  1  1  0  0  0
 28 30  1  0  0  0  0
 31 34  1  0  0  0  0
 31 32  1  0  0  0  0
 33 31  1  0  0  0  0
 35 28  1  0  0  0  0
 35 36  1  0  0  0  0
 37 38  1  0  0  0  0
 38 41  1  0  0  0  0
 39 38  1  0  0  0  0
 39 40  2  0  0  0  0
M  END
>  <minimizedAffinity>
-11.5619097

$$$$
