
 OpenBabel11232420433D

 41 46  0  0  1  0  0  0  0  0999 V2000
  -19.7160   28.8010   12.4550 C   0  0  0  0  0  0  0  0  0  0  0  0
  -19.1210   29.5050   11.3990 C   0  0  0  0  0  3  0  0  0  0  0  0
  -18.6390   28.8120   10.2850 C   0  0  0  0  0  3  0  0  0  0  0  0
  -18.7260   27.4220   10.2440 C   0  0  0  0  0  0  0  0  0  0  0  0
  -19.3090   26.7190   11.3050 C   0  0  0  0  0  0  0  0  0  0  0  0
  -19.7980   27.4060   12.4160 C   0  0  0  0  0  3  0  0  0  0  0  0
  -19.3970   25.2840   11.1810 C   0  0  0  0  0  0  0  0  0  0  0  0
  -20.0390   24.4110   11.9220 N   0  0  0  0  0  0  0  0  0  0  0  0
  -19.7900   23.1800   11.3490 C   0  0  0  0  0  0  0  0  0  0  0  0
  -18.9710   23.3090   10.2310 C   0  0  0  0  0  0  0  0  0  0  0  0
  -18.7490   24.6660   10.1510 N   0  0  0  0  0  0  0  0  0  0  0  0
  -17.9170   25.4060    9.2200 C   0  0  0  0  0  2  0  0  0  0  0  0
  -18.2730   26.8010    9.1080 O   0  0  0  0  0  0  0  0  0  0  0  0
  -18.4500   22.3520    9.2650 C   0  0  0  0  0  0  0  0  0  0  0  0
  -19.2300   21.9490    8.1750 C   0  0  0  0  0  3  0  0  0  0  0  0
  -18.7310   21.0250    7.2550 C   0  0  0  0  0  3  0  0  0  0  0  0
  -17.4510   20.4980    7.4220 C   0  0  0  0  0  3  0  0  0  0  0  0
  -16.6670   20.8970    8.5050 C   0  0  0  0  0  3  0  0  0  0  0  0
  -17.1640   21.8220    9.4240 C   0  0  0  0  0  3  0  0  0  0  0  0
  -20.3650   21.9680   11.9140 C   0  0  0  0  0  0  0  0  0  0  0  0
  -19.6660   20.7640   12.0060 C   0  0  0  0  0  3  0  0  0  0  0  0
  -20.2550   19.6390   12.6010 C   0  0  0  0  0  3  0  0  0  0  0  0
  -21.5600   19.6670   13.1360 C   0  0  0  0  0  0  0  0  0  0  0  0
  -22.2450   20.8930   13.0300 C   0  0  0  0  0  3  0  0  0  0  0  0
  -21.6610   22.0180   12.4360 C   0  0  0  0  0  3  0  0  0  0  0  0
  -22.1970   18.4200   13.8570 C   0  0  1  0  0  0  0  0  0  0  0  0
  -22.8150   17.2660   13.0100 C   0  0  0  0  0  2  0  0  0  0  0  0
  -22.4080   16.3070   14.1700 C   0  0  1  0  0  0  0  0  0  0  0  0
  -21.9780   14.9180   13.7370 C   0  0  0  0  0  1  0  0  0  0  0  0
  -21.2700   17.3260   14.4760 C   0  0  0  0  0  2  0  0  0  0  0  0
  -23.1770   18.9300   14.8520 N   0  0  0  0  0  4  0  0  0  0  0  0
  -22.7350   19.5180   15.5670 H   0  0  0  0  0  0  0  0  0  0  0  0
  -23.9180   19.4860   14.4090 H   0  0  0  0  0  0  0  0  0  0  0  0
  -23.6350   18.1330   15.3370 H   0  0  0  0  0  0  0  0  0  0  0  0
  -23.4050   16.2450   15.2260 O   0  0  0  0  0  0  0  0  0  0  0  0
  -23.2920   15.3690   15.6530 H   0  0  0  0  0  0  0  0  0  0  0  0
  -17.8900   30.1050   14.4770 C   0  0  0  0  0  1  0  0  0  0  0  0
  -19.3260   29.9930   14.5820 N   0  0  0  0  0  0  0  0  0  0  0  0
  -20.2130   29.4980   13.6610 C   0  0  0  0  0  0  0  0  0  0  0  0
  -21.4210   29.6430   13.8190 O   0  0  0  0  0  0  0  0  0  0  0  0
  -19.7790   30.4080   15.3890 H   0  0  0  0  0  0  0  0  0  0  0  0
  1 39  1  0  0  0  0
  2  1  2  0  0  0  0
  3  2  1  0  0  0  0
  4  3  2  0  0  0  0
  4  5  1  0  0  0  0
  5  6  2  0  0  0  0
  6  1  1  0  0  0  0
  7  5  1  0  0  0  0
  7  8  2  0  0  0  0
  9 20  1  0  0  0  0
  9  8  1  0  0  0  0
 10  9  2  0  0  0  0
 11 10  1  0  0  0  0
 11  7  1  0  0  0  0
 12 11  1  0  0  0  0
 13 12  1  0  0  0  0
 13  4  1  0  0  0  0
 14 19  1  0  0  0  0
 14 10  1  0  0  0  0
 15 14  2  0  0  0  0
 16 17  2  0  0  0  0
 16 15  1  0  0  0  0
 17 18  1  0  0  0  0
 18 19  2  0  0  0  0
 20 21  2  0  0  0  0
 20 25  1  0  0  0  0
 21 22  1  0  0  0  0
 22 23  2  0  0  0  0
 23 26  1  0  0  0  0
 24 23  1  0  0  0  0
 25 24  2  0  0  0  0
 26 30  1  0  0  0  0
 26 31  1  1  0  0  0
 27 26  1  0  0  0  0
 27 28  1  0  0  0  0
 28 29  1  6  0  0  0
 28 30  1  0  0  0  0
 28 35  1  0  0  0  0
 31 34  1  0  0  0  0
 31 32  1  0  0  0  0
 33 31  1  0  0  0  0
 35 36  1  0  0  0  0
 37 38  1  0  0  0  0
 38 41  1  0  0  0  0
 39 40  2  0  0  0  0
 39 38  1  0  0  0  0
M  END
>  <minimizedAffinity>
-11.7044325

$$$$
