
 OpenBabel11232420433D

 41 46  0  0  1  0  0  0  0  0999 V2000
  -15.7170   19.8520    6.4360 C   0  0  0  0  0  0  0  0  0  0  0  0
  -16.1080   18.5130    6.3090 C   0  0  0  0  0  3  0  0  0  0  0  0
  -17.1550   18.0160    7.0900 C   0  0  0  0  0  3  0  0  0  0  0  0
  -17.7840   18.8480    8.0140 C   0  0  0  0  0  0  0  0  0  0  0  0
  -17.3840   20.1830    8.1500 C   0  0  0  0  0  0  0  0  0  0  0  0
  -16.3450   20.6860    7.3680 C   0  0  0  0  0  3  0  0  0  0  0  0
  -18.1010   20.9970    9.1010 C   0  0  0  0  0  0  0  0  0  0  0  0
  -18.0600   22.2940    9.3020 N   0  0  0  0  0  0  0  0  0  0  0  0
  -18.9540   22.5410   10.3260 C   0  0  0  0  0  0  0  0  0  0  0  0
  -19.5500   21.3610   10.7600 C   0  0  0  0  0  0  0  0  0  0  0  0
  -18.9880   20.4000    9.9500 N   0  0  0  0  0  0  0  0  0  0  0  0
  -19.1750   18.9610    9.9690 C   0  0  0  0  0  2  0  0  0  0  0  0
  -18.8310   18.3160    8.7230 O   0  0  0  0  0  0  0  0  0  0  0  0
  -20.5650   21.0720   11.7640 C   0  0  0  0  0  0  0  0  0  0  0  0
  -20.4170   19.9800   12.6280 C   0  0  0  0  0  3  0  0  0  0  0  0
  -21.3970   19.7010   13.5830 C   0  0  0  0  0  3  0  0  0  0  0  0
  -22.5280   20.5110   13.6780 C   0  0  0  0  0  3  0  0  0  0  0  0
  -22.6800   21.6010   12.8220 C   0  0  0  0  0  3  0  0  0  0  0  0
  -21.7010   21.8830   11.8680 C   0  0  0  0  0  3  0  0  0  0  0  0
  -19.1730   23.8970   10.8070 C   0  0  0  0  0  0  0  0  0  0  0  0
  -18.2380   24.5960   11.5690 C   0  0  0  0  0  3  0  0  0  0  0  0
  -18.4850   25.9170   11.9700 C   0  0  0  0  0  3  0  0  0  0  0  0
  -19.6680   26.6000   11.6210 C   0  0  0  0  0  0  0  0  0  0  0  0
  -20.5980   25.8730   10.8520 C   0  0  0  0  0  3  0  0  0  0  0  0
  -20.3560   24.5540   10.4520 C   0  0  0  0  0  3  0  0  0  0  0  0
  -19.9170   28.1030   12.0200 C   0  0  1  0  0  0  0  0  0  0  0  0
  -20.6910   28.4400   13.3310 C   0  0  0  0  0  2  0  0  0  0  0  0
  -19.8360   29.7420   13.4040 C   0  0  1  0  0  0  0  0  0  0  0  0
  -19.4680   30.1930   14.8060 C   0  0  0  0  0  1  0  0  0  0  0  0
  -18.7490   28.9500   12.6180 C   0  0  0  0  0  2  0  0  0  0  0  0
  -20.5370   28.7810   10.8510 N   0  0  0  0  0  4  0  0  0  0  0  0
  -19.9270   28.7690   10.0260 H   0  0  0  0  0  0  0  0  0  0  0  0
  -21.4280   28.3450   10.5830 H   0  0  0  0  0  0  0  0  0  0  0  0
  -20.7360   29.7740   11.0830 H   0  0  0  0  0  0  0  0  0  0  0  0
  -20.4040   30.8340   12.6310 O   0  0  0  0  0  0  0  0  0  0  0  0
  -20.0820   31.6590   13.0520 H   0  0  0  0  0  0  0  0  0  0  0  0
  -16.0800   21.9850    4.3280 C   0  0  0  0  0  1  0  0  0  0  0  0
  -14.8440   21.3090    4.6440 N   0  0  0  0  0  0  0  0  0  0  0  0
  -14.5970   20.4050    5.6460 C   0  0  0  0  0  0  0  0  0  0  0  0
  -13.4480   20.0620    5.9050 O   0  0  0  0  0  0  0  0  0  0  0  0
  -14.0080   21.5840    4.1390 H   0  0  0  0  0  0  0  0  0  0  0  0
  1  6  1  0  0  0  0
  2  1  2  0  0  0  0
  2  3  1  0  0  0  0
  3  4  2  0  0  0  0
  4  5  1  0  0  0  0
  4 13  1  0  0  0  0
  5  7  1  0  0  0  0
  6  5  2  0  0  0  0
  7  8  2  0  0  0  0
  7 11  1  0  0  0  0
  8  9  1  0  0  0  0
  9 10  2  0  0  0  0
  9 20  1  0  0  0  0
 10 14  1  0  0  0  0
 11 12  1  0  0  0  0
 11 10  1  0  0  0  0
 13 12  1  0  0  0  0
 14 19  2  0  0  0  0
 14 15  1  0  0  0  0
 15 16  2  0  0  0  0
 16 17  1  0  0  0  0
 18 17  2  0  0  0  0
 19 18  1  0  0  0  0
 20 21  1  0  0  0  0
 21 22  2  0  0  0  0
 23 22  1  0  0  0  0
 23 26  1  0  0  0  0
 24 23  2  0  0  0  0
 25 20  2  0  0  0  0
 25 24  1  0  0  0  0
 26 31  1  6  0  0  0
 26 30  1  0  0  0  0
 26 27  1  0  0  0  0
 27 28  1  0  0  0  0
 28 29  1  1  0  0  0
 30 28  1  0  0  0  0
 31 34  1  0  0  0  0
 32 31  1  0  0  0  0
 33 31  1  0  0  0  0
 35 36  1  0  0  0  0
 35 28  1  0  0  0  0
 37 38  1  0  0  0  0
 38 39  1  0  0  0  0
 39 40  2  0  0  0  0
 39  1  1  0  0  0  0
 41 38  1  0  0  0  0
M  END
>  <minimizedAffinity>
-10.3218317

$$$$
