
 OpenBabel11232420433D

 41 46  0  0  1  0  0  0  0  0999 V2000
  -20.1740   33.6040    6.7190 C   0  0  0  0  0  0  0  0  0  0  0  0
  -19.6550   34.8280    7.1630 C   0  0  0  0  0  3  0  0  0  0  0  0
  -19.0210   34.9050    8.4060 C   0  0  0  0  0  3  0  0  0  0  0  0
  -18.9370   33.7710    9.2110 C   0  0  0  0  0  0  0  0  0  0  0  0
  -19.4670   32.5520    8.7730 C   0  0  0  0  0  0  0  0  0  0  0  0
  -20.0950   32.4680    7.5300 C   0  0  0  0  0  3  0  0  0  0  0  0
  -19.3150   31.4110    9.6430 C   0  0  0  0  0  0  0  0  0  0  0  0
  -19.5500   30.1400    9.4150 N   0  0  0  0  0  0  0  0  0  0  0  0
  -19.2230   29.4840   10.5860 C   0  0  0  0  0  0  0  0  0  0  0  0
  -18.7820   30.3840   11.5520 C   0  0  0  0  0  0  0  0  0  0  0  0
  -18.8450   31.6010   10.9100 N   0  0  0  0  0  0  0  0  0  0  0  0
  -18.5630   32.9260   11.4280 C   0  0  0  0  0  2  0  0  0  0  0  0
  -18.2670   33.8980   10.4020 O   0  0  0  0  0  0  0  0  0  0  0  0
  -18.2910   30.2190   12.9130 C   0  0  0  0  0  0  0  0  0  0  0  0
  -16.9800   29.7870   13.1470 C   0  0  0  0  0  3  0  0  0  0  0  0
  -16.5160   29.6210   14.4530 C   0  0  0  0  0  3  0  0  0  0  0  0
  -17.3600   29.8850   15.5310 C   0  0  0  0  0  3  0  0  0  0  0  0
  -18.6660   30.3170   15.3050 C   0  0  0  0  0  3  0  0  0  0  0  0
  -19.1310   30.4850   14.0000 C   0  0  0  0  0  3  0  0  0  0  0  0
  -19.3540   28.0390   10.6880 C   0  0  0  0  0  0  0  0  0  0  0  0
  -18.4280   27.1490   10.1430 C   0  0  0  0  0  3  0  0  0  0  0  0
  -18.5830   25.7650   10.3090 C   0  0  0  0  0  3  0  0  0  0  0  0
  -19.6590   25.2090   11.0320 C   0  0  0  0  0  0  0  0  0  0  0  0
  -20.5800   26.1280   11.5720 C   0  0  0  0  0  3  0  0  0  0  0  0
  -20.4310   27.5100   11.4070 C   0  0  0  0  0  3  0  0  0  0  0  0
  -19.7970   23.6580   11.2690 C   0  0  1  0  0  0  0  0  0  0  0  0
  -20.0810   22.7110   10.0630 C   0  0  0  0  0  2  0  0  0  0  0  0
  -19.2910   21.6160   10.8420 C   0  0  1  0  0  0  0  0  0  0  0  0
  -18.4760   20.6730    9.9770 C   0  0  0  0  0  1  0  0  0  0  0  0
  -18.5190   22.7940   11.5080 C   0  0  0  0  0  2  0  0  0  0  0  0
  -20.8000   23.4570   12.3480 N   0  0  0  0  0  4  0  0  0  0  0  0
  -20.5120   23.8890   13.2320 H   0  0  0  0  0  0  0  0  0  0  0  0
  -21.7160   23.8500   12.0960 H   0  0  0  0  0  0  0  0  0  0  0  0
  -20.9350   22.4410   12.5190 H   0  0  0  0  0  0  0  0  0  0  0  0
  -20.1210   20.8840   11.7830 O   0  0  0  0  0  0  0  0  0  0  0  0
  -19.6970   20.0060   11.8910 H   0  0  0  0  0  0  0  0  0  0  0  0
  -23.1840   33.5600    6.4680 C   0  0  0  0  0  1  0  0  0  0  0  0
  -22.2420   33.3890    5.3870 N   0  0  0  0  0  0  0  0  0  0  0  0
  -20.8750   33.4910    5.4220 C   0  0  0  0  0  0  0  0  0  0  0  0
  -20.2240   33.5050    4.3820 O   0  0  0  0  0  0  0  0  0  0  0  0
  -22.6090   33.2690    4.4490 H   0  0  0  0  0  0  0  0  0  0  0  0
  1  2  2  0  0  0  0
  1  6  1  0  0  0  0
  2  3  1  0  0  0  0
  3  4  2  0  0  0  0
  4 13  1  0  0  0  0
  5  4  1  0  0  0  0
  5  7  1  0  0  0  0
  6  5  2  0  0  0  0
  7 11  1  0  0  0  0
  8  7  2  0  0  0  0
  8  9  1  0  0  0  0
  9 20  1  0  0  0  0
  9 10  2  0  0  0  0
 10 14  1  0  0  0  0
 11 12  1  0  0  0  0
 11 10  1  0  0  0  0
 13 12  1  0  0  0  0
 14 15  2  0  0  0  0
 14 19  1  0  0  0  0
 15 16  1  0  0  0  0
 16 17  2  0  0  0  0
 18 17  1  0  0  0  0
 19 18  2  0  0  0  0
 20 25  1  0  0  0  0
 21 22  1  0  0  0  0
 21 20  2  0  0  0  0
 22 23  2  0  0  0  0
 23 26  1  0  0  0  0
 23 24  1  0  0  0  0
 25 24  2  0  0  0  0
 26 30  1  0  0  0  0
 26 31  1  1  0  0  0
 27 28  1  0  0  0  0
 27 26  1  0  0  0  0
 28 29  1  6  0  0  0
 28 30  1  0  0  0  0
 28 35  1  0  0  0  0
 31 34  1  0  0  0  0
 31 32  1  0  0  0  0
 33 31  1  0  0  0  0
 35 36  1  0  0  0  0
 38 39  1  0  0  0  0
 38 37  1  0  0  0  0
 39  1  1  0  0  0  0
 40 39  2  0  0  0  0
 41 38  1  0  0  0  0
M  END
>  <minimizedAffinity>
-10.9766569

$$$$
