
 OpenBabel10152418393D

 32 35  0  0  0  0  0  0  0  0999 V2000
   -1.6870   -9.7730  -21.7460 C   0  0  0  0  0  0  0  0  0  0  0  0
   -1.6890   -8.7100  -20.8300 C   0  0  0  0  0  3  0  0  0  0  0  0
   -1.5740   -7.4110  -21.2940 C   0  0  0  0  0  3  0  0  0  0  0  0
   -1.4670   -7.1900  -22.6650 C   0  0  0  0  0  3  0  0  0  0  0  0
   -1.4810   -8.2640  -23.5970 C   0  0  0  0  0  0  0  0  0  0  0  0
   -1.4120   -8.1030  -24.9980 C   0  0  0  0  0  0  0  0  0  0  0  0
   -1.3460   -6.8330  -25.5580 N   0  0  0  0  0  0  0  0  0  0  0  0
   -1.3790   -9.1550  -25.8310 N   0  0  0  0  0  0  0  0  0  0  0  0
   -1.4760  -10.3660  -25.2810 C   0  0  0  0  0  3  0  0  0  0  0  0
   -1.6010  -10.6280  -23.9800 N   0  0  0  0  0  0  0  0  0  0  0  0
   -1.5810   -9.5860  -23.1310 C   0  0  0  0  0  0  0  0  0  0  0  0
   -1.8420   -6.0980  -25.0730 H   0  0  0  0  0  0  0  0  0  0  0  0
   -0.7750  -11.9890  -21.5510 N   0  0  0  0  0  0  0  0  0  0  0  0
   -1.7810  -11.1370  -21.1930 C   0  0  0  0  0  0  0  0  0  0  0  0
   -2.7290  -11.5010  -20.5100 O   0  0  0  0  0  0  0  0  0  0  0  0
   -0.8120  -12.9330  -21.1890 H   0  0  0  0  0  0  0  0  0  0  0  0
    0.0270  -11.7040  -22.0950 H   0  0  0  0  0  0  0  0  0  0  0  0
   -1.2280   -6.6600  -26.9960 C   0  0  0  0  0  2  0  0  0  0  0  0
    0.2260   -6.4280  -27.3420 C   0  0  0  0  0  0  0  0  0  0  0  0
    0.7100   -5.1520  -27.6410 C   0  0  0  0  0  3  0  0  0  0  0  0
    2.0530   -4.9770  -27.9700 C   0  0  0  0  0  3  0  0  0  0  0  0
    2.9190   -6.0750  -28.0130 C   0  0  0  0  0  3  0  0  0  0  0  0
    2.4630   -7.3650  -27.7310 C   0  0  0  0  0  0  0  0  0  0  0  0
    1.1150   -7.5180  -27.3770 C   0  0  0  0  0  3  0  0  0  0  0  0
    3.2760   -8.5040  -27.7530 N   0  0  0  0  0  0  0  0  0  0  0  0
    3.3380   -9.6760  -27.0060 C   0  0  0  0  0  0  0  0  0  0  0  0
    2.2490  -10.2170  -26.3340 C   0  0  0  0  0  3  0  0  0  0  0  0
    2.4060  -11.3980  -25.6080 C   0  0  0  0  0  3  0  0  0  0  0  0
    3.6490  -12.0120  -25.5740 C   0  0  0  0  0  3  0  0  0  0  0  0
    4.6780  -11.4250  -26.2850 C   0  0  0  0  0  3  0  0  0  0  0  0
    4.5450  -10.2870  -27.0010 N   0  0  0  0  0  0  0  0  0  0  0  0
    4.1400   -8.4020  -28.2740 H   0  0  0  0  0  0  0  0  0  0  0  0
  1 14  1  0  0  0  0
  1  2  1  0  0  0  0
  3  2  2  0  0  0  0
  4  3  1  0  0  0  0
  5 11  1  0  0  0  0
  5  4  2  0  0  0  0
  6  5  1  0  0  0  0
  7 12  1  0  0  0  0
  7  6  1  0  0  0  0
  8  9  1  0  0  0  0
  8  6  2  0  0  0  0
  9 10  2  0  0  0  0
 10 11  1  0  0  0  0
 11  1  2  0  0  0  0
 13 14  1  0  0  0  0
 13 16  1  0  0  0  0
 14 15  2  0  0  0  0
 17 13  1  0  0  0  0
 18  7  1  0  0  0  0
 19 18  1  0  0  0  0
 20 19  2  0  0  0  0
 21 20  1  0  0  0  0
 22 21  2  0  0  0  0
 22 23  1  0  0  0  0
 23 24  2  0  0  0  0
 24 19  1  0  0  0  0
 25 23  1  0  0  0  0
 25 26  1  0  0  0  0
 26 31  2  0  0  0  0
 26 27  1  0  0  0  0
 27 28  2  0  0  0  0
 28 29  1  0  0  0  0
 30 29  2  0  0  0  0
 31 30  1  0  0  0  0
 32 25  1  0  0  0  0
M  END
>  <minimizedAffinity>
-8.50923157

$$$$
