
 OpenBabel10152418393D

 32 35  0  0  0  0  0  0  0  0999 V2000
   -1.3880  -11.0190  -21.8220 C   0  0  0  0  0  0  0  0  0  0  0  0
   -1.0310  -12.0250  -22.7330 C   0  0  0  0  0  3  0  0  0  0  0  0
   -0.6760  -11.6790  -24.0250 C   0  0  0  0  0  3  0  0  0  0  0  0
   -0.6730  -10.3350  -24.3890 C   0  0  0  0  0  3  0  0  0  0  0  0
   -1.0180   -9.3110  -23.4620 C   0  0  0  0  0  0  0  0  0  0  0  0
   -1.0000   -7.9310  -23.7590 C   0  0  0  0  0  0  0  0  0  0  0  0
   -0.6070   -7.4860  -25.0160 N   0  0  0  0  0  0  0  0  0  0  0  0
   -1.3820   -7.0090  -22.8610 N   0  0  0  0  0  0  0  0  0  0  0  0
   -1.7260   -7.4490  -21.6500 C   0  0  0  0  0  3  0  0  0  0  0  0
   -1.7250   -8.7210  -21.2490 N   0  0  0  0  0  0  0  0  0  0  0  0
   -1.3950   -9.6580  -22.1540 C   0  0  0  0  0  0  0  0  0  0  0  0
    0.1050   -8.0270  -25.4850 H   0  0  0  0  0  0  0  0  0  0  0  0
   -0.8030  -12.0390  -19.7250 N   0  0  0  0  0  0  0  0  0  0  0  0
   -1.7860  -11.4490  -20.4690 C   0  0  0  0  0  0  0  0  0  0  0  0
   -2.9350  -11.3440  -20.0610 O   0  0  0  0  0  0  0  0  0  0  0  0
   -1.0450  -12.3470  -18.7920 H   0  0  0  0  0  0  0  0  0  0  0  0
    0.1560  -12.1160  -20.0330 H   0  0  0  0  0  0  0  0  0  0  0  0
   -0.6290   -6.0700  -25.3430 C   0  0  0  0  0  2  0  0  0  0  0  0
    0.3140   -5.8230  -26.4990 C   0  0  0  0  0  0  0  0  0  0  0  0
    0.1950   -4.6910  -27.3090 C   0  0  0  0  0  3  0  0  0  0  0  0
    1.0730   -4.5020  -28.3750 C   0  0  0  0  0  3  0  0  0  0  0  0
    2.0680   -5.4470  -28.6460 C   0  0  0  0  0  3  0  0  0  0  0  0
    2.2060   -6.5950  -27.8630 C   0  0  0  0  0  0  0  0  0  0  0  0
    1.3310   -6.7550  -26.7800 C   0  0  0  0  0  3  0  0  0  0  0  0
    3.1810   -7.5770  -28.0780 N   0  0  0  0  0  0  0  0  0  0  0  0
    3.6150   -8.2970  -29.1860 C   0  0  0  0  0  0  0  0  0  0  0  0
    3.4920   -7.8420  -30.4940 C   0  0  0  0  0  3  0  0  0  0  0  0
    3.9570   -8.6340  -31.5440 C   0  0  0  0  0  3  0  0  0  0  0  0
    4.5380   -9.8620  -31.2620 C   0  0  0  0  0  3  0  0  0  0  0  0
    4.6440  -10.2350  -29.9350 C   0  0  0  0  0  3  0  0  0  0  0  0
    4.2080   -9.4790  -28.9030 N   0  0  0  0  0  0  0  0  0  0  0  0
    3.5220   -8.0320  -27.2380 H   0  0  0  0  0  0  0  0  0  0  0  0
  1 14  1  0  0  0  0
  2  1  2  0  0  0  0
  3  2  1  0  0  0  0
  4  3  2  0  0  0  0
  4  5  1  0  0  0  0
  5 11  1  0  0  0  0
  6  5  2  0  0  0  0
  6  8  1  0  0  0  0
  7  6  1  0  0  0  0
  8  9  2  0  0  0  0
  9 10  1  0  0  0  0
 11  1  1  0  0  0  0
 11 10  2  0  0  0  0
 12  7  1  0  0  0  0
 13 16  1  0  0  0  0
 14 15  2  0  0  0  0
 14 13  1  0  0  0  0
 17 13  1  0  0  0  0
 18  7  1  0  0  0  0
 19 18  1  0  0  0  0
 20 19  2  0  0  0  0
 21 20  1  0  0  0  0
 22 21  2  0  0  0  0
 22 23  1  0  0  0  0
 23 24  2  0  0  0  0
 24 19  1  0  0  0  0
 25 23  1  0  0  0  0
 25 32  1  0  0  0  0
 26 31  1  0  0  0  0
 26 25  1  0  0  0  0
 27 26  2  0  0  0  0
 28 29  2  0  0  0  0
 28 27  1  0  0  0  0
 29 30  1  0  0  0  0
 30 31  2  0  0  0  0
M  END
>  <minimizedAffinity>
-10.2598515

$$$$

 OpenBabel10152418393D

 32 35  0  0  0  0  0  0  0  0999 V2000
   -1.6870   -9.7730  -21.7460 C   0  0  0  0  0  0  0  0  0  0  0  0
   -1.6890   -8.7100  -20.8300 C   0  0  0  0  0  3  0  0  0  0  0  0
   -1.5740   -7.4110  -21.2940 C   0  0  0  0  0  3  0  0  0  0  0  0
   -1.4670   -7.1900  -22.6650 C   0  0  0  0  0  3  0  0  0  0  0  0
   -1.4810   -8.2640  -23.5970 C   0  0  0  0  0  0  0  0  0  0  0  0
   -1.4120   -8.1030  -24.9980 C   0  0  0  0  0  0  0  0  0  0  0  0
   -1.3460   -6.8330  -25.5580 N   0  0  0  0  0  0  0  0  0  0  0  0
   -1.3790   -9.1550  -25.8310 N   0  0  0  0  0  0  0  0  0  0  0  0
   -1.4760  -10.3660  -25.2810 C   0  0  0  0  0  3  0  0  0  0  0  0
   -1.6010  -10.6280  -23.9800 N   0  0  0  0  0  0  0  0  0  0  0  0
   -1.5810   -9.5860  -23.1310 C   0  0  0  0  0  0  0  0  0  0  0  0
   -1.8420   -6.0980  -25.0730 H   0  0  0  0  0  0  0  0  0  0  0  0
   -0.7750  -11.9890  -21.5510 N   0  0  0  0  0  0  0  0  0  0  0  0
   -1.7810  -11.1370  -21.1930 C   0  0  0  0  0  0  0  0  0  0  0  0
   -2.7290  -11.5010  -20.5100 O   0  0  0  0  0  0  0  0  0  0  0  0
   -0.8120  -12.9330  -21.1890 H   0  0  0  0  0  0  0  0  0  0  0  0
    0.0270  -11.7040  -22.0950 H   0  0  0  0  0  0  0  0  0  0  0  0
   -1.2280   -6.6600  -26.9960 C   0  0  0  0  0  2  0  0  0  0  0  0
    0.2260   -6.4280  -27.3420 C   0  0  0  0  0  0  0  0  0  0  0  0
    0.7100   -5.1520  -27.6410 C   0  0  0  0  0  3  0  0  0  0  0  0
    2.0530   -4.9770  -27.9700 C   0  0  0  0  0  3  0  0  0  0  0  0
    2.9190   -6.0750  -28.0130 C   0  0  0  0  0  3  0  0  0  0  0  0
    2.4630   -7.3650  -27.7310 C   0  0  0  0  0  0  0  0  0  0  0  0
    1.1150   -7.5180  -27.3770 C   0  0  0  0  0  3  0  0  0  0  0  0
    3.2760   -8.5040  -27.7530 N   0  0  0  0  0  0  0  0  0  0  0  0
    3.3380   -9.6760  -27.0060 C   0  0  0  0  0  0  0  0  0  0  0  0
    2.2490  -10.2170  -26.3340 C   0  0  0  0  0  3  0  0  0  0  0  0
    2.4060  -11.3980  -25.6080 C   0  0  0  0  0  3  0  0  0  0  0  0
    3.6490  -12.0120  -25.5740 C   0  0  0  0  0  3  0  0  0  0  0  0
    4.6780  -11.4250  -26.2850 C   0  0  0  0  0  3  0  0  0  0  0  0
    4.5450  -10.2870  -27.0010 N   0  0  0  0  0  0  0  0  0  0  0  0
    4.1400   -8.4020  -28.2740 H   0  0  0  0  0  0  0  0  0  0  0  0
  1 14  1  0  0  0  0
  1  2  1  0  0  0  0
  3  2  2  0  0  0  0
  4  3  1  0  0  0  0
  5 11  1  0  0  0  0
  5  4  2  0  0  0  0
  6  5  1  0  0  0  0
  7 12  1  0  0  0  0
  7  6  1  0  0  0  0
  8  9  1  0  0  0  0
  8  6  2  0  0  0  0
  9 10  2  0  0  0  0
 10 11  1  0  0  0  0
 11  1  2  0  0  0  0
 13 14  1  0  0  0  0
 13 16  1  0  0  0  0
 14 15  2  0  0  0  0
 17 13  1  0  0  0  0
 18  7  1  0  0  0  0
 19 18  1  0  0  0  0
 20 19  2  0  0  0  0
 21 20  1  0  0  0  0
 22 21  2  0  0  0  0
 22 23  1  0  0  0  0
 23 24  2  0  0  0  0
 24 19  1  0  0  0  0
 25 23  1  0  0  0  0
 25 26  1  0  0  0  0
 26 31  2  0  0  0  0
 26 27  1  0  0  0  0
 27 28  2  0  0  0  0
 28 29  1  0  0  0  0
 30 29  2  0  0  0  0
 31 30  1  0  0  0  0
 32 25  1  0  0  0  0
M  END
>  <minimizedAffinity>
-8.50923157

$$$$

 OpenBabel10152418393D

 32 35  0  0  0  0  0  0  0  0999 V2000
   -0.9960   -9.3180  -24.2390 C   0  0  0  0  0  0  0  0  0  0  0  0
   -1.8650  -10.3540  -24.6160 C   0  0  0  0  0  3  0  0  0  0  0  0
   -1.4420  -11.2950  -25.5390 C   0  0  0  0  0  3  0  0  0  0  0  0
   -0.1570  -11.1950  -26.0660 C   0  0  0  0  0  3  0  0  0  0  0  0
    0.7320  -10.1560  -25.6720 C   0  0  0  0  0  0  0  0  0  0  0  0
    2.0560  -10.0210  -26.1430 C   0  0  0  0  0  0  0  0  0  0  0  0
    2.5840  -10.9490  -27.0330 N   0  0  0  0  0  0  0  0  0  0  0  0
    2.8360   -8.9930  -25.7770 N   0  0  0  0  0  0  0  0  0  0  0  0
    2.3260   -8.1290  -24.8980 C   0  0  0  0  0  3  0  0  0  0  0  0
    1.1120   -8.1930  -24.3500 N   0  0  0  0  0  0  0  0  0  0  0  0
    0.3020   -9.1880  -24.7490 C   0  0  0  0  0  0  0  0  0  0  0  0
    2.2670  -11.9030  -26.9340 H   0  0  0  0  0  0  0  0  0  0  0  0
   -1.0080   -8.4210  -22.0080 N   0  0  0  0  0  0  0  0  0  0  0  0
   -1.5120   -8.3270  -23.2750 C   0  0  0  0  0  0  0  0  0  0  0  0
   -2.3780   -7.5160  -23.5720 O   0  0  0  0  0  0  0  0  0  0  0  0
   -1.3430   -7.7560  -21.3230 H   0  0  0  0  0  0  0  0  0  0  0  0
   -0.2780   -9.0680  -21.7470 H   0  0  0  0  0  0  0  0  0  0  0  0
    3.9310  -10.7930  -27.5570 C   0  0  0  0  0  2  0  0  0  0  0  0
    3.9010   -9.7830  -28.6840 C   0  0  0  0  0  0  0  0  0  0  0  0
    4.2690  -10.1320  -29.9850 C   0  0  0  0  0  3  0  0  0  0  0  0
    4.2440   -9.1730  -30.9960 C   0  0  0  0  0  3  0  0  0  0  0  0
    3.8620   -7.8570  -30.7120 C   0  0  0  0  0  3  0  0  0  0  0  0
    3.4990   -7.4740  -29.4180 C   0  0  0  0  0  0  0  0  0  0  0  0
    3.5060   -8.4580  -28.4200 C   0  0  0  0  0  3  0  0  0  0  0  0
    3.1050   -6.1770  -29.0680 N   0  0  0  0  0  0  0  0  0  0  0  0
    2.0110   -5.6340  -28.4030 C   0  0  0  0  0  0  0  0  0  0  0  0
    1.2520   -6.3350  -27.4740 C   0  0  0  0  0  3  0  0  0  0  0  0
    0.1700   -5.7080  -26.8560 C   0  0  0  0  0  3  0  0  0  0  0  0
   -0.1260   -4.3920  -27.1790 C   0  0  0  0  0  3  0  0  0  0  0  0
    0.6890   -3.7550  -28.0960 C   0  0  0  0  0  3  0  0  0  0  0  0
    1.7470   -4.3420  -28.6990 N   0  0  0  0  0  0  0  0  0  0  0  0
    3.5880   -5.4360  -29.5640 H   0  0  0  0  0  0  0  0  0  0  0  0
  1 14  1  0  0  0  0
  2  1  1  0  0  0  0
  3  2  2  0  0  0  0
  4  5  2  0  0  0  0
  4  3  1  0  0  0  0
  5 11  1  0  0  0  0
  6  8  2  0  0  0  0
  6  5  1  0  0  0  0
  7 12  1  0  0  0  0
  7  6  1  0  0  0  0
  8  9  1  0  0  0  0
  9 10  2  0  0  0  0
 11 10  1  0  0  0  0
 11  1  2  0  0  0  0
 13 17  1  0  0  0  0
 13 16  1  0  0  0  0
 14 13  1  0  0  0  0
 15 14  2  0  0  0  0
 18  7  1  0  0  0  0
 19 24  1  0  0  0  0
 19 18  1  0  0  0  0
 20 19  2  0  0  0  0
 21 22  2  0  0  0  0
 21 20  1  0  0  0  0
 22 23  1  0  0  0  0
 23 25  1  0  0  0  0
 23 24  2  0  0  0  0
 25 26  1  0  0  0  0
 26 27  1  0  0  0  0
 27 28  2  0  0  0  0
 29 28  1  0  0  0  0
 30 29  2  0  0  0  0
 31 26  2  0  0  0  0
 31 30  1  0  0  0  0
 32 25  1  0  0  0  0
M  END
>  <minimizedAffinity>
-8.49890709

$$$$

 OpenBabel10152418393D

 32 35  0  0  0  0  0  0  0  0999 V2000
   -1.2340  -11.1700  -21.5720 C   0  0  0  0  0  0  0  0  0  0  0  0
   -0.2340  -11.9950  -22.1110 C   0  0  0  0  0  3  0  0  0  0  0  0
    0.4400  -11.5910  -23.2510 C   0  0  0  0  0  3  0  0  0  0  0  0
    0.1160  -10.3680  -23.8310 C   0  0  0  0  0  3  0  0  0  0  0  0
   -0.8850   -9.5220  -23.2770 C   0  0  0  0  0  0  0  0  0  0  0  0
   -1.2350   -8.2570  -23.7980 C   0  0  0  0  0  0  0  0  0  0  0  0
   -0.5750   -7.7470  -24.9100 N   0  0  0  0  0  0  0  0  0  0  0  0
   -2.2220   -7.5210  -23.2650 N   0  0  0  0  0  0  0  0  0  0  0  0
   -2.8240   -8.0090  -22.1790 C   0  0  0  0  0  3  0  0  0  0  0  0
   -2.5350   -9.1620  -21.5750 N   0  0  0  0  0  0  0  0  0  0  0  0
   -1.5850   -9.9340  -22.1300 C   0  0  0  0  0  0  0  0  0  0  0  0
    0.4010   -7.9870  -25.0070 H   0  0  0  0  0  0  0  0  0  0  0  0
   -3.2800  -11.8860  -20.5320 N   0  0  0  0  0  0  0  0  0  0  0  0
   -1.9400  -11.6650  -20.3760 C   0  0  0  0  0  0  0  0  0  0  0  0
   -1.3790  -11.8090  -19.2980 O   0  0  0  0  0  0  0  0  0  0  0  0
   -3.7930  -12.2250  -19.7290 H   0  0  0  0  0  0  0  0  0  0  0  0
   -3.7580  -11.7960  -21.4170 H   0  0  0  0  0  0  0  0  0  0  0  0
   -0.9600   -6.4660  -25.4790 C   0  0  0  0  0  2  0  0  0  0  0  0
    0.0760   -6.0570  -26.5030 C   0  0  0  0  0  0  0  0  0  0  0  0
    0.0440   -4.8000  -27.1110 C   0  0  0  0  0  3  0  0  0  0  0  0
    1.0050   -4.4630  -28.0620 C   0  0  0  0  0  3  0  0  0  0  0  0
    1.9990   -5.3810  -28.4200 C   0  0  0  0  0  3  0  0  0  0  0  0
    2.0500   -6.6510  -27.8380 C   0  0  0  0  0  0  0  0  0  0  0  0
    1.0910   -6.9630  -26.8660 C   0  0  0  0  0  3  0  0  0  0  0  0
    3.0180   -7.6140  -28.1490 N   0  0  0  0  0  0  0  0  0  0  0  0
    3.3040   -8.8950  -27.6900 C   0  0  0  0  0  0  0  0  0  0  0  0
    2.3550   -9.7360  -27.1180 C   0  0  0  0  0  3  0  0  0  0  0  0
    2.7350  -11.0060  -26.6850 C   0  0  0  0  0  3  0  0  0  0  0  0
    4.0530  -11.4090  -26.8370 C   0  0  0  0  0  3  0  0  0  0  0  0
    4.9320  -10.5250  -27.4350 C   0  0  0  0  0  3  0  0  0  0  0  0
    4.5830   -9.2940  -27.8690 N   0  0  0  0  0  0  0  0  0  0  0  0
    3.8180   -7.2650  -28.6640 H   0  0  0  0  0  0  0  0  0  0  0  0
  1 14  1  0  0  0  0
  2  1  1  0  0  0  0
  3  2  2  0  0  0  0
  4  5  2  0  0  0  0
  4  3  1  0  0  0  0
  5 11  1  0  0  0  0
  6  5  1  0  0  0  0
  6  8  2  0  0  0  0
  7  6  1  0  0  0  0
  8  9  1  0  0  0  0
  9 10  2  0  0  0  0
 11 10  1  0  0  0  0
 11  1  2  0  0  0  0
 12  7  1  0  0  0  0
 13 14  1  0  0  0  0
 13 16  1  0  0  0  0
 14 15  2  0  0  0  0
 17 13  1  0  0  0  0
 18  7  1  0  0  0  0
 19 18  1  0  0  0  0
 20 19  2  0  0  0  0
 21 20  1  0  0  0  0
 22 21  2  0  0  0  0
 22 23  1  0  0  0  0
 23 24  2  0  0  0  0
 24 19  1  0  0  0  0
 25 23  1  0  0  0  0
 25 26  1  0  0  0  0
 26 27  1  0  0  0  0
 27 28  2  0  0  0  0
 29 28  1  0  0  0  0
 30 29  2  0  0  0  0
 31 26  2  0  0  0  0
 31 30  1  0  0  0  0
 32 25  1  0  0  0  0
M  END
>  <minimizedAffinity>
-8.22991943

$$$$

 OpenBabel10152418393D

 32 35  0  0  0  0  0  0  0  0999 V2000
    0.0180   -6.1530  -25.6270 C   0  0  0  0  0  0  0  0  0  0  0  0
   -0.8000   -5.3170  -26.4020 C   0  0  0  0  0  3  0  0  0  0  0  0
   -0.4210   -5.0030  -27.6960 C   0  0  0  0  0  3  0  0  0  0  0  0
    0.7640   -5.5320  -28.2010 C   0  0  0  0  0  3  0  0  0  0  0  0
    1.5870   -6.3930  -27.4230 C   0  0  0  0  0  0  0  0  0  0  0  0
    2.7790   -6.9880  -27.8890 C   0  0  0  0  0  0  0  0  0  0  0  0
    3.2120   -6.7710  -29.1920 N   0  0  0  0  0  0  0  0  0  0  0  0
    3.5450   -7.7540  -27.0960 N   0  0  0  0  0  0  0  0  0  0  0  0
    3.1000   -7.9800  -25.8590 C   0  0  0  0  0  3  0  0  0  0  0  0
    1.9650   -7.5140  -25.3380 N   0  0  0  0  0  0  0  0  0  0  0  0
    1.2160   -6.7030  -26.1030 C   0  0  0  0  0  0  0  0  0  0  0  0
    2.4950   -6.6580  -29.8940 H   0  0  0  0  0  0  0  0  0  0  0  0
    0.1550   -5.6530  -23.2790 N   0  0  0  0  0  0  0  0  0  0  0  0
   -0.4210   -6.4290  -24.2460 C   0  0  0  0  0  0  0  0  0  0  0  0
   -1.2000   -7.3330  -23.9760 O   0  0  0  0  0  0  0  0  0  0  0  0
   -0.1240   -5.8190  -22.3210 H   0  0  0  0  0  0  0  0  0  0  0  0
    0.7830   -4.8880  -23.4810 H   0  0  0  0  0  0  0  0  0  0  0  0
    4.4610   -7.3430  -29.6650 C   0  0  0  0  0  2  0  0  0  0  0  0
    4.3030   -8.8450  -29.7610 C   0  0  0  0  0  0  0  0  0  0  0  0
    4.3190   -9.5020  -30.9930 C   0  0  0  0  0  3  0  0  0  0  0  0
    4.1550  -10.8860  -31.0450 C   0  0  0  0  0  3  0  0  0  0  0  0
    3.9660  -11.6200  -29.8690 C   0  0  0  0  0  3  0  0  0  0  0  0
    3.9340  -10.9900  -28.6220 C   0  0  0  0  0  0  0  0  0  0  0  0
    4.1250   -9.6020  -28.5870 C   0  0  0  0  0  3  0  0  0  0  0  0
    3.7510  -11.6650  -27.4100 N   0  0  0  0  0  0  0  0  0  0  0  0
    2.8170  -11.5920  -26.3810 C   0  0  0  0  0  0  0  0  0  0  0  0
    1.5180  -11.1300  -26.5550 C   0  0  0  0  0  3  0  0  0  0  0  0
    0.6500  -11.0920  -25.4630 C   0  0  0  0  0  3  0  0  0  0  0  0
    1.1010  -11.5200  -24.2240 C   0  0  0  0  0  3  0  0  0  0  0  0
    2.3990  -11.9850  -24.1350 C   0  0  0  0  0  3  0  0  0  0  0  0
    3.2530  -12.0390  -25.1820 N   0  0  0  0  0  0  0  0  0  0  0  0
    4.5610  -12.1790  -27.0800 H   0  0  0  0  0  0  0  0  0  0  0  0
  1 14  1  0  0  0  0
  2  1  2  0  0  0  0
  3  2  1  0  0  0  0
  4  3  2  0  0  0  0
  4  5  1  0  0  0  0
  5 11  1  0  0  0  0
  6  5  2  0  0  0  0
  6  8  1  0  0  0  0
  7  6  1  0  0  0  0
  8  9  2  0  0  0  0
  9 10  1  0  0  0  0
 11  1  1  0  0  0  0
 11 10  2  0  0  0  0
 12  7  1  0  0  0  0
 13 16  1  0  0  0  0
 14 15  2  0  0  0  0
 14 13  1  0  0  0  0
 17 13  1  0  0  0  0
 18  7  1  0  0  0  0
 19 18  1  0  0  0  0
 19 24  1  0  0  0  0
 20 19  2  0  0  0  0
 21 20  1  0  0  0  0
 21 22  2  0  0  0  0
 22 23  1  0  0  0  0
 23 24  2  0  0  0  0
 23 25  1  0  0  0  0
 25 32  1  0  0  0  0
 25 26  1  0  0  0  0
 26 31  1  0  0  0  0
 27 26  2  0  0  0  0
 27 28  1  0  0  0  0
 28 29  2  0  0  0  0
 29 30  1  0  0  0  0
 31 30  2  0  0  0  0
M  END
>  <minimizedAffinity>
-7.49636936

$$$$
