
 OpenBabel10152418393D

 32 35  0  0  0  0  0  0  0  0999 V2000
   -0.9960   -9.3180  -24.2390 C   0  0  0  0  0  0  0  0  0  0  0  0
   -1.8650  -10.3540  -24.6160 C   0  0  0  0  0  3  0  0  0  0  0  0
   -1.4420  -11.2950  -25.5390 C   0  0  0  0  0  3  0  0  0  0  0  0
   -0.1570  -11.1950  -26.0660 C   0  0  0  0  0  3  0  0  0  0  0  0
    0.7320  -10.1560  -25.6720 C   0  0  0  0  0  0  0  0  0  0  0  0
    2.0560  -10.0210  -26.1430 C   0  0  0  0  0  0  0  0  0  0  0  0
    2.5840  -10.9490  -27.0330 N   0  0  0  0  0  0  0  0  0  0  0  0
    2.8360   -8.9930  -25.7770 N   0  0  0  0  0  0  0  0  0  0  0  0
    2.3260   -8.1290  -24.8980 C   0  0  0  0  0  3  0  0  0  0  0  0
    1.1120   -8.1930  -24.3500 N   0  0  0  0  0  0  0  0  0  0  0  0
    0.3020   -9.1880  -24.7490 C   0  0  0  0  0  0  0  0  0  0  0  0
    2.2670  -11.9030  -26.9340 H   0  0  0  0  0  0  0  0  0  0  0  0
   -1.0080   -8.4210  -22.0080 N   0  0  0  0  0  0  0  0  0  0  0  0
   -1.5120   -8.3270  -23.2750 C   0  0  0  0  0  0  0  0  0  0  0  0
   -2.3780   -7.5160  -23.5720 O   0  0  0  0  0  0  0  0  0  0  0  0
   -1.3430   -7.7560  -21.3230 H   0  0  0  0  0  0  0  0  0  0  0  0
   -0.2780   -9.0680  -21.7470 H   0  0  0  0  0  0  0  0  0  0  0  0
    3.9310  -10.7930  -27.5570 C   0  0  0  0  0  2  0  0  0  0  0  0
    3.9010   -9.7830  -28.6840 C   0  0  0  0  0  0  0  0  0  0  0  0
    4.2690  -10.1320  -29.9850 C   0  0  0  0  0  3  0  0  0  0  0  0
    4.2440   -9.1730  -30.9960 C   0  0  0  0  0  3  0  0  0  0  0  0
    3.8620   -7.8570  -30.7120 C   0  0  0  0  0  3  0  0  0  0  0  0
    3.4990   -7.4740  -29.4180 C   0  0  0  0  0  0  0  0  0  0  0  0
    3.5060   -8.4580  -28.4200 C   0  0  0  0  0  3  0  0  0  0  0  0
    3.1050   -6.1770  -29.0680 N   0  0  0  0  0  0  0  0  0  0  0  0
    2.0110   -5.6340  -28.4030 C   0  0  0  0  0  0  0  0  0  0  0  0
    1.2520   -6.3350  -27.4740 C   0  0  0  0  0  3  0  0  0  0  0  0
    0.1700   -5.7080  -26.8560 C   0  0  0  0  0  3  0  0  0  0  0  0
   -0.1260   -4.3920  -27.1790 C   0  0  0  0  0  3  0  0  0  0  0  0
    0.6890   -3.7550  -28.0960 C   0  0  0  0  0  3  0  0  0  0  0  0
    1.7470   -4.3420  -28.6990 N   0  0  0  0  0  0  0  0  0  0  0  0
    3.5880   -5.4360  -29.5640 H   0  0  0  0  0  0  0  0  0  0  0  0
  1 14  1  0  0  0  0
  2  1  1  0  0  0  0
  3  2  2  0  0  0  0
  4  5  2  0  0  0  0
  4  3  1  0  0  0  0
  5 11  1  0  0  0  0
  6  8  2  0  0  0  0
  6  5  1  0  0  0  0
  7 12  1  0  0  0  0
  7  6  1  0  0  0  0
  8  9  1  0  0  0  0
  9 10  2  0  0  0  0
 11 10  1  0  0  0  0
 11  1  2  0  0  0  0
 13 17  1  0  0  0  0
 13 16  1  0  0  0  0
 14 13  1  0  0  0  0
 15 14  2  0  0  0  0
 18  7  1  0  0  0  0
 19 24  1  0  0  0  0
 19 18  1  0  0  0  0
 20 19  2  0  0  0  0
 21 22  2  0  0  0  0
 21 20  1  0  0  0  0
 22 23  1  0  0  0  0
 23 25  1  0  0  0  0
 23 24  2  0  0  0  0
 25 26  1  0  0  0  0
 26 27  1  0  0  0  0
 27 28  2  0  0  0  0
 29 28  1  0  0  0  0
 30 29  2  0  0  0  0
 31 26  2  0  0  0  0
 31 30  1  0  0  0  0
 32 25  1  0  0  0  0
M  END
>  <minimizedAffinity>
-8.49890709

$$$$
