
 OpenBabel10152419533D

 39 42  0  0  0  0  0  0  0  0999 V2000
   -0.2460   -6.2380  -27.3940 C   0  0  0  0  0  0  0  0  0  0  0  0
   -0.1940   -4.9410  -26.8740 C   0  0  0  0  0  3  0  0  0  0  0  0
    0.8720   -4.1020  -27.1860 C   0  0  0  0  0  3  0  0  0  0  0  0
    1.9060   -4.5500  -28.0150 C   0  0  0  0  0  3  0  0  0  0  0  0
    1.8970   -5.8510  -28.5170 C   0  0  0  0  0  0  0  0  0  0  0  0
    0.8090   -6.6830  -28.2100 C   0  0  0  0  0  3  0  0  0  0  0  0
    2.8720   -6.3870  -29.3790 N   0  0  0  0  0  0  0  0  0  0  0  0
    3.7240   -7.4600  -29.2780 C   0  0  0  0  0  0  0  0  0  0  0  0
    4.6700   -7.5670  -30.0580 O   0  0  0  0  0  0  0  0  0  0  0  0
    3.0290   -5.8840  -30.2450 H   0  0  0  0  0  0  0  0  0  0  0  0
    3.5310   -8.5300  -28.2950 C   0  0  0  0  0  0  0  0  0  0  0  0
    3.3280   -8.1900  -26.9520 C   0  0  0  0  0  3  0  0  0  0  0  0
    3.1830   -9.1990  -25.9960 C   0  0  0  0  0  3  0  0  0  0  0  0
    3.2560  -10.5530  -26.3690 C   0  0  0  0  0  0  0  0  0  0  0  0
    3.4990  -10.8760  -27.7140 C   0  0  0  0  0  3  0  0  0  0  0  0
    3.6410   -9.8670  -28.6650 C   0  0  0  0  0  0  0  0  0  0  0  0
    3.8960  -10.2130  -29.9350 F   0  0  0  0  0  0  0  0  0  0  0  0
    3.1230  -11.6380  -25.3270 C   0  0  0  0  0  0  0  0  0  0  0  0
    2.6290  -11.1660  -24.1500 F   0  0  0  0  0  0  0  0  0  0  0  0
    2.2840  -12.6380  -25.7140 F   0  0  0  0  0  0  0  0  0  0  0  0
    4.3060  -12.2390  -25.0250 F   0  0  0  0  0  0  0  0  0  0  0  0
   -1.4160   -7.1410  -27.0830 C   0  0  0  0  0  2  0  0  0  0  0  0
   -1.4520  -10.8780  -22.2550 C   0  0  0  0  0  0  0  0  0  0  0  0
   -0.8180  -11.9960  -22.8180 C   0  0  0  0  0  3  0  0  0  0  0  0
   -0.3660  -11.9360  -24.1250 C   0  0  0  0  0  3  0  0  0  0  0  0
   -0.5490  -10.7620  -24.8510 C   0  0  0  0  0  3  0  0  0  0  0  0
   -1.1800   -9.6250  -24.2780 C   0  0  0  0  0  0  0  0  0  0  0  0
   -1.3940   -8.4100  -24.9630 C   0  0  0  0  0  0  0  0  0  0  0  0
   -0.9830   -8.2720  -26.2850 N   0  0  0  0  0  0  0  0  0  0  0  0
   -2.0310   -7.3750  -24.3890 N   0  0  0  0  0  0  0  0  0  0  0  0
   -2.4210   -7.5320  -23.1240 C   0  0  0  0  0  3  0  0  0  0  0  0
   -2.2410   -8.6210  -22.3760 N   0  0  0  0  0  0  0  0  0  0  0  0
   -1.6460   -9.6800  -22.9530 C   0  0  0  0  0  0  0  0  0  0  0  0
   -0.0600   -8.6250  -26.4950 H   0  0  0  0  0  0  0  0  0  0  0  0
   -1.4060  -10.1660  -19.9580 N   0  0  0  0  0  0  0  0  0  0  0  0
   -1.9570  -11.0160  -20.8760 C   0  0  0  0  0  0  0  0  0  0  0  0
   -2.7660  -11.8770  -20.5620 O   0  0  0  0  0  0  0  0  0  0  0  0
   -1.7290  -10.2390  -19.0030 H   0  0  0  0  0  0  0  0  0  0  0  0
   -0.7510   -9.4360  -20.2000 H   0  0  0  0  0  0  0  0  0  0  0  0
  1 22  1  0  0  0  0
  1  2  1  0  0  0  0
  3  2  2  0  0  0  0
  4  3  1  0  0  0  0
  5  6  1  0  0  0  0
  5  4  2  0  0  0  0
  6  1  2  0  0  0  0
  7  8  1  0  0  0  0
  7  5  1  0  0  0  0
  8 11  1  0  0  0  0
  9  8  2  0  0  0  0
 10  7  1  0  0  0  0
 11 12  1  0  0  0  0
 12 13  2  0  0  0  0
 14 13  1  0  0  0  0
 14 18  1  0  0  0  0
 15 14  2  0  0  0  0
 16 11  2  0  0  0  0
 16 15  1  0  0  0  0
 17 16  1  0  0  0  0
 18 21  1  0  0  0  0
 18 19  1  0  0  0  0
 20 18  1  0  0  0  0
 22 29  1  0  0  0  0
 23 36  1  0  0  0  0
 24 23  1  0  0  0  0
 25 24  2  0  0  0  0
 26 27  2  0  0  0  0
 26 25  1  0  0  0  0
 27 33  1  0  0  0  0
 28 30  2  0  0  0  0
 28 27  1  0  0  0  0
 29 28  1  0  0  0  0
 30 31  1  0  0  0  0
 31 32  2  0  0  0  0
 33 32  1  0  0  0  0
 33 23  2  0  0  0  0
 34 29  1  0  0  0  0
 35 38  1  0  0  0  0
 36 37  2  0  0  0  0
 36 35  1  0  0  0  0
 39 35  1  0  0  0  0
M  END
>  <minimizedAffinity>
-8.07417107

$$$$
