
 OpenBabel10152419533D

 39 42  0  0  0  0  0  0  0  0999 V2000
    4.0250   -8.2170  -28.1930 C   0  0  0  0  0  0  0  0  0  0  0  0
    3.9560   -8.8950  -29.4140 C   0  0  0  0  0  3  0  0  0  0  0  0
    3.3380   -8.3010  -30.5120 C   0  0  0  0  0  3  0  0  0  0  0  0
    2.7720   -7.0260  -30.4020 C   0  0  0  0  0  3  0  0  0  0  0  0
    2.7950   -6.3450  -29.1850 C   0  0  0  0  0  0  0  0  0  0  0  0
    3.4360   -6.9450  -28.0900 C   0  0  0  0  0  3  0  0  0  0  0  0
    2.2810   -5.0510  -28.9780 N   0  0  0  0  0  0  0  0  0  0  0  0
    1.1570   -4.5800  -28.3450 C   0  0  0  0  0  0  0  0  0  0  0  0
    0.7920   -3.4190  -28.5280 O   0  0  0  0  0  0  0  0  0  0  0  0
    2.8020   -4.2900  -29.3980 H   0  0  0  0  0  0  0  0  0  0  0  0
    0.3810   -5.3960  -27.4070 C   0  0  0  0  0  0  0  0  0  0  0  0
    0.2140   -6.7600  -27.6700 C   0  0  0  0  0  3  0  0  0  0  0  0
   -0.5580   -7.5430  -26.8080 C   0  0  0  0  0  3  0  0  0  0  0  0
   -1.1820   -6.9690  -25.6860 C   0  0  0  0  0  0  0  0  0  0  0  0
   -1.0370   -5.5900  -25.4590 C   0  0  0  0  0  3  0  0  0  0  0  0
   -0.2650   -4.8130  -26.3200 C   0  0  0  0  0  0  0  0  0  0  0  0
   -0.1690   -3.4970  -26.0840 F   0  0  0  0  0  0  0  0  0  0  0  0
   -2.0350   -7.8160  -24.7720 C   0  0  0  0  0  0  0  0  0  0  0  0
   -1.5160   -7.9060  -23.5180 F   0  0  0  0  0  0  0  0  0  0  0  0
   -3.2960   -7.3250  -24.6250 F   0  0  0  0  0  0  0  0  0  0  0  0
   -2.1830   -9.0960  -25.2120 F   0  0  0  0  0  0  0  0  0  0  0  0
    4.7220   -8.8440  -27.0090 C   0  0  0  0  0  2  0  0  0  0  0  0
    0.0440  -11.3290  -23.9710 C   0  0  0  0  0  0  0  0  0  0  0  0
    0.0740  -12.6240  -24.5110 C   0  0  0  0  0  3  0  0  0  0  0  0
    1.0600  -12.9590  -25.4240 C   0  0  0  0  0  3  0  0  0  0  0  0
    2.0040  -11.9990  -25.7820 C   0  0  0  0  0  3  0  0  0  0  0  0
    1.9820  -10.6910  -25.2260 C   0  0  0  0  0  0  0  0  0  0  0  0
    2.9090   -9.6790  -25.5500 C   0  0  0  0  0  0  0  0  0  0  0  0
    3.9240   -9.9290  -26.4700 N   0  0  0  0  0  0  0  0  0  0  0  0
    2.8230   -8.4440  -25.0270 N   0  0  0  0  0  0  0  0  0  0  0  0
    1.8400   -8.2260  -24.1530 C   0  0  0  0  0  3  0  0  0  0  0  0
    0.9340   -9.1180  -23.7520 N   0  0  0  0  0  0  0  0  0  0  0  0
    0.9810  -10.3430  -24.3030 C   0  0  0  0  0  0  0  0  0  0  0  0
    4.4040  -10.8100  -26.3620 H   0  0  0  0  0  0  0  0  0  0  0  0
   -0.6830  -10.7160  -21.7620 N   0  0  0  0  0  0  0  0  0  0  0  0
   -1.0580  -11.0150  -23.0430 C   0  0  0  0  0  0  0  0  0  0  0  0
   -2.2310  -11.0810  -23.3790 O   0  0  0  0  0  0  0  0  0  0  0  0
   -1.4170  -10.4990  -21.1010 H   0  0  0  0  0  0  0  0  0  0  0  0
    0.2800  -10.6370  -21.4700 H   0  0  0  0  0  0  0  0  0  0  0  0
  1  6  1  0  0  0  0
  1 22  1  0  0  0  0
  2  1  2  0  0  0  0
  3  4  2  0  0  0  0
  3  2  1  0  0  0  0
  4  5  1  0  0  0  0
  5  7  1  0  0  0  0
  5  6  2  0  0  0  0
  7  8  1  0  0  0  0
  8 11  1  0  0  0  0
  9  8  2  0  0  0  0
 10  7  1  0  0  0  0
 11 16  1  0  0  0  0
 12 11  2  0  0  0  0
 12 13  1  0  0  0  0
 13 14  2  0  0  0  0
 14 15  1  0  0  0  0
 14 18  1  0  0  0  0
 16 17  1  0  0  0  0
 16 15  2  0  0  0  0
 18 20  1  0  0  0  0
 18 19  1  0  0  0  0
 21 18  1  0  0  0  0
 22 29  1  0  0  0  0
 23 36  1  0  0  0  0
 24 23  2  0  0  0  0
 25 24  1  0  0  0  0
 26 25  2  0  0  0  0
 26 27  1  0  0  0  0
 27 33  1  0  0  0  0
 28 27  2  0  0  0  0
 28 30  1  0  0  0  0
 29 34  1  0  0  0  0
 29 28  1  0  0  0  0
 30 31  2  0  0  0  0
 31 32  1  0  0  0  0
 33 23  1  0  0  0  0
 33 32  2  0  0  0  0
 35 39  1  0  0  0  0
 35 38  1  0  0  0  0
 36 35  1  0  0  0  0
 37 36  2  0  0  0  0
M  END
>  <minimizedAffinity>
-6.26210308

$$$$
