
 OpenBabel10152419533D

 39 42  0  0  0  0  0  0  0  0999 V2000
   -0.3840   -7.1620  -26.8030 C   0  0  0  0  0  0  0  0  0  0  0  0
   -0.5510   -5.9520  -26.1220 C   0  0  0  0  0  3  0  0  0  0  0  0
    0.2920   -4.8760  -26.3850 C   0  0  0  0  0  3  0  0  0  0  0  0
    1.3200   -4.9970  -27.3260 C   0  0  0  0  0  3  0  0  0  0  0  0
    1.5320   -6.2040  -27.9910 C   0  0  0  0  0  0  0  0  0  0  0  0
    0.6650   -7.2770  -27.7310 C   0  0  0  0  0  3  0  0  0  0  0  0
    2.5180   -6.4190  -28.9720 N   0  0  0  0  0  0  0  0  0  0  0  0
    3.5450   -7.3240  -29.0860 C   0  0  0  0  0  0  0  0  0  0  0  0
    4.4360   -7.1390  -29.9160 O   0  0  0  0  0  0  0  0  0  0  0  0
    2.5220   -5.7710  -29.7520 H   0  0  0  0  0  0  0  0  0  0  0  0
    3.6110   -8.5470  -28.2810 C   0  0  0  0  0  0  0  0  0  0  0  0
    3.5250   -9.7870  -28.9230 C   0  0  0  0  0  3  0  0  0  0  0  0
    3.5440  -10.9620  -28.1660 C   0  0  0  0  0  3  0  0  0  0  0  0
    3.6330  -10.9080  -26.7630 C   0  0  0  0  0  0  0  0  0  0  0  0
    3.6790   -9.6530  -26.1320 C   0  0  0  0  0  3  0  0  0  0  0  0
    3.6610   -8.4840  -26.8910 C   0  0  0  0  0  0  0  0  0  0  0  0
    3.6830   -7.3050  -26.2540 F   0  0  0  0  0  0  0  0  0  0  0  0
    3.6300  -12.1800  -25.9500 C   0  0  0  0  0  0  0  0  0  0  0  0
    2.5450  -12.9590  -26.2130 F   0  0  0  0  0  0  0  0  0  0  0  0
    4.7200  -12.9590  -26.1890 F   0  0  0  0  0  0  0  0  0  0  0  0
    3.6170  -11.9580  -24.6070 F   0  0  0  0  0  0  0  0  0  0  0  0
   -1.3160   -8.3210  -26.5430 C   0  0  0  0  0  2  0  0  0  0  0  0
   -0.7180  -11.9170  -21.6440 C   0  0  0  0  0  0  0  0  0  0  0  0
    0.1910  -12.8570  -22.1520 C   0  0  0  0  0  3  0  0  0  0  0  0
    0.6840  -12.7040  -23.4370 C   0  0  0  0  0  3  0  0  0  0  0  0
    0.2660  -11.6130  -24.1950 C   0  0  0  0  0  3  0  0  0  0  0  0
   -0.6460  -10.6530  -23.6770 C   0  0  0  0  0  0  0  0  0  0  0  0
   -1.1050   -9.5300  -24.3970 C   0  0  0  0  0  0  0  0  0  0  0  0
   -0.6700   -9.3090  -25.7010 N   0  0  0  0  0  0  0  0  0  0  0  0
   -1.9980   -8.6710  -23.8770 N   0  0  0  0  0  0  0  0  0  0  0  0
   -2.4050   -8.9050  -22.6290 C   0  0  0  0  0  3  0  0  0  0  0  0
   -2.0110   -9.9130  -21.8510 N   0  0  0  0  0  0  0  0  0  0  0  0
   -1.1540  -10.8050  -22.3760 C   0  0  0  0  0  0  0  0  0  0  0  0
    0.3200   -9.4350  -25.8580 H   0  0  0  0  0  0  0  0  0  0  0  0
   -2.6100  -12.2160  -20.1900 N   0  0  0  0  0  0  0  0  0  0  0  0
   -1.2470  -12.1590  -20.2890 C   0  0  0  0  0  0  0  0  0  0  0  0
   -0.5200  -12.2380  -19.3100 O   0  0  0  0  0  0  0  0  0  0  0  0
   -3.0040  -12.3770  -19.2720 H   0  0  0  0  0  0  0  0  0  0  0  0
   -3.2270  -12.1720  -20.9880 H   0  0  0  0  0  0  0  0  0  0  0  0
  1 22  1  0  0  0  0
  1  2  1  0  0  0  0
  3  2  2  0  0  0  0
  4  3  1  0  0  0  0
  5  6  1  0  0  0  0
  5  4  2  0  0  0  0
  6  1  2  0  0  0  0
  7  5  1  0  0  0  0
  8  7  1  0  0  0  0
  8 11  1  0  0  0  0
  9  8  2  0  0  0  0
 10  7  1  0  0  0  0
 11 16  1  0  0  0  0
 12 11  2  0  0  0  0
 12 13  1  0  0  0  0
 13 14  2  0  0  0  0
 14 15  1  0  0  0  0
 14 18  1  0  0  0  0
 16 17  1  0  0  0  0
 16 15  2  0  0  0  0
 18 21  1  0  0  0  0
 19 18  1  0  0  0  0
 20 18  1  0  0  0  0
 22 29  1  0  0  0  0
 23 36  1  0  0  0  0
 24 23  1  0  0  0  0
 25 24  2  0  0  0  0
 26 27  2  0  0  0  0
 26 25  1  0  0  0  0
 27 33  1  0  0  0  0
 28 30  2  0  0  0  0
 28 27  1  0  0  0  0
 29 28  1  0  0  0  0
 30 31  1  0  0  0  0
 31 32  2  0  0  0  0
 33 32  1  0  0  0  0
 33 23  2  0  0  0  0
 34 29  1  0  0  0  0
 35 38  1  0  0  0  0
 36 35  1  0  0  0  0
 36 37  2  0  0  0  0
 39 35  1  0  0  0  0
M  END
>  <minimizedAffinity>
-8.40978718

$$$$

 OpenBabel10152419533D

 39 42  0  0  0  0  0  0  0  0999 V2000
   -0.2460   -6.2380  -27.3940 C   0  0  0  0  0  0  0  0  0  0  0  0
   -0.1940   -4.9410  -26.8740 C   0  0  0  0  0  3  0  0  0  0  0  0
    0.8720   -4.1020  -27.1860 C   0  0  0  0  0  3  0  0  0  0  0  0
    1.9060   -4.5500  -28.0150 C   0  0  0  0  0  3  0  0  0  0  0  0
    1.8970   -5.8510  -28.5170 C   0  0  0  0  0  0  0  0  0  0  0  0
    0.8090   -6.6830  -28.2100 C   0  0  0  0  0  3  0  0  0  0  0  0
    2.8720   -6.3870  -29.3790 N   0  0  0  0  0  0  0  0  0  0  0  0
    3.7240   -7.4600  -29.2780 C   0  0  0  0  0  0  0  0  0  0  0  0
    4.6700   -7.5670  -30.0580 O   0  0  0  0  0  0  0  0  0  0  0  0
    3.0290   -5.8840  -30.2450 H   0  0  0  0  0  0  0  0  0  0  0  0
    3.5310   -8.5300  -28.2950 C   0  0  0  0  0  0  0  0  0  0  0  0
    3.3280   -8.1900  -26.9520 C   0  0  0  0  0  3  0  0  0  0  0  0
    3.1830   -9.1990  -25.9960 C   0  0  0  0  0  3  0  0  0  0  0  0
    3.2560  -10.5530  -26.3690 C   0  0  0  0  0  0  0  0  0  0  0  0
    3.4990  -10.8760  -27.7140 C   0  0  0  0  0  3  0  0  0  0  0  0
    3.6410   -9.8670  -28.6650 C   0  0  0  0  0  0  0  0  0  0  0  0
    3.8960  -10.2130  -29.9350 F   0  0  0  0  0  0  0  0  0  0  0  0
    3.1230  -11.6380  -25.3270 C   0  0  0  0  0  0  0  0  0  0  0  0
    2.6290  -11.1660  -24.1500 F   0  0  0  0  0  0  0  0  0  0  0  0
    2.2840  -12.6380  -25.7140 F   0  0  0  0  0  0  0  0  0  0  0  0
    4.3060  -12.2390  -25.0250 F   0  0  0  0  0  0  0  0  0  0  0  0
   -1.4160   -7.1410  -27.0830 C   0  0  0  0  0  2  0  0  0  0  0  0
   -1.4520  -10.8780  -22.2550 C   0  0  0  0  0  0  0  0  0  0  0  0
   -0.8180  -11.9960  -22.8180 C   0  0  0  0  0  3  0  0  0  0  0  0
   -0.3660  -11.9360  -24.1250 C   0  0  0  0  0  3  0  0  0  0  0  0
   -0.5490  -10.7620  -24.8510 C   0  0  0  0  0  3  0  0  0  0  0  0
   -1.1800   -9.6250  -24.2780 C   0  0  0  0  0  0  0  0  0  0  0  0
   -1.3940   -8.4100  -24.9630 C   0  0  0  0  0  0  0  0  0  0  0  0
   -0.9830   -8.2720  -26.2850 N   0  0  0  0  0  0  0  0  0  0  0  0
   -2.0310   -7.3750  -24.3890 N   0  0  0  0  0  0  0  0  0  0  0  0
   -2.4210   -7.5320  -23.1240 C   0  0  0  0  0  3  0  0  0  0  0  0
   -2.2410   -8.6210  -22.3760 N   0  0  0  0  0  0  0  0  0  0  0  0
   -1.6460   -9.6800  -22.9530 C   0  0  0  0  0  0  0  0  0  0  0  0
   -0.0600   -8.6250  -26.4950 H   0  0  0  0  0  0  0  0  0  0  0  0
   -1.4060  -10.1660  -19.9580 N   0  0  0  0  0  0  0  0  0  0  0  0
   -1.9570  -11.0160  -20.8760 C   0  0  0  0  0  0  0  0  0  0  0  0
   -2.7660  -11.8770  -20.5620 O   0  0  0  0  0  0  0  0  0  0  0  0
   -1.7290  -10.2390  -19.0030 H   0  0  0  0  0  0  0  0  0  0  0  0
   -0.7510   -9.4360  -20.2000 H   0  0  0  0  0  0  0  0  0  0  0  0
  1 22  1  0  0  0  0
  1  2  1  0  0  0  0
  3  2  2  0  0  0  0
  4  3  1  0  0  0  0
  5  6  1  0  0  0  0
  5  4  2  0  0  0  0
  6  1  2  0  0  0  0
  7  8  1  0  0  0  0
  7  5  1  0  0  0  0
  8 11  1  0  0  0  0
  9  8  2  0  0  0  0
 10  7  1  0  0  0  0
 11 12  1  0  0  0  0
 12 13  2  0  0  0  0
 14 13  1  0  0  0  0
 14 18  1  0  0  0  0
 15 14  2  0  0  0  0
 16 11  2  0  0  0  0
 16 15  1  0  0  0  0
 17 16  1  0  0  0  0
 18 21  1  0  0  0  0
 18 19  1  0  0  0  0
 20 18  1  0  0  0  0
 22 29  1  0  0  0  0
 23 36  1  0  0  0  0
 24 23  1  0  0  0  0
 25 24  2  0  0  0  0
 26 27  2  0  0  0  0
 26 25  1  0  0  0  0
 27 33  1  0  0  0  0
 28 30  2  0  0  0  0
 28 27  1  0  0  0  0
 29 28  1  0  0  0  0
 30 31  1  0  0  0  0
 31 32  2  0  0  0  0
 33 32  1  0  0  0  0
 33 23  2  0  0  0  0
 34 29  1  0  0  0  0
 35 38  1  0  0  0  0
 36 37  2  0  0  0  0
 36 35  1  0  0  0  0
 39 35  1  0  0  0  0
M  END
>  <minimizedAffinity>
-8.07417107

$$$$

 OpenBabel10152419533D

 39 42  0  0  0  0  0  0  0  0999 V2000
    1.2720  -12.1900  -25.8860 C   0  0  0  0  0  0  0  0  0  0  0  0
    1.3080  -12.9550  -27.0560 C   0  0  0  0  0  3  0  0  0  0  0  0
    2.2140  -12.6480  -28.0680 C   0  0  0  0  0  3  0  0  0  0  0  0
    3.0900  -11.5660  -27.9280 C   0  0  0  0  0  3  0  0  0  0  0  0
    3.0490  -10.7650  -26.7870 C   0  0  0  0  0  0  0  0  0  0  0  0
    2.1440  -11.0940  -25.7660 C   0  0  0  0  0  3  0  0  0  0  0  0
    3.9040   -9.6740  -26.5390 N   0  0  0  0  0  0  0  0  0  0  0  0
    3.7290   -8.3140  -26.6040 C   0  0  0  0  0  0  0  0  0  0  0  0
    4.7090   -7.5690  -26.5940 O   0  0  0  0  0  0  0  0  0  0  0  0
    4.8600   -9.9020  -26.2940 H   0  0  0  0  0  0  0  0  0  0  0  0
    2.4030   -7.6900  -26.6400 C   0  0  0  0  0  0  0  0  0  0  0  0
    1.9810   -7.0610  -27.8160 C   0  0  0  0  0  3  0  0  0  0  0  0
    0.7360   -6.4260  -27.8540 C   0  0  0  0  0  3  0  0  0  0  0  0
   -0.0890   -6.4000  -26.7150 C   0  0  0  0  0  0  0  0  0  0  0  0
    0.3680   -7.0030  -25.5310 C   0  0  0  0  0  3  0  0  0  0  0  0
    1.6090   -7.6360  -25.4980 C   0  0  0  0  0  0  0  0  0  0  0  0
    2.0210   -8.1800  -24.3440 F   0  0  0  0  0  0  0  0  0  0  0  0
   -1.4220   -5.6920  -26.7560 C   0  0  0  0  0  0  0  0  0  0  0  0
   -1.3930   -4.4980  -26.1040 F   0  0  0  0  0  0  0  0  0  0  0  0
   -1.8320   -5.4180  -28.0250 F   0  0  0  0  0  0  0  0  0  0  0  0
   -2.4280   -6.4090  -26.1850 F   0  0  0  0  0  0  0  0  0  0  0  0
    0.3130  -12.5390  -24.7730 C   0  0  0  0  0  2  0  0  0  0  0  0
   -2.6350   -8.4110  -21.3750 C   0  0  0  0  0  0  0  0  0  0  0  0
   -2.9890   -7.4920  -22.3750 C   0  0  0  0  0  3  0  0  0  0  0  0
   -2.6660   -7.7630  -23.6940 C   0  0  0  0  0  3  0  0  0  0  0  0
   -1.9980   -8.9470  -23.9980 C   0  0  0  0  0  3  0  0  0  0  0  0
   -1.6490   -9.8840  -22.9870 C   0  0  0  0  0  0  0  0  0  0  0  0
   -0.9730  -11.0970  -23.2320 C   0  0  0  0  0  0  0  0  0  0  0  0
   -0.5990  -11.4380  -24.5290 N   0  0  0  0  0  0  0  0  0  0  0  0
   -0.6310  -11.9320  -22.2370 N   0  0  0  0  0  0  0  0  0  0  0  0
   -0.9950  -11.5820  -21.0030 C   0  0  0  0  0  3  0  0  0  0  0  0
   -1.6630  -10.4790  -20.6650 N   0  0  0  0  0  0  0  0  0  0  0  0
   -1.9700   -9.6130  -21.6450 C   0  0  0  0  0  0  0  0  0  0  0  0
   -1.3000  -11.2880  -25.2400 H   0  0  0  0  0  0  0  0  0  0  0  0
   -4.1250   -7.3480  -19.8140 N   0  0  0  0  0  0  0  0  0  0  0  0
   -2.9610   -8.0460  -19.9840 C   0  0  0  0  0  0  0  0  0  0  0  0
   -2.2080   -8.2930  -19.0530 O   0  0  0  0  0  0  0  0  0  0  0  0
   -4.3730   -7.0810  -18.8710 H   0  0  0  0  0  0  0  0  0  0  0  0
   -4.7690   -7.1510  -20.5660 H   0  0  0  0  0  0  0  0  0  0  0  0
  1  6  1  0  0  0  0
  1 22  1  0  0  0  0
  2  1  2  0  0  0  0
  3  4  2  0  0  0  0
  3  2  1  0  0  0  0
  4  5  1  0  0  0  0
  5  7  1  0  0  0  0
  5  6  2  0  0  0  0
  7 10  1  0  0  0  0
  8  9  2  0  0  0  0
  8  7  1  0  0  0  0
 11  8  1  0  0  0  0
 11 16  1  0  0  0  0
 12 11  2  0  0  0  0
 13 12  1  0  0  0  0
 13 14  2  0  0  0  0
 14 15  1  0  0  0  0
 15 16  2  0  0  0  0
 16 17  1  0  0  0  0
 18 14  1  0  0  0  0
 18 21  1  0  0  0  0
 18 19  1  0  0  0  0
 20 18  1  0  0  0  0
 22 29  1  0  0  0  0
 23 36  1  0  0  0  0
 24 23  2  0  0  0  0
 25 24  1  0  0  0  0
 26 25  2  0  0  0  0
 26 27  1  0  0  0  0
 27 33  1  0  0  0  0
 28 27  2  0  0  0  0
 28 30  1  0  0  0  0
 29 28  1  0  0  0  0
 30 31  2  0  0  0  0
 31 32  1  0  0  0  0
 33 23  1  0  0  0  0
 33 32  2  0  0  0  0
 34 29  1  0  0  0  0
 35 38  1  0  0  0  0
 36 35  1  0  0  0  0
 36 37  2  0  0  0  0
 39 35  1  0  0  0  0
M  END
>  <minimizedAffinity>
-7.37154579

$$$$

 OpenBabel10152419533D

 39 42  0  0  0  0  0  0  0  0999 V2000
   -1.0400   -7.2080  -23.4790 C   0  0  0  0  0  0  0  0  0  0  0  0
   -2.3600   -6.8040  -23.7000 C   0  0  0  0  0  3  0  0  0  0  0  0
   -3.4190   -7.5710  -23.2210 C   0  0  0  0  0  3  0  0  0  0  0  0
   -3.1720   -8.7580  -22.5210 C   0  0  0  0  0  3  0  0  0  0  0  0
   -1.8650   -9.2020  -22.3200 C   0  0  0  0  0  0  0  0  0  0  0  0
   -0.8060   -8.4110  -22.7920 C   0  0  0  0  0  3  0  0  0  0  0  0
   -1.5120  -10.3630  -21.6080 N   0  0  0  0  0  0  0  0  0  0  0  0
   -0.8940  -11.5340  -21.9720 C   0  0  0  0  0  0  0  0  0  0  0  0
   -0.9340  -12.5080  -21.2210 O   0  0  0  0  0  0  0  0  0  0  0  0
   -1.7840  -10.3890  -20.6320 H   0  0  0  0  0  0  0  0  0  0  0  0
   -0.1340  -11.6690  -23.2190 C   0  0  0  0  0  0  0  0  0  0  0  0
    1.2410  -11.9170  -23.1520 C   0  0  0  0  0  3  0  0  0  0  0  0
    1.9870  -12.0080  -24.3310 C   0  0  0  0  0  3  0  0  0  0  0  0
    1.3690  -11.8360  -25.5830 C   0  0  0  0  0  0  0  0  0  0  0  0
   -0.0050  -11.5480  -25.6300 C   0  0  0  0  0  3  0  0  0  0  0  0
   -0.7450  -11.4600  -24.4520 C   0  0  0  0  0  0  0  0  0  0  0  0
   -2.0490  -11.1600  -24.5350 F   0  0  0  0  0  0  0  0  0  0  0  0
    2.1860  -11.9110  -26.8510 C   0  0  0  0  0  0  0  0  0  0  0  0
    2.0550  -10.7950  -27.6170 F   0  0  0  0  0  0  0  0  0  0  0  0
    3.5190  -12.0490  -26.6100 F   0  0  0  0  0  0  0  0  0  0  0  0
    1.8410  -12.9590  -27.6490 F   0  0  0  0  0  0  0  0  0  0  0  0
    0.1100   -6.3620  -23.9700 C   0  0  0  0  0  2  0  0  0  0  0  0
    3.6860   -8.0120  -28.6360 C   0  0  0  0  0  0  0  0  0  0  0  0
    4.6070   -8.8200  -27.9530 C   0  0  0  0  0  3  0  0  0  0  0  0
    4.4440   -9.0410  -26.5950 C   0  0  0  0  0  3  0  0  0  0  0  0
    3.3640   -8.4550  -25.9400 C   0  0  0  0  0  3  0  0  0  0  0  0
    2.4230   -7.6460  -26.6340 C   0  0  0  0  0  0  0  0  0  0  0  0
    1.3110   -7.0270  -26.0260 C   0  0  0  0  0  0  0  0  0  0  0  0
    1.0830   -7.1860  -24.6610 N   0  0  0  0  0  0  0  0  0  0  0  0
    0.4720   -6.2380  -26.7170 N   0  0  0  0  0  0  0  0  0  0  0  0
    0.7130   -6.0960  -28.0210 C   0  0  0  0  0  3  0  0  0  0  0  0
    1.7120   -6.6610  -28.7010 N   0  0  0  0  0  0  0  0  0  0  0  0
    2.5850   -7.4140  -28.0110 C   0  0  0  0  0  0  0  0  0  0  0  0
    1.1870   -8.1260  -24.3070 H   0  0  0  0  0  0  0  0  0  0  0  0
    4.6840   -6.6630  -30.3590 N   0  0  0  0  0  0  0  0  0  0  0  0
    3.9380   -7.7720  -30.0700 C   0  0  0  0  0  0  0  0  0  0  0  0
    3.4590   -8.4800  -30.9430 O   0  0  0  0  0  0  0  0  0  0  0  0
    4.8700   -6.4690  -31.3340 H   0  0  0  0  0  0  0  0  0  0  0  0
    5.1040   -6.0760  -29.6530 H   0  0  0  0  0  0  0  0  0  0  0  0
  1  6  1  0  0  0  0
  2  1  2  0  0  0  0
  2  3  1  0  0  0  0
  3  4  2  0  0  0  0
  4  5  1  0  0  0  0
  5  7  1  0  0  0  0
  6  5  2  0  0  0  0
  7 10  1  0  0  0  0
  8  7  1  0  0  0  0
  8  9  2  0  0  0  0
 11 12  1  0  0  0  0
 11  8  1  0  0  0  0
 13 12  2  0  0  0  0
 14 13  1  0  0  0  0
 15 14  2  0  0  0  0
 15 16  1  0  0  0  0
 16 11  2  0  0  0  0
 17 16  1  0  0  0  0
 18 20  1  0  0  0  0
 18 14  1  0  0  0  0
 19 18  1  0  0  0  0
 21 18  1  0  0  0  0
 22  1  1  0  0  0  0
 23 33  2  0  0  0  0
 23 24  1  0  0  0  0
 24 25  2  0  0  0  0
 25 26  1  0  0  0  0
 27 28  1  0  0  0  0
 27 26  2  0  0  0  0
 28 29  1  0  0  0  0
 29 34  1  0  0  0  0
 29 22  1  0  0  0  0
 30 28  2  0  0  0  0
 31 30  1  0  0  0  0
 32 31  2  0  0  0  0
 32 33  1  0  0  0  0
 33 27  1  0  0  0  0
 35 36  1  0  0  0  0
 35 39  1  0  0  0  0
 36 23  1  0  0  0  0
 37 36  2  0  0  0  0
 38 35  1  0  0  0  0
M  END
>  <minimizedAffinity>
-7.06837749

$$$$

 OpenBabel10152419533D

 39 42  0  0  0  0  0  0  0  0999 V2000
   -1.2370   -7.4460  -23.5230 C   0  0  0  0  0  0  0  0  0  0  0  0
   -2.3530   -7.5050  -24.3650 C   0  0  0  0  0  3  0  0  0  0  0  0
   -3.0510   -8.7000  -24.5210 C   0  0  0  0  0  3  0  0  0  0  0  0
   -2.6390   -9.8530  -23.8460 C   0  0  0  0  0  3  0  0  0  0  0  0
   -1.5080   -9.8300  -23.0300 C   0  0  0  0  0  0  0  0  0  0  0  0
   -0.8220   -8.6160  -22.8660 C   0  0  0  0  0  3  0  0  0  0  0  0
   -1.0290  -10.9260  -22.2880 N   0  0  0  0  0  0  0  0  0  0  0  0
   -0.2120  -11.9840  -22.6020 C   0  0  0  0  0  0  0  0  0  0  0  0
   -0.1530  -12.9570  -21.8490 O   0  0  0  0  0  0  0  0  0  0  0  0
   -1.3620  -10.9990  -21.3330 H   0  0  0  0  0  0  0  0  0  0  0  0
    0.6440  -11.9930  -23.7910 C   0  0  0  0  0  0  0  0  0  0  0  0
    2.0170  -11.7640  -23.6410 C   0  0  0  0  0  3  0  0  0  0  0  0
    2.8410  -11.7290  -24.7690 C   0  0  0  0  0  3  0  0  0  0  0  0
    2.3000  -11.9050  -26.0550 C   0  0  0  0  0  0  0  0  0  0  0  0
    0.9150  -12.0940  -26.1910 C   0  0  0  0  0  3  0  0  0  0  0  0
    0.0970  -12.1310  -25.0630 C   0  0  0  0  0  0  0  0  0  0  0  0
   -1.2230  -12.2900  -25.2330 F   0  0  0  0  0  0  0  0  0  0  0  0
    3.1930  -11.8420  -27.2720 C   0  0  0  0  0  0  0  0  0  0  0  0
    2.8970  -12.8090  -28.1810 F   0  0  0  0  0  0  0  0  0  0  0  0
    3.0930  -10.6570  -27.9350 F   0  0  0  0  0  0  0  0  0  0  0  0
    4.5130  -11.9930  -26.9760 F   0  0  0  0  0  0  0  0  0  0  0  0
   -0.4970   -6.1450  -23.3270 C   0  0  0  0  0  2  0  0  0  0  0  0
    2.4750   -6.5420  -28.6460 C   0  0  0  0  0  0  0  0  0  0  0  0
    1.9010   -5.4520  -29.3180 C   0  0  0  0  0  3  0  0  0  0  0  0
    0.9800   -4.6540  -28.6600 C   0  0  0  0  0  3  0  0  0  0  0  0
    0.6470   -4.9530  -27.3410 C   0  0  0  0  0  3  0  0  0  0  0  0
    1.2370   -6.0490  -26.6550 C   0  0  0  0  0  0  0  0  0  0  0  0
    0.9400   -6.4000  -25.3220 C   0  0  0  0  0  0  0  0  0  0  0  0
    0.0140   -5.6580  -24.5940 N   0  0  0  0  0  0  0  0  0  0  0  0
    1.4940   -7.4710  -24.7300 N   0  0  0  0  0  0  0  0  0  0  0  0
    2.3740   -8.1700  -25.4470 C   0  0  0  0  0  3  0  0  0  0  0  0
    2.7510   -7.9070  -26.6990 N   0  0  0  0  0  0  0  0  0  0  0  0
    2.1680   -6.8670  -27.3190 C   0  0  0  0  0  0  0  0  0  0  0  0
    0.0990   -4.6550  -24.6720 H   0  0  0  0  0  0  0  0  0  0  0  0
    4.6520   -7.5420  -28.8590 N   0  0  0  0  0  0  0  0  0  0  0  0
    3.4110   -7.3860  -29.4120 C   0  0  0  0  0  0  0  0  0  0  0  0
    3.1180   -7.8600  -30.5000 O   0  0  0  0  0  0  0  0  0  0  0  0
    5.3170   -8.1130  -29.3640 H   0  0  0  0  0  0  0  0  0  0  0  0
    4.9060   -7.1750  -27.9540 H   0  0  0  0  0  0  0  0  0  0  0  0
  1 22  1  0  0  0  0
  1  6  1  0  0  0  0
  2  1  2  0  0  0  0
  3  2  1  0  0  0  0
  3  4  2  0  0  0  0
  4  5  1  0  0  0  0
  5  6  2  0  0  0  0
  5  7  1  0  0  0  0
  7 10  1  0  0  0  0
  8  7  1  0  0  0  0
  8  9  2  0  0  0  0
 11 12  1  0  0  0  0
 11  8  1  0  0  0  0
 13 12  2  0  0  0  0
 14 13  1  0  0  0  0
 15 14  2  0  0  0  0
 15 16  1  0  0  0  0
 16 11  2  0  0  0  0
 17 16  1  0  0  0  0
 18 21  1  0  0  0  0
 18 14  1  0  0  0  0
 19 18  1  0  0  0  0
 20 18  1  0  0  0  0
 23 33  1  0  0  0  0
 24 25  1  0  0  0  0
 24 23  2  0  0  0  0
 25 26  2  0  0  0  0
 26 27  1  0  0  0  0
 27 28  1  0  0  0  0
 28 30  2  0  0  0  0
 28 29  1  0  0  0  0
 29 22  1  0  0  0  0
 31 30  1  0  0  0  0
 32 31  2  0  0  0  0
 33 32  1  0  0  0  0
 33 27  2  0  0  0  0
 34 29  1  0  0  0  0
 35 39  1  0  0  0  0
 36 35  1  0  0  0  0
 36 23  1  0  0  0  0
 37 36  2  0  0  0  0
 38 35  1  0  0  0  0
M  END
>  <minimizedAffinity>
-6.88532925

$$$$

 OpenBabel10152419533D

 39 42  0  0  0  0  0  0  0  0999 V2000
    4.0250   -8.2170  -28.1930 C   0  0  0  0  0  0  0  0  0  0  0  0
    3.9560   -8.8950  -29.4140 C   0  0  0  0  0  3  0  0  0  0  0  0
    3.3380   -8.3010  -30.5120 C   0  0  0  0  0  3  0  0  0  0  0  0
    2.7720   -7.0260  -30.4020 C   0  0  0  0  0  3  0  0  0  0  0  0
    2.7950   -6.3450  -29.1850 C   0  0  0  0  0  0  0  0  0  0  0  0
    3.4360   -6.9450  -28.0900 C   0  0  0  0  0  3  0  0  0  0  0  0
    2.2810   -5.0510  -28.9780 N   0  0  0  0  0  0  0  0  0  0  0  0
    1.1570   -4.5800  -28.3450 C   0  0  0  0  0  0  0  0  0  0  0  0
    0.7920   -3.4190  -28.5280 O   0  0  0  0  0  0  0  0  0  0  0  0
    2.8020   -4.2900  -29.3980 H   0  0  0  0  0  0  0  0  0  0  0  0
    0.3810   -5.3960  -27.4070 C   0  0  0  0  0  0  0  0  0  0  0  0
    0.2140   -6.7600  -27.6700 C   0  0  0  0  0  3  0  0  0  0  0  0
   -0.5580   -7.5430  -26.8080 C   0  0  0  0  0  3  0  0  0  0  0  0
   -1.1820   -6.9690  -25.6860 C   0  0  0  0  0  0  0  0  0  0  0  0
   -1.0370   -5.5900  -25.4590 C   0  0  0  0  0  3  0  0  0  0  0  0
   -0.2650   -4.8130  -26.3200 C   0  0  0  0  0  0  0  0  0  0  0  0
   -0.1690   -3.4970  -26.0840 F   0  0  0  0  0  0  0  0  0  0  0  0
   -2.0350   -7.8160  -24.7720 C   0  0  0  0  0  0  0  0  0  0  0  0
   -1.5160   -7.9060  -23.5180 F   0  0  0  0  0  0  0  0  0  0  0  0
   -3.2960   -7.3250  -24.6250 F   0  0  0  0  0  0  0  0  0  0  0  0
   -2.1830   -9.0960  -25.2120 F   0  0  0  0  0  0  0  0  0  0  0  0
    4.7220   -8.8440  -27.0090 C   0  0  0  0  0  2  0  0  0  0  0  0
    0.0440  -11.3290  -23.9710 C   0  0  0  0  0  0  0  0  0  0  0  0
    0.0740  -12.6240  -24.5110 C   0  0  0  0  0  3  0  0  0  0  0  0
    1.0600  -12.9590  -25.4240 C   0  0  0  0  0  3  0  0  0  0  0  0
    2.0040  -11.9990  -25.7820 C   0  0  0  0  0  3  0  0  0  0  0  0
    1.9820  -10.6910  -25.2260 C   0  0  0  0  0  0  0  0  0  0  0  0
    2.9090   -9.6790  -25.5500 C   0  0  0  0  0  0  0  0  0  0  0  0
    3.9240   -9.9290  -26.4700 N   0  0  0  0  0  0  0  0  0  0  0  0
    2.8230   -8.4440  -25.0270 N   0  0  0  0  0  0  0  0  0  0  0  0
    1.8400   -8.2260  -24.1530 C   0  0  0  0  0  3  0  0  0  0  0  0
    0.9340   -9.1180  -23.7520 N   0  0  0  0  0  0  0  0  0  0  0  0
    0.9810  -10.3430  -24.3030 C   0  0  0  0  0  0  0  0  0  0  0  0
    4.4040  -10.8100  -26.3620 H   0  0  0  0  0  0  0  0  0  0  0  0
   -0.6830  -10.7160  -21.7620 N   0  0  0  0  0  0  0  0  0  0  0  0
   -1.0580  -11.0150  -23.0430 C   0  0  0  0  0  0  0  0  0  0  0  0
   -2.2310  -11.0810  -23.3790 O   0  0  0  0  0  0  0  0  0  0  0  0
   -1.4170  -10.4990  -21.1010 H   0  0  0  0  0  0  0  0  0  0  0  0
    0.2800  -10.6370  -21.4700 H   0  0  0  0  0  0  0  0  0  0  0  0
  1  6  1  0  0  0  0
  1 22  1  0  0  0  0
  2  1  2  0  0  0  0
  3  4  2  0  0  0  0
  3  2  1  0  0  0  0
  4  5  1  0  0  0  0
  5  7  1  0  0  0  0
  5  6  2  0  0  0  0
  7  8  1  0  0  0  0
  8 11  1  0  0  0  0
  9  8  2  0  0  0  0
 10  7  1  0  0  0  0
 11 16  1  0  0  0  0
 12 11  2  0  0  0  0
 12 13  1  0  0  0  0
 13 14  2  0  0  0  0
 14 15  1  0  0  0  0
 14 18  1  0  0  0  0
 16 17  1  0  0  0  0
 16 15  2  0  0  0  0
 18 20  1  0  0  0  0
 18 19  1  0  0  0  0
 21 18  1  0  0  0  0
 22 29  1  0  0  0  0
 23 36  1  0  0  0  0
 24 23  2  0  0  0  0
 25 24  1  0  0  0  0
 26 25  2  0  0  0  0
 26 27  1  0  0  0  0
 27 33  1  0  0  0  0
 28 27  2  0  0  0  0
 28 30  1  0  0  0  0
 29 34  1  0  0  0  0
 29 28  1  0  0  0  0
 30 31  2  0  0  0  0
 31 32  1  0  0  0  0
 33 23  1  0  0  0  0
 33 32  2  0  0  0  0
 35 39  1  0  0  0  0
 35 38  1  0  0  0  0
 36 35  1  0  0  0  0
 37 36  2  0  0  0  0
M  END
>  <minimizedAffinity>
-6.26210308

$$$$
