
 OpenBabel10152419533D

 39 42  0  0  0  0  0  0  0  0999 V2000
   -0.3840   -7.1620  -26.8030 C   0  0  0  0  0  0  0  0  0  0  0  0
   -0.5510   -5.9520  -26.1220 C   0  0  0  0  0  3  0  0  0  0  0  0
    0.2920   -4.8760  -26.3850 C   0  0  0  0  0  3  0  0  0  0  0  0
    1.3200   -4.9970  -27.3260 C   0  0  0  0  0  3  0  0  0  0  0  0
    1.5320   -6.2040  -27.9910 C   0  0  0  0  0  0  0  0  0  0  0  0
    0.6650   -7.2770  -27.7310 C   0  0  0  0  0  3  0  0  0  0  0  0
    2.5180   -6.4190  -28.9720 N   0  0  0  0  0  0  0  0  0  0  0  0
    3.5450   -7.3240  -29.0860 C   0  0  0  0  0  0  0  0  0  0  0  0
    4.4360   -7.1390  -29.9160 O   0  0  0  0  0  0  0  0  0  0  0  0
    2.5220   -5.7710  -29.7520 H   0  0  0  0  0  0  0  0  0  0  0  0
    3.6110   -8.5470  -28.2810 C   0  0  0  0  0  0  0  0  0  0  0  0
    3.5250   -9.7870  -28.9230 C   0  0  0  0  0  3  0  0  0  0  0  0
    3.5440  -10.9620  -28.1660 C   0  0  0  0  0  3  0  0  0  0  0  0
    3.6330  -10.9080  -26.7630 C   0  0  0  0  0  0  0  0  0  0  0  0
    3.6790   -9.6530  -26.1320 C   0  0  0  0  0  3  0  0  0  0  0  0
    3.6610   -8.4840  -26.8910 C   0  0  0  0  0  0  0  0  0  0  0  0
    3.6830   -7.3050  -26.2540 F   0  0  0  0  0  0  0  0  0  0  0  0
    3.6300  -12.1800  -25.9500 C   0  0  0  0  0  0  0  0  0  0  0  0
    2.5450  -12.9590  -26.2130 F   0  0  0  0  0  0  0  0  0  0  0  0
    4.7200  -12.9590  -26.1890 F   0  0  0  0  0  0  0  0  0  0  0  0
    3.6170  -11.9580  -24.6070 F   0  0  0  0  0  0  0  0  0  0  0  0
   -1.3160   -8.3210  -26.5430 C   0  0  0  0  0  2  0  0  0  0  0  0
   -0.7180  -11.9170  -21.6440 C   0  0  0  0  0  0  0  0  0  0  0  0
    0.1910  -12.8570  -22.1520 C   0  0  0  0  0  3  0  0  0  0  0  0
    0.6840  -12.7040  -23.4370 C   0  0  0  0  0  3  0  0  0  0  0  0
    0.2660  -11.6130  -24.1950 C   0  0  0  0  0  3  0  0  0  0  0  0
   -0.6460  -10.6530  -23.6770 C   0  0  0  0  0  0  0  0  0  0  0  0
   -1.1050   -9.5300  -24.3970 C   0  0  0  0  0  0  0  0  0  0  0  0
   -0.6700   -9.3090  -25.7010 N   0  0  0  0  0  0  0  0  0  0  0  0
   -1.9980   -8.6710  -23.8770 N   0  0  0  0  0  0  0  0  0  0  0  0
   -2.4050   -8.9050  -22.6290 C   0  0  0  0  0  3  0  0  0  0  0  0
   -2.0110   -9.9130  -21.8510 N   0  0  0  0  0  0  0  0  0  0  0  0
   -1.1540  -10.8050  -22.3760 C   0  0  0  0  0  0  0  0  0  0  0  0
    0.3200   -9.4350  -25.8580 H   0  0  0  0  0  0  0  0  0  0  0  0
   -2.6100  -12.2160  -20.1900 N   0  0  0  0  0  0  0  0  0  0  0  0
   -1.2470  -12.1590  -20.2890 C   0  0  0  0  0  0  0  0  0  0  0  0
   -0.5200  -12.2380  -19.3100 O   0  0  0  0  0  0  0  0  0  0  0  0
   -3.0040  -12.3770  -19.2720 H   0  0  0  0  0  0  0  0  0  0  0  0
   -3.2270  -12.1720  -20.9880 H   0  0  0  0  0  0  0  0  0  0  0  0
  1 22  1  0  0  0  0
  1  2  1  0  0  0  0
  3  2  2  0  0  0  0
  4  3  1  0  0  0  0
  5  6  1  0  0  0  0
  5  4  2  0  0  0  0
  6  1  2  0  0  0  0
  7  5  1  0  0  0  0
  8  7  1  0  0  0  0
  8 11  1  0  0  0  0
  9  8  2  0  0  0  0
 10  7  1  0  0  0  0
 11 16  1  0  0  0  0
 12 11  2  0  0  0  0
 12 13  1  0  0  0  0
 13 14  2  0  0  0  0
 14 15  1  0  0  0  0
 14 18  1  0  0  0  0
 16 17  1  0  0  0  0
 16 15  2  0  0  0  0
 18 21  1  0  0  0  0
 19 18  1  0  0  0  0
 20 18  1  0  0  0  0
 22 29  1  0  0  0  0
 23 36  1  0  0  0  0
 24 23  1  0  0  0  0
 25 24  2  0  0  0  0
 26 27  2  0  0  0  0
 26 25  1  0  0  0  0
 27 33  1  0  0  0  0
 28 30  2  0  0  0  0
 28 27  1  0  0  0  0
 29 28  1  0  0  0  0
 30 31  1  0  0  0  0
 31 32  2  0  0  0  0
 33 32  1  0  0  0  0
 33 23  2  0  0  0  0
 34 29  1  0  0  0  0
 35 38  1  0  0  0  0
 36 35  1  0  0  0  0
 36 37  2  0  0  0  0
 39 35  1  0  0  0  0
M  END
>  <minimizedAffinity>
-8.40978718

$$$$
