
 OpenBabel10152419533D

 39 42  0  0  0  0  0  0  0  0999 V2000
   -1.0400   -7.2080  -23.4790 C   0  0  0  0  0  0  0  0  0  0  0  0
   -2.3600   -6.8040  -23.7000 C   0  0  0  0  0  3  0  0  0  0  0  0
   -3.4190   -7.5710  -23.2210 C   0  0  0  0  0  3  0  0  0  0  0  0
   -3.1720   -8.7580  -22.5210 C   0  0  0  0  0  3  0  0  0  0  0  0
   -1.8650   -9.2020  -22.3200 C   0  0  0  0  0  0  0  0  0  0  0  0
   -0.8060   -8.4110  -22.7920 C   0  0  0  0  0  3  0  0  0  0  0  0
   -1.5120  -10.3630  -21.6080 N   0  0  0  0  0  0  0  0  0  0  0  0
   -0.8940  -11.5340  -21.9720 C   0  0  0  0  0  0  0  0  0  0  0  0
   -0.9340  -12.5080  -21.2210 O   0  0  0  0  0  0  0  0  0  0  0  0
   -1.7840  -10.3890  -20.6320 H   0  0  0  0  0  0  0  0  0  0  0  0
   -0.1340  -11.6690  -23.2190 C   0  0  0  0  0  0  0  0  0  0  0  0
    1.2410  -11.9170  -23.1520 C   0  0  0  0  0  3  0  0  0  0  0  0
    1.9870  -12.0080  -24.3310 C   0  0  0  0  0  3  0  0  0  0  0  0
    1.3690  -11.8360  -25.5830 C   0  0  0  0  0  0  0  0  0  0  0  0
   -0.0050  -11.5480  -25.6300 C   0  0  0  0  0  3  0  0  0  0  0  0
   -0.7450  -11.4600  -24.4520 C   0  0  0  0  0  0  0  0  0  0  0  0
   -2.0490  -11.1600  -24.5350 F   0  0  0  0  0  0  0  0  0  0  0  0
    2.1860  -11.9110  -26.8510 C   0  0  0  0  0  0  0  0  0  0  0  0
    2.0550  -10.7950  -27.6170 F   0  0  0  0  0  0  0  0  0  0  0  0
    3.5190  -12.0490  -26.6100 F   0  0  0  0  0  0  0  0  0  0  0  0
    1.8410  -12.9590  -27.6490 F   0  0  0  0  0  0  0  0  0  0  0  0
    0.1100   -6.3620  -23.9700 C   0  0  0  0  0  2  0  0  0  0  0  0
    3.6860   -8.0120  -28.6360 C   0  0  0  0  0  0  0  0  0  0  0  0
    4.6070   -8.8200  -27.9530 C   0  0  0  0  0  3  0  0  0  0  0  0
    4.4440   -9.0410  -26.5950 C   0  0  0  0  0  3  0  0  0  0  0  0
    3.3640   -8.4550  -25.9400 C   0  0  0  0  0  3  0  0  0  0  0  0
    2.4230   -7.6460  -26.6340 C   0  0  0  0  0  0  0  0  0  0  0  0
    1.3110   -7.0270  -26.0260 C   0  0  0  0  0  0  0  0  0  0  0  0
    1.0830   -7.1860  -24.6610 N   0  0  0  0  0  0  0  0  0  0  0  0
    0.4720   -6.2380  -26.7170 N   0  0  0  0  0  0  0  0  0  0  0  0
    0.7130   -6.0960  -28.0210 C   0  0  0  0  0  3  0  0  0  0  0  0
    1.7120   -6.6610  -28.7010 N   0  0  0  0  0  0  0  0  0  0  0  0
    2.5850   -7.4140  -28.0110 C   0  0  0  0  0  0  0  0  0  0  0  0
    1.1870   -8.1260  -24.3070 H   0  0  0  0  0  0  0  0  0  0  0  0
    4.6840   -6.6630  -30.3590 N   0  0  0  0  0  0  0  0  0  0  0  0
    3.9380   -7.7720  -30.0700 C   0  0  0  0  0  0  0  0  0  0  0  0
    3.4590   -8.4800  -30.9430 O   0  0  0  0  0  0  0  0  0  0  0  0
    4.8700   -6.4690  -31.3340 H   0  0  0  0  0  0  0  0  0  0  0  0
    5.1040   -6.0760  -29.6530 H   0  0  0  0  0  0  0  0  0  0  0  0
  1  6  1  0  0  0  0
  2  1  2  0  0  0  0
  2  3  1  0  0  0  0
  3  4  2  0  0  0  0
  4  5  1  0  0  0  0
  5  7  1  0  0  0  0
  6  5  2  0  0  0  0
  7 10  1  0  0  0  0
  8  7  1  0  0  0  0
  8  9  2  0  0  0  0
 11 12  1  0  0  0  0
 11  8  1  0  0  0  0
 13 12  2  0  0  0  0
 14 13  1  0  0  0  0
 15 14  2  0  0  0  0
 15 16  1  0  0  0  0
 16 11  2  0  0  0  0
 17 16  1  0  0  0  0
 18 20  1  0  0  0  0
 18 14  1  0  0  0  0
 19 18  1  0  0  0  0
 21 18  1  0  0  0  0
 22  1  1  0  0  0  0
 23 33  2  0  0  0  0
 23 24  1  0  0  0  0
 24 25  2  0  0  0  0
 25 26  1  0  0  0  0
 27 28  1  0  0  0  0
 27 26  2  0  0  0  0
 28 29  1  0  0  0  0
 29 34  1  0  0  0  0
 29 22  1  0  0  0  0
 30 28  2  0  0  0  0
 31 30  1  0  0  0  0
 32 31  2  0  0  0  0
 32 33  1  0  0  0  0
 33 27  1  0  0  0  0
 35 36  1  0  0  0  0
 35 39  1  0  0  0  0
 36 23  1  0  0  0  0
 37 36  2  0  0  0  0
 38 35  1  0  0  0  0
M  END
>  <minimizedAffinity>
-7.06837749

$$$$
