
 OpenBabel10152419533D

 39 42  0  0  0  0  0  0  0  0999 V2000
   -1.2370   -7.4460  -23.5230 C   0  0  0  0  0  0  0  0  0  0  0  0
   -2.3530   -7.5050  -24.3650 C   0  0  0  0  0  3  0  0  0  0  0  0
   -3.0510   -8.7000  -24.5210 C   0  0  0  0  0  3  0  0  0  0  0  0
   -2.6390   -9.8530  -23.8460 C   0  0  0  0  0  3  0  0  0  0  0  0
   -1.5080   -9.8300  -23.0300 C   0  0  0  0  0  0  0  0  0  0  0  0
   -0.8220   -8.6160  -22.8660 C   0  0  0  0  0  3  0  0  0  0  0  0
   -1.0290  -10.9260  -22.2880 N   0  0  0  0  0  0  0  0  0  0  0  0
   -0.2120  -11.9840  -22.6020 C   0  0  0  0  0  0  0  0  0  0  0  0
   -0.1530  -12.9570  -21.8490 O   0  0  0  0  0  0  0  0  0  0  0  0
   -1.3620  -10.9990  -21.3330 H   0  0  0  0  0  0  0  0  0  0  0  0
    0.6440  -11.9930  -23.7910 C   0  0  0  0  0  0  0  0  0  0  0  0
    2.0170  -11.7640  -23.6410 C   0  0  0  0  0  3  0  0  0  0  0  0
    2.8410  -11.7290  -24.7690 C   0  0  0  0  0  3  0  0  0  0  0  0
    2.3000  -11.9050  -26.0550 C   0  0  0  0  0  0  0  0  0  0  0  0
    0.9150  -12.0940  -26.1910 C   0  0  0  0  0  3  0  0  0  0  0  0
    0.0970  -12.1310  -25.0630 C   0  0  0  0  0  0  0  0  0  0  0  0
   -1.2230  -12.2900  -25.2330 F   0  0  0  0  0  0  0  0  0  0  0  0
    3.1930  -11.8420  -27.2720 C   0  0  0  0  0  0  0  0  0  0  0  0
    2.8970  -12.8090  -28.1810 F   0  0  0  0  0  0  0  0  0  0  0  0
    3.0930  -10.6570  -27.9350 F   0  0  0  0  0  0  0  0  0  0  0  0
    4.5130  -11.9930  -26.9760 F   0  0  0  0  0  0  0  0  0  0  0  0
   -0.4970   -6.1450  -23.3270 C   0  0  0  0  0  2  0  0  0  0  0  0
    2.4750   -6.5420  -28.6460 C   0  0  0  0  0  0  0  0  0  0  0  0
    1.9010   -5.4520  -29.3180 C   0  0  0  0  0  3  0  0  0  0  0  0
    0.9800   -4.6540  -28.6600 C   0  0  0  0  0  3  0  0  0  0  0  0
    0.6470   -4.9530  -27.3410 C   0  0  0  0  0  3  0  0  0  0  0  0
    1.2370   -6.0490  -26.6550 C   0  0  0  0  0  0  0  0  0  0  0  0
    0.9400   -6.4000  -25.3220 C   0  0  0  0  0  0  0  0  0  0  0  0
    0.0140   -5.6580  -24.5940 N   0  0  0  0  0  0  0  0  0  0  0  0
    1.4940   -7.4710  -24.7300 N   0  0  0  0  0  0  0  0  0  0  0  0
    2.3740   -8.1700  -25.4470 C   0  0  0  0  0  3  0  0  0  0  0  0
    2.7510   -7.9070  -26.6990 N   0  0  0  0  0  0  0  0  0  0  0  0
    2.1680   -6.8670  -27.3190 C   0  0  0  0  0  0  0  0  0  0  0  0
    0.0990   -4.6550  -24.6720 H   0  0  0  0  0  0  0  0  0  0  0  0
    4.6520   -7.5420  -28.8590 N   0  0  0  0  0  0  0  0  0  0  0  0
    3.4110   -7.3860  -29.4120 C   0  0  0  0  0  0  0  0  0  0  0  0
    3.1180   -7.8600  -30.5000 O   0  0  0  0  0  0  0  0  0  0  0  0
    5.3170   -8.1130  -29.3640 H   0  0  0  0  0  0  0  0  0  0  0  0
    4.9060   -7.1750  -27.9540 H   0  0  0  0  0  0  0  0  0  0  0  0
  1 22  1  0  0  0  0
  1  6  1  0  0  0  0
  2  1  2  0  0  0  0
  3  2  1  0  0  0  0
  3  4  2  0  0  0  0
  4  5  1  0  0  0  0
  5  6  2  0  0  0  0
  5  7  1  0  0  0  0
  7 10  1  0  0  0  0
  8  7  1  0  0  0  0
  8  9  2  0  0  0  0
 11 12  1  0  0  0  0
 11  8  1  0  0  0  0
 13 12  2  0  0  0  0
 14 13  1  0  0  0  0
 15 14  2  0  0  0  0
 15 16  1  0  0  0  0
 16 11  2  0  0  0  0
 17 16  1  0  0  0  0
 18 21  1  0  0  0  0
 18 14  1  0  0  0  0
 19 18  1  0  0  0  0
 20 18  1  0  0  0  0
 23 33  1  0  0  0  0
 24 25  1  0  0  0  0
 24 23  2  0  0  0  0
 25 26  2  0  0  0  0
 26 27  1  0  0  0  0
 27 28  1  0  0  0  0
 28 30  2  0  0  0  0
 28 29  1  0  0  0  0
 29 22  1  0  0  0  0
 31 30  1  0  0  0  0
 32 31  2  0  0  0  0
 33 32  1  0  0  0  0
 33 27  2  0  0  0  0
 34 29  1  0  0  0  0
 35 39  1  0  0  0  0
 36 35  1  0  0  0  0
 36 23  1  0  0  0  0
 37 36  2  0  0  0  0
 38 35  1  0  0  0  0
M  END
>  <minimizedAffinity>
-6.88532925

$$$$
