
 OpenBabel11232418523D

 42 48  0  0  1  0  0  0  0  0999 V2000
    7.2330   -4.5400   11.4240 C   0  0  0  0  0  0  0  0  0  0  0  0
    6.9580   -5.0120   10.1480 N   0  0  0  0  0  0  0  0  0  0  0  0
    6.7040   -3.9530    9.4180 C   0  0  0  0  0  0  0  0  0  0  0  0
    6.7240   -2.8220   10.1820 N   0  0  0  0  0  0  0  0  0  0  0  0
    7.1520   -3.1490   11.4490 C   0  0  0  0  0  0  0  0  0  0  0  0
    6.5310   -1.5070    9.5980 C   0  0  0  0  0  2  0  0  0  0  0  0
    5.7720   -1.5360    8.3690 O   0  0  0  0  0  0  0  0  0  0  0  0
    6.0380   -2.5850    7.5260 C   0  0  0  0  0  0  0  0  0  0  0  0
    5.8080   -2.3940    6.1680 C   0  0  0  0  0  3  0  0  0  0  0  0
    6.0880   -3.4280    5.2670 C   0  0  0  0  0  3  0  0  0  0  0  0
    6.5730   -4.6650    5.7210 C   0  0  0  0  0  0  0  0  0  0  0  0
    6.7420   -4.8640    7.0990 C   0  0  0  0  0  3  0  0  0  0  0  0
    6.4820   -3.8250    7.9970 C   0  0  0  0  0  0  0  0  0  0  0  0
    6.9270   -5.7260    4.7840 C   0  0  0  0  0  0  0  0  0  0  0  0
    7.4850   -5.6890    3.5200 C   0  0  0  0  0  3  0  0  0  0  0  0
    7.5390   -7.0280    3.0960 C   0  0  0  0  0  3  0  0  0  0  0  0
    7.0430   -7.8670    4.0060 N   0  0  0  0  0  0  0  0  0  0  0  0
    6.6810   -7.0580    5.0160 N   0  0  0  0  0  0  0  0  0  0  0  0
    6.2480   -7.4770    5.8310 H   0  0  0  0  0  0  0  0  0  0  0  0
    8.3910   -7.4740   14.4290 C   0  0  0  0  0  0  0  0  0  0  0  0
    7.3650   -7.6920   13.4830 C   0  0  0  0  0  3  0  0  0  0  0  0
    7.0010   -6.7270   12.5310 C   0  0  0  0  0  3  0  0  0  0  0  0
    7.6200   -5.4730   12.4830 C   0  0  0  0  0  0  0  0  0  0  0  0
    8.5820   -5.2060   13.4540 C   0  0  0  0  0  3  0  0  0  0  0  0
    8.9570   -6.1820   14.3940 C   0  0  0  0  0  3  0  0  0  0  0  0
   11.7890   -9.2350   17.2440 C   0  0  0  0  0  1  0  0  0  0  0  0
   10.8860   -8.4720   16.2870 C   0  0  1  0  0  0  0  0  0  0  0  0
   10.2170   -9.3680   15.2130 C   0  0  0  0  0  2  0  0  0  0  0  0
    8.8800   -8.6040   15.4590 C   0  0  1  0  0  0  0  0  0  0  0  0
    9.4660   -8.1480   16.8240 C   0  0  0  0  0  2  0  0  0  0  0  0
    7.7750   -9.5840   15.6330 N   0  0  0  0  0  4  0  0  0  0  0  0
    6.9830   -9.1780   16.1430 H   0  0  0  0  0  0  0  0  0  0  0  0
    7.4170   -9.8870   14.7140 H   0  0  0  0  0  0  0  0  0  0  0  0
    8.0600  -10.4300   16.1420 H   0  0  0  0  0  0  0  0  0  0  0  0
   11.5970   -7.3460   15.7410 O   0  0  0  0  0  0  0  0  0  0  0  0
   11.9810   -6.8590   16.4950 H   0  0  0  0  0  0  0  0  0  0  0  0
    7.5000   -2.1350   12.4330 C   0  0  0  0  0  0  0  0  0  0  0  0
    8.6240   -1.3220   12.2610 C   0  0  0  0  0  3  0  0  0  0  0  0
    8.9540   -0.3750   13.2330 C   0  0  0  0  0  3  0  0  0  0  0  0
    8.1650   -0.2380   14.3750 C   0  0  0  0  0  3  0  0  0  0  0  0
    7.0440   -1.0470   14.5510 C   0  0  0  0  0  3  0  0  0  0  0  0
    6.7140   -1.9960   13.5850 C   0  0  0  0  0  3  0  0  0  0  0  0
  1  5  2  0  0  0  0
  1 23  1  0  0  0  0
  2  1  1  0  0  0  0
  3  2  2  0  0  0  0
  3  4  1  0  0  0  0
  4  5  1  0  0  0  0
  5 37  1  0  0  0  0
  6  4  1  0  0  0  0
  7  6  1  0  0  0  0
  8 13  1  0  0  0  0
  8  7  1  0  0  0  0
  9  8  2  0  0  0  0
 10 11  2  0  0  0  0
 10  9  1  0  0  0  0
 11 12  1  0  0  0  0
 12 13  2  0  0  0  0
 13  3  1  0  0  0  0
 14 18  1  0  0  0  0
 14 11  1  0  0  0  0
 15 14  2  0  0  0  0
 16 15  1  0  0  0  0
 16 17  2  0  0  0  0
 17 18  1  0  0  0  0
 18 19  1  0  0  0  0
 20 29  1  0  0  0  0
 21 20  2  0  0  0  0
 22 21  1  0  0  0  0
 23 22  2  0  0  0  0
 23 24  1  0  0  0  0
 24 25  2  0  0  0  0
 25 20  1  0  0  0  0
 27 30  1  0  0  0  0
 27 26  1  1  0  0  0
 28 29  1  0  0  0  0
 28 27  1  0  0  0  0
 29 31  1  1  0  0  0
 29 30  1  0  0  0  0
 31 34  1  0  0  0  0
 31 32  1  0  0  0  0
 33 31  1  0  0  0  0
 35 27  1  0  0  0  0
 35 36  1  0  0  0  0
 37 42  1  0  0  0  0
 38 37  2  0  0  0  0
 38 39  1  0  0  0  0
 39 40  2  0  0  0  0
 40 41  1  0  0  0  0
 42 41  2  0  0  0  0
M  END
>  <minimizedAffinity>
-13.6684256

$$$$
