
 OpenBabel11232418523D

 42 48  0  0  1  0  0  0  0  0999 V2000
    7.6930   -6.8330   11.1990 C   0  0  0  0  0  0  0  0  0  0  0  0
    7.8710   -8.1730   11.5170 N   0  0  0  0  0  0  0  0  0  0  0  0
    8.1390   -8.2060   12.8000 C   0  0  0  0  0  0  0  0  0  0  0  0
    8.2210   -6.9440   13.3120 N   0  0  0  0  0  0  0  0  0  0  0  0
    7.8470   -6.0440   12.3380 C   0  0  0  0  0  0  0  0  0  0  0  0
    8.4490   -6.7090   14.7260 C   0  0  0  0  0  2  0  0  0  0  0  0
    9.1360   -7.7990   15.3800 O   0  0  0  0  0  0  0  0  0  0  0  0
    8.7690   -9.0610   14.9840 C   0  0  0  0  0  0  0  0  0  0  0  0
    8.9320  -10.0960   15.8980 C   0  0  0  0  0  3  0  0  0  0  0  0
    8.5500  -11.3950   15.5480 C   0  0  0  0  0  3  0  0  0  0  0  0
    8.0260  -11.6710   14.2740 C   0  0  0  0  0  0  0  0  0  0  0  0
    7.9250  -10.6290   13.3420 C   0  0  0  0  0  3  0  0  0  0  0  0
    8.2880   -9.3280   13.6990 C   0  0  0  0  0  0  0  0  0  0  0  0
    7.5670  -13.0110   13.9230 C   0  0  0  0  0  0  0  0  0  0  0  0
    7.2090  -13.5720   12.7120 C   0  0  0  0  0  3  0  0  0  0  0  0
    6.8040  -14.8840   13.0130 C   0  0  0  0  0  3  0  0  0  0  0  0
    6.8800  -15.1490   14.3180 N   0  0  0  0  0  0  0  0  0  0  0  0
    7.3440  -14.0050   14.8450 N   0  0  0  0  0  0  0  0  0  0  0  0
    7.4650  -13.9570   15.8510 H   0  0  0  0  0  0  0  0  0  0  0  0
    6.4850   -5.8770    7.1250 C   0  0  0  0  0  0  0  0  0  0  0  0
    7.1280   -7.0820    7.4840 C   0  0  0  0  0  3  0  0  0  0  0  0
    7.5190   -7.3640    8.8010 C   0  0  0  0  0  3  0  0  0  0  0  0
    7.3170   -6.4470    9.8390 C   0  0  0  0  0  0  0  0  0  0  0  0
    6.7530   -5.2200    9.4960 C   0  0  0  0  0  3  0  0  0  0  0  0
    6.3470   -4.9490    8.1780 C   0  0  0  0  0  3  0  0  0  0  0  0
    7.4070   -5.1750    2.5180 C   0  0  0  0  0  1  0  0  0  0  0  0
    7.3870   -5.4260    4.0170 C   0  0  1  0  0  0  0  0  0  0  0  0
    6.5330   -4.4030    4.8090 C   0  0  0  0  0  2  0  0  0  0  0  0
    5.9480   -5.5860    5.6400 C   0  0  1  0  0  0  0  0  0  0  0  0
    6.4080   -6.5310    4.4950 C   0  0  0  0  0  2  0  0  0  0  0  0
    4.4670   -5.4660    5.6960 N   0  0  0  0  0  4  0  0  0  0  0  0
    4.0210   -6.3680    5.8960 H   0  0  0  0  0  0  0  0  0  0  0  0
    4.1880   -4.8190    6.4480 H   0  0  0  0  0  0  0  0  0  0  0  0
    4.0560   -5.1140    4.8230 H   0  0  0  0  0  0  0  0  0  0  0  0
    8.7340   -5.5580    4.5060 O   0  0  0  0  0  0  0  0  0  0  0  0
    9.1800   -6.2140    3.9370 H   0  0  0  0  0  0  0  0  0  0  0  0
    7.6080   -4.6400   12.6330 C   0  0  0  0  0  0  0  0  0  0  0  0
    6.3340   -4.1860   12.9860 C   0  0  0  0  0  3  0  0  0  0  0  0
    6.1220   -2.8280   13.2370 C   0  0  0  0  0  3  0  0  0  0  0  0
    7.1800   -1.9240   13.1370 C   0  0  0  0  0  3  0  0  0  0  0  0
    8.4520   -2.3720   12.7850 C   0  0  0  0  0  3  0  0  0  0  0  0
    8.6650   -3.7250   12.5300 C   0  0  0  0  0  3  0  0  0  0  0  0
  1  2  1  0  0  0  0
  1  5  2  0  0  0  0
  2  3  2  0  0  0  0
  3  4  1  0  0  0  0
  3 13  1  0  0  0  0
  4  6  1  0  0  0  0
  5 37  1  0  0  0  0
  5  4  1  0  0  0  0
  6  7  1  0  0  0  0
  8  7  1  0  0  0  0
  8  9  1  0  0  0  0
 10  9  2  0  0  0  0
 11 10  1  0  0  0  0
 12 13  1  0  0  0  0
 12 11  2  0  0  0  0
 13  8  2  0  0  0  0
 14 11  1  0  0  0  0
 14 18  1  0  0  0  0
 15 16  1  0  0  0  0
 15 14  2  0  0  0  0
 16 17  2  0  0  0  0
 17 18  1  0  0  0  0
 18 19  1  0  0  0  0
 20 21  2  0  0  0  0
 20 25  1  0  0  0  0
 21 22  1  0  0  0  0
 22 23  2  0  0  0  0
 23  1  1  0  0  0  0
 24 23  1  0  0  0  0
 25 24  2  0  0  0  0
 27 26  1  6  0  0  0
 27 30  1  0  0  0  0
 27 35  1  0  0  0  0
 27 28  1  0  0  0  0
 28 29  1  0  0  0  0
 29 31  1  1  0  0  0
 29 20  1  0  0  0  0
 30 29  1  0  0  0  0
 31 32  1  0  0  0  0
 31 33  1  0  0  0  0
 34 31  1  0  0  0  0
 36 35  1  0  0  0  0
 37 38  1  0  0  0  0
 38 39  2  0  0  0  0
 40 39  1  0  0  0  0
 41 40  2  0  0  0  0
 42 37  2  0  0  0  0
 42 41  1  0  0  0  0
M  END
>  <minimizedAffinity>
-12.8453617

$$$$
