
 OpenBabel10152418333D

 39 42  0  0  0  0  0  0  0  0999 V2000
    4.0260  -11.1320  -28.2910 C   0  0  0  0  0  0  0  0  0  0  0  0
    3.5160  -12.0360  -29.2270 C   0  0  0  0  0  3  0  0  0  0  0  0
    3.4900  -11.7010  -30.5790 C   0  0  0  0  0  3  0  0  0  0  0  0
    3.9550  -10.4540  -31.0100 C   0  0  0  0  0  3  0  0  0  0  0  0
    4.4210   -9.5150  -30.0890 C   0  0  0  0  0  0  0  0  0  0  0  0
    4.4620   -9.8720  -28.7320 C   0  0  0  0  0  3  0  0  0  0  0  0
    4.9170   -8.2390  -30.4140 N   0  0  0  0  0  0  0  0  0  0  0  0
    4.4490   -6.9630  -30.2180 C   0  0  0  0  0  0  0  0  0  0  0  0
    4.9740   -6.0220  -30.8130 O   0  0  0  0  0  0  0  0  0  0  0  0
    5.7890   -8.2210  -30.9320 H   0  0  0  0  0  0  0  0  0  0  0  0
    3.3570   -6.6520  -29.2920 C   0  0  0  0  0  0  0  0  0  0  0  0
    2.1250   -6.2420  -29.8150 C   0  0  0  0  0  3  0  0  0  0  0  0
    1.0850   -5.8960  -28.9490 C   0  0  0  0  0  3  0  0  0  0  0  0
    1.2700   -5.9420  -27.5540 C   0  0  0  0  0  0  0  0  0  0  0  0
    2.5260   -6.3170  -27.0470 C   0  0  0  0  0  3  0  0  0  0  0  0
    3.5600   -6.6630  -27.9160 C   0  0  0  0  0  0  0  0  0  0  0  0
    4.7500   -6.9960  -27.3980 F   0  0  0  0  0  0  0  0  0  0  0  0
    0.1500   -5.5400  -26.6220 C   0  0  0  0  0  0  0  0  0  0  0  0
   -0.3800   -4.3290  -26.9420 F   0  0  0  0  0  0  0  0  0  0  0  0
   -0.8890   -6.4220  -26.6340 F   0  0  0  0  0  0  0  0  0  0  0  0
    0.5440   -5.4490  -25.3220 F   0  0  0  0  0  0  0  0  0  0  0  0
    4.0870  -11.4990  -26.8280 C   0  0  0  0  0  2  0  0  0  0  0  0
   -1.0780   -9.2610  -24.4730 C   0  0  0  0  0  0  0  0  0  0  0  0
   -1.9410  -10.3360  -24.7350 C   0  0  0  0  0  3  0  0  0  0  0  0
   -1.4370  -11.4840  -25.3220 C   0  0  0  0  0  3  0  0  0  0  0  0
   -0.0830  -11.5420  -25.6390 C   0  0  0  0  0  3  0  0  0  0  0  0
    0.7950  -10.4570  -25.3630 C   0  0  0  0  0  0  0  0  0  0  0  0
    2.1750  -10.4590  -25.6620 C   0  0  0  0  0  0  0  0  0  0  0  0
    2.7530  -11.5700  -26.2690 N   0  0  0  0  0  0  0  0  0  0  0  0
    2.9550   -9.3940  -25.4170 N   0  0  0  0  0  0  0  0  0  0  0  0
    2.3750   -8.3390  -24.8410 C   0  0  0  0  0  3  0  0  0  0  0  0
    1.0910   -8.2440  -24.4900 N   0  0  0  0  0  0  0  0  0  0  0  0
    0.2900   -9.2870  -24.7710 C   0  0  0  0  0  0  0  0  0  0  0  0
    2.4910  -12.4630  -25.8750 H   0  0  0  0  0  0  0  0  0  0  0  0
   -1.1320   -7.6260  -22.7120 N   0  0  0  0  0  0  0  0  0  0  0  0
   -1.6790   -8.0470  -23.8920 C   0  0  0  0  0  0  0  0  0  0  0  0
   -2.6460   -7.4960  -24.3970 O   0  0  0  0  0  0  0  0  0  0  0  0
   -1.5270   -6.7990  -22.2850 H   0  0  0  0  0  0  0  0  0  0  0  0
   -0.3230   -8.0580  -22.2900 H   0  0  0  0  0  0  0  0  0  0  0  0
  1 22  1  0  0  0  0
  2  1  2  0  0  0  0
  3  2  1  0  0  0  0
  4  3  2  0  0  0  0
  4  5  1  0  0  0  0
  5  6  2  0  0  0  0
  6  1  1  0  0  0  0
  7  8  1  0  0  0  0
  7  5  1  0  0  0  0
  8 11  1  0  0  0  0
  9  8  2  0  0  0  0
 10  7  1  0  0  0  0
 11 16  1  0  0  0  0
 12 11  2  0  0  0  0
 12 13  1  0  0  0  0
 13 14  2  0  0  0  0
 14 15  1  0  0  0  0
 14 18  1  0  0  0  0
 16 17  1  0  0  0  0
 16 15  2  0  0  0  0
 18 21  1  0  0  0  0
 19 18  1  0  0  0  0
 20 18  1  0  0  0  0
 22 29  1  0  0  0  0
 23 36  1  0  0  0  0
 24 23  1  0  0  0  0
 25 24  2  0  0  0  0
 26 27  2  0  0  0  0
 26 25  1  0  0  0  0
 27 33  1  0  0  0  0
 28 30  2  0  0  0  0
 28 27  1  0  0  0  0
 29 34  1  0  0  0  0
 29 28  1  0  0  0  0
 30 31  1  0  0  0  0
 31 32  2  0  0  0  0
 33 32  1  0  0  0  0
 33 23  2  0  0  0  0
 35 39  1  0  0  0  0
 35 38  1  0  0  0  0
 36 35  1  0  0  0  0
 37 36  2  0  0  0  0
M  END
>  <minimizedAffinity>
-5.76214552

$$$$
