
 OpenBabel10152418333D

 39 42  0  0  0  0  0  0  0  0999 V2000
   -0.8080   -6.9130  -23.4410 C   0  0  0  0  0  0  0  0  0  0  0  0
   -1.1190   -6.8160  -22.0810 C   0  0  0  0  0  3  0  0  0  0  0  0
   -1.9880   -7.7340  -21.4960 C   0  0  0  0  0  3  0  0  0  0  0  0
   -2.5700   -8.7480  -22.2640 C   0  0  0  0  0  3  0  0  0  0  0  0
   -2.3150   -8.8350  -23.6330 C   0  0  0  0  0  0  0  0  0  0  0  0
   -1.4210   -7.9180  -24.2070 C   0  0  0  0  0  3  0  0  0  0  0  0
   -2.8390   -9.8170  -24.4940 N   0  0  0  0  0  0  0  0  0  0  0  0
   -2.2860  -10.6270  -25.4540 C   0  0  0  0  0  0  0  0  0  0  0  0
   -3.0170  -11.2410  -26.2320 O   0  0  0  0  0  0  0  0  0  0  0  0
   -3.8420   -9.9610  -24.4450 H   0  0  0  0  0  0  0  0  0  0  0  0
   -0.8400  -10.8320  -25.5820 C   0  0  0  0  0  0  0  0  0  0  0  0
   -0.2030  -11.7160  -24.7040 C   0  0  0  0  0  3  0  0  0  0  0  0
    1.1810  -11.8900  -24.7800 C   0  0  0  0  0  3  0  0  0  0  0  0
    1.9420  -11.1730  -25.7220 C   0  0  0  0  0  0  0  0  0  0  0  0
    1.2910  -10.2610  -26.5700 C   0  0  0  0  0  3  0  0  0  0  0  0
   -0.0910  -10.0910  -26.4910 C   0  0  0  0  0  0  0  0  0  0  0  0
   -0.6760   -9.1980  -27.3000 F   0  0  0  0  0  0  0  0  0  0  0  0
    3.4430  -11.3460  -25.7820 C   0  0  0  0  0  0  0  0  0  0  0  0
    3.8410  -12.0240  -26.8920 F   0  0  0  0  0  0  0  0  0  0  0  0
    4.1100  -10.1580  -25.8060 F   0  0  0  0  0  0  0  0  0  0  0  0
    3.9450  -12.0320  -24.7200 F   0  0  0  0  0  0  0  0  0  0  0  0
    0.1570   -5.9420  -24.0750 C   0  0  0  0  0  2  0  0  0  0  0  0
    3.6430   -7.4190  -28.8610 C   0  0  0  0  0  0  0  0  0  0  0  0
    4.7440   -7.9710  -28.1880 C   0  0  0  0  0  3  0  0  0  0  0  0
    4.7150   -8.0730  -26.8080 C   0  0  0  0  0  3  0  0  0  0  0  0
    3.5920   -7.6240  -26.1210 C   0  0  0  0  0  3  0  0  0  0  0  0
    2.4700   -7.0750  -26.8020 C   0  0  0  0  0  0  0  0  0  0  0  0
    1.3050   -6.6040  -26.1600 C   0  0  0  0  0  0  0  0  0  0  0  0
    1.2070   -6.6560  -24.7720 N   0  0  0  0  0  0  0  0  0  0  0  0
    0.2880   -6.0570  -26.8460 N   0  0  0  0  0  0  0  0  0  0  0  0
    0.4100   -6.0120  -28.1730 C   0  0  0  0  0  3  0  0  0  0  0  0
    1.4500   -6.4560  -28.8820 N   0  0  0  0  0  0  0  0  0  0  0  0
    2.4930   -6.9640  -28.2030 C   0  0  0  0  0  0  0  0  0  0  0  0
    1.4970   -7.5280  -24.3520 H   0  0  0  0  0  0  0  0  0  0  0  0
    4.9570   -6.8470  -30.7900 N   0  0  0  0  0  0  0  0  0  0  0  0
    3.7500   -7.2900  -30.3250 C   0  0  0  0  0  0  0  0  0  0  0  0
    2.8020   -7.5000  -31.0660 O   0  0  0  0  0  0  0  0  0  0  0  0
    5.0600   -6.7410  -31.7910 H   0  0  0  0  0  0  0  0  0  0  0  0
    5.7560   -6.6850  -30.1950 H   0  0  0  0  0  0  0  0  0  0  0  0
  1  2  1  0  0  0  0
  2  3  2  0  0  0  0
  4  3  1  0  0  0  0
  5  4  2  0  0  0  0
  6  5  1  0  0  0  0
  6  1  2  0  0  0  0
  7 10  1  0  0  0  0
  7  5  1  0  0  0  0
  8  7  1  0  0  0  0
  9  8  2  0  0  0  0
 11  8  1  0  0  0  0
 11 12  1  0  0  0  0
 13 12  2  0  0  0  0
 14 13  1  0  0  0  0
 15 16  1  0  0  0  0
 15 14  2  0  0  0  0
 16 11  2  0  0  0  0
 17 16  1  0  0  0  0
 18 14  1  0  0  0  0
 18 21  1  0  0  0  0
 19 18  1  0  0  0  0
 20 18  1  0  0  0  0
 22  1  1  0  0  0  0
 23 33  2  0  0  0  0
 23 24  1  0  0  0  0
 24 25  2  0  0  0  0
 25 26  1  0  0  0  0
 27 28  1  0  0  0  0
 27 26  2  0  0  0  0
 28 29  1  0  0  0  0
 29 34  1  0  0  0  0
 29 22  1  0  0  0  0
 30 28  2  0  0  0  0
 31 30  1  0  0  0  0
 32 33  1  0  0  0  0
 32 31  2  0  0  0  0
 33 27  1  0  0  0  0
 35 36  1  0  0  0  0
 35 39  1  0  0  0  0
 36 23  1  0  0  0  0
 37 36  2  0  0  0  0
 38 35  1  0  0  0  0
M  END
>  <minimizedAffinity>
-3.66293025

$$$$
