
 OpenBabel10152418333D

 39 42  0  0  0  0  0  0  0  0999 V2000
   -0.3190   -9.8630  -24.1710 C   0  0  0  0  0  0  0  0  0  0  0  0
   -1.1790  -10.3160  -25.1750 C   0  0  0  0  0  3  0  0  0  0  0  0
   -0.7140  -11.1990  -26.1470 C   0  0  0  0  0  3  0  0  0  0  0  0
    0.6180  -11.6260  -26.1390 C   0  0  0  0  0  3  0  0  0  0  0  0
    1.5090  -11.1490  -25.1770 C   0  0  0  0  0  0  0  0  0  0  0  0
    1.0230  -10.2770  -24.1900 C   0  0  0  0  0  3  0  0  0  0  0  0
    2.8630  -11.5180  -25.0720 N   0  0  0  0  0  0  0  0  0  0  0  0
    3.9380  -11.4210  -25.9180 C   0  0  0  0  0  0  0  0  0  0  0  0
    4.9730  -12.0390  -25.6650 O   0  0  0  0  0  0  0  0  0  0  0  0
    3.1290  -11.9880  -24.2130 H   0  0  0  0  0  0  0  0  0  0  0  0
    3.9330  -10.5750  -27.1150 C   0  0  0  0  0  0  0  0  0  0  0  0
    4.0190  -11.1830  -28.3730 C   0  0  0  0  0  3  0  0  0  0  0  0
    4.0620  -10.3920  -29.5230 C   0  0  0  0  0  3  0  0  0  0  0  0
    4.0340   -8.9890  -29.4290 C   0  0  0  0  0  0  0  0  0  0  0  0
    3.9880   -8.3940  -28.1560 C   0  0  0  0  0  3  0  0  0  0  0  0
    3.9450   -9.1870  -27.0110 C   0  0  0  0  0  0  0  0  0  0  0  0
    3.9210   -8.5860  -25.8130 F   0  0  0  0  0  0  0  0  0  0  0  0
    4.1080   -8.1380  -30.6760 C   0  0  0  0  0  0  0  0  0  0  0  0
    4.9740   -8.6420  -31.5950 F   0  0  0  0  0  0  0  0  0  0  0  0
    2.9070   -8.0260  -31.3110 F   0  0  0  0  0  0  0  0  0  0  0  0
    4.5170   -6.8630  -30.4300 F   0  0  0  0  0  0  0  0  0  0  0  0
   -0.8230   -8.9320  -23.0950 C   0  0  0  0  0  2  0  0  0  0  0  0
    0.1390   -4.4040  -27.0710 C   0  0  0  0  0  0  0  0  0  0  0  0
   -0.4630   -3.3470  -26.3730 C   0  0  0  0  0  3  0  0  0  0  0  0
   -0.9860   -3.5760  -25.1120 C   0  0  0  0  0  3  0  0  0  0  0  0
   -0.9010   -4.8530  -24.5670 C   0  0  0  0  0  3  0  0  0  0  0  0
   -0.2820   -5.9240  -25.2700 C   0  0  0  0  0  0  0  0  0  0  0  0
   -0.1670   -7.2390  -24.7690 C   0  0  0  0  0  0  0  0  0  0  0  0
   -0.6830   -7.5530  -23.5160 N   0  0  0  0  0  0  0  0  0  0  0  0
    0.3940   -8.2260  -25.4880 N   0  0  0  0  0  0  0  0  0  0  0  0
    0.8750   -7.9000  -26.6880 C   0  0  0  0  0  3  0  0  0  0  0  0
    0.8470   -6.6860  -27.2430 N   0  0  0  0  0  0  0  0  0  0  0  0
    0.2480   -5.7000  -26.5520 C   0  0  0  0  0  0  0  0  0  0  0  0
   -0.4690   -6.8920  -22.7820 H   0  0  0  0  0  0  0  0  0  0  0  0
    0.2650   -5.0090  -29.3940 N   0  0  0  0  0  0  0  0  0  0  0  0
    0.6330   -4.1130  -28.4290 C   0  0  0  0  0  0  0  0  0  0  0  0
    1.3790   -3.1740  -28.6600 O   0  0  0  0  0  0  0  0  0  0  0  0
    0.5940   -4.8400  -30.3350 H   0  0  0  0  0  0  0  0  0  0  0  0
   -0.3640   -5.7800  -29.2240 H   0  0  0  0  0  0  0  0  0  0  0  0
  1 22  1  0  0  0  0
  2  1  2  0  0  0  0
  3  4  2  0  0  0  0
  3  2  1  0  0  0  0
  4  5  1  0  0  0  0
  5  7  1  0  0  0  0
  5  6  2  0  0  0  0
  6  1  1  0  0  0  0
  7 10  1  0  0  0  0
  8  9  2  0  0  0  0
  8  7  1  0  0  0  0
 11 16  1  0  0  0  0
 11  8  1  0  0  0  0
 12 11  2  0  0  0  0
 13 14  2  0  0  0  0
 13 12  1  0  0  0  0
 14 15  1  0  0  0  0
 15 16  2  0  0  0  0
 16 17  1  0  0  0  0
 18 21  1  0  0  0  0
 18 14  1  0  0  0  0
 19 18  1  0  0  0  0
 20 18  1  0  0  0  0
 23 33  2  0  0  0  0
 23 24  1  0  0  0  0
 24 25  2  0  0  0  0
 25 26  1  0  0  0  0
 27 28  1  0  0  0  0
 27 26  2  0  0  0  0
 28 29  1  0  0  0  0
 29 22  1  0  0  0  0
 29 34  1  0  0  0  0
 30 28  2  0  0  0  0
 31 30  1  0  0  0  0
 32 31  2  0  0  0  0
 32 33  1  0  0  0  0
 33 27  1  0  0  0  0
 35 39  1  0  0  0  0
 35 36  1  0  0  0  0
 36 23  1  0  0  0  0
 37 36  2  0  0  0  0
 38 35  1  0  0  0  0
M  END
>  <minimizedAffinity>
-3.68263268

$$$$
