
 OpenBabel10152418333D

 39 42  0  0  0  0  0  0  0  0999 V2000
    3.6280  -10.8470  -29.3570 C   0  0  0  0  0  0  0  0  0  0  0  0
    3.3910  -10.9140  -30.7330 C   0  0  0  0  0  3  0  0  0  0  0  0
    3.6790   -9.8210  -31.5460 C   0  0  0  0  0  3  0  0  0  0  0  0
    4.1890   -8.6410  -30.9930 C   0  0  0  0  0  3  0  0  0  0  0  0
    4.3860   -8.5310  -29.6160 C   0  0  0  0  0  0  0  0  0  0  0  0
    4.1130   -9.6480  -28.8100 C   0  0  0  0  0  3  0  0  0  0  0  0
    4.9000   -7.3980  -28.9590 N   0  0  0  0  0  0  0  0  0  0  0  0
    4.3590   -6.4760  -28.0980 C   0  0  0  0  0  0  0  0  0  0  0  0
    4.9730   -5.4390  -27.8500 O   0  0  0  0  0  0  0  0  0  0  0  0
    5.8650   -7.1650  -29.1670 H   0  0  0  0  0  0  0  0  0  0  0  0
    3.0760   -6.6820  -27.4190 C   0  0  0  0  0  0  0  0  0  0  0  0
    1.9900   -5.8700  -27.7660 C   0  0  0  0  0  3  0  0  0  0  0  0
    0.7730   -6.0190  -27.0980 C   0  0  0  0  0  3  0  0  0  0  0  0
    0.6330   -6.9680  -26.0680 C   0  0  0  0  0  0  0  0  0  0  0  0
    1.7450   -7.7470  -25.7060 C   0  0  0  0  0  3  0  0  0  0  0  0
    2.9580   -7.5960  -26.3760 C   0  0  0  0  0  0  0  0  0  0  0  0
    4.0020   -8.3410  -25.9900 F   0  0  0  0  0  0  0  0  0  0  0  0
   -0.6800   -7.1060  -25.3300 C   0  0  0  0  0  0  0  0  0  0  0  0
   -1.5780   -7.8680  -26.0120 F   0  0  0  0  0  0  0  0  0  0  0  0
   -0.5390   -7.6920  -24.1080 F   0  0  0  0  0  0  0  0  0  0  0  0
   -1.2920   -5.9130  -25.1010 F   0  0  0  0  0  0  0  0  0  0  0  0
    3.3490  -12.0390  -28.4740 C   0  0  0  0  0  2  0  0  0  0  0  0
   -0.6660  -10.9720  -24.0040 C   0  0  0  0  0  0  0  0  0  0  0  0
   -1.8110  -10.7130  -24.7740 C   0  0  0  0  0  3  0  0  0  0  0  0
   -1.7410  -10.8180  -26.1530 C   0  0  0  0  0  3  0  0  0  0  0  0
   -0.5330  -11.1790  -26.7420 C   0  0  0  0  0  3  0  0  0  0  0  0
    0.6260  -11.4520  -25.9630 C   0  0  0  0  0  0  0  0  0  0  0  0
    1.8760  -11.8210  -26.5040 C   0  0  0  0  0  0  0  0  0  0  0  0
    2.0310  -11.9310  -27.8820 N   0  0  0  0  0  0  0  0  0  0  0  0
    2.9510  -12.0320  -25.7270 N   0  0  0  0  0  0  0  0  0  0  0  0
    2.7770  -11.9130  -24.4100 C   0  0  0  0  0  3  0  0  0  0  0  0
    1.6360  -11.6010  -23.7930 N   0  0  0  0  0  0  0  0  0  0  0  0
    0.5630  -11.3440  -24.5620 C   0  0  0  0  0  0  0  0  0  0  0  0
    1.2940  -12.4290  -28.3620 H   0  0  0  0  0  0  0  0  0  0  0  0
   -0.9990  -11.9420  -21.8320 N   0  0  0  0  0  0  0  0  0  0  0  0
   -0.7870  -10.7970  -22.5460 C   0  0  0  0  0  0  0  0  0  0  0  0
   -0.7670   -9.6930  -22.0210 O   0  0  0  0  0  0  0  0  0  0  0  0
   -1.0930  -11.8550  -20.8280 H   0  0  0  0  0  0  0  0  0  0  0  0
   -1.0010  -12.8630  -22.2460 H   0  0  0  0  0  0  0  0  0  0  0  0
  1  6  1  0  0  0  0
  1 22  1  0  0  0  0
  2  1  2  0  0  0  0
  3  4  2  0  0  0  0
  3  2  1  0  0  0  0
  4  5  1  0  0  0  0
  5  7  1  0  0  0  0
  5  6  2  0  0  0  0
  7  8  1  0  0  0  0
  8  9  2  0  0  0  0
  8 11  1  0  0  0  0
 10  7  1  0  0  0  0
 11 16  1  0  0  0  0
 12 11  2  0  0  0  0
 12 13  1  0  0  0  0
 13 14  2  0  0  0  0
 14 15  1  0  0  0  0
 14 18  1  0  0  0  0
 16 17  1  0  0  0  0
 16 15  2  0  0  0  0
 18 21  1  0  0  0  0
 18 20  1  0  0  0  0
 19 18  1  0  0  0  0
 22 29  1  0  0  0  0
 23 36  1  0  0  0  0
 24 23  2  0  0  0  0
 25 24  1  0  0  0  0
 26 25  2  0  0  0  0
 26 27  1  0  0  0  0
 27 33  1  0  0  0  0
 28 27  2  0  0  0  0
 28 30  1  0  0  0  0
 29 28  1  0  0  0  0
 30 31  2  0  0  0  0
 31 32  1  0  0  0  0
 33 23  1  0  0  0  0
 33 32  2  0  0  0  0
 34 29  1  0  0  0  0
 35 38  1  0  0  0  0
 36 37  2  0  0  0  0
 36 35  1  0  0  0  0
 39 35  1  0  0  0  0
M  END
>  <minimizedAffinity>
-6.33131409

$$$$

 OpenBabel10152418333D

 39 42  0  0  0  0  0  0  0  0999 V2000
    4.0260  -11.1320  -28.2910 C   0  0  0  0  0  0  0  0  0  0  0  0
    3.5160  -12.0360  -29.2270 C   0  0  0  0  0  3  0  0  0  0  0  0
    3.4900  -11.7010  -30.5790 C   0  0  0  0  0  3  0  0  0  0  0  0
    3.9550  -10.4540  -31.0100 C   0  0  0  0  0  3  0  0  0  0  0  0
    4.4210   -9.5150  -30.0890 C   0  0  0  0  0  0  0  0  0  0  0  0
    4.4620   -9.8720  -28.7320 C   0  0  0  0  0  3  0  0  0  0  0  0
    4.9170   -8.2390  -30.4140 N   0  0  0  0  0  0  0  0  0  0  0  0
    4.4490   -6.9630  -30.2180 C   0  0  0  0  0  0  0  0  0  0  0  0
    4.9740   -6.0220  -30.8130 O   0  0  0  0  0  0  0  0  0  0  0  0
    5.7890   -8.2210  -30.9320 H   0  0  0  0  0  0  0  0  0  0  0  0
    3.3570   -6.6520  -29.2920 C   0  0  0  0  0  0  0  0  0  0  0  0
    2.1250   -6.2420  -29.8150 C   0  0  0  0  0  3  0  0  0  0  0  0
    1.0850   -5.8960  -28.9490 C   0  0  0  0  0  3  0  0  0  0  0  0
    1.2700   -5.9420  -27.5540 C   0  0  0  0  0  0  0  0  0  0  0  0
    2.5260   -6.3170  -27.0470 C   0  0  0  0  0  3  0  0  0  0  0  0
    3.5600   -6.6630  -27.9160 C   0  0  0  0  0  0  0  0  0  0  0  0
    4.7500   -6.9960  -27.3980 F   0  0  0  0  0  0  0  0  0  0  0  0
    0.1500   -5.5400  -26.6220 C   0  0  0  0  0  0  0  0  0  0  0  0
   -0.3800   -4.3290  -26.9420 F   0  0  0  0  0  0  0  0  0  0  0  0
   -0.8890   -6.4220  -26.6340 F   0  0  0  0  0  0  0  0  0  0  0  0
    0.5440   -5.4490  -25.3220 F   0  0  0  0  0  0  0  0  0  0  0  0
    4.0870  -11.4990  -26.8280 C   0  0  0  0  0  2  0  0  0  0  0  0
   -1.0780   -9.2610  -24.4730 C   0  0  0  0  0  0  0  0  0  0  0  0
   -1.9410  -10.3360  -24.7350 C   0  0  0  0  0  3  0  0  0  0  0  0
   -1.4370  -11.4840  -25.3220 C   0  0  0  0  0  3  0  0  0  0  0  0
   -0.0830  -11.5420  -25.6390 C   0  0  0  0  0  3  0  0  0  0  0  0
    0.7950  -10.4570  -25.3630 C   0  0  0  0  0  0  0  0  0  0  0  0
    2.1750  -10.4590  -25.6620 C   0  0  0  0  0  0  0  0  0  0  0  0
    2.7530  -11.5700  -26.2690 N   0  0  0  0  0  0  0  0  0  0  0  0
    2.9550   -9.3940  -25.4170 N   0  0  0  0  0  0  0  0  0  0  0  0
    2.3750   -8.3390  -24.8410 C   0  0  0  0  0  3  0  0  0  0  0  0
    1.0910   -8.2440  -24.4900 N   0  0  0  0  0  0  0  0  0  0  0  0
    0.2900   -9.2870  -24.7710 C   0  0  0  0  0  0  0  0  0  0  0  0
    2.4910  -12.4630  -25.8750 H   0  0  0  0  0  0  0  0  0  0  0  0
   -1.1320   -7.6260  -22.7120 N   0  0  0  0  0  0  0  0  0  0  0  0
   -1.6790   -8.0470  -23.8920 C   0  0  0  0  0  0  0  0  0  0  0  0
   -2.6460   -7.4960  -24.3970 O   0  0  0  0  0  0  0  0  0  0  0  0
   -1.5270   -6.7990  -22.2850 H   0  0  0  0  0  0  0  0  0  0  0  0
   -0.3230   -8.0580  -22.2900 H   0  0  0  0  0  0  0  0  0  0  0  0
  1 22  1  0  0  0  0
  2  1  2  0  0  0  0
  3  2  1  0  0  0  0
  4  3  2  0  0  0  0
  4  5  1  0  0  0  0
  5  6  2  0  0  0  0
  6  1  1  0  0  0  0
  7  8  1  0  0  0  0
  7  5  1  0  0  0  0
  8 11  1  0  0  0  0
  9  8  2  0  0  0  0
 10  7  1  0  0  0  0
 11 16  1  0  0  0  0
 12 11  2  0  0  0  0
 12 13  1  0  0  0  0
 13 14  2  0  0  0  0
 14 15  1  0  0  0  0
 14 18  1  0  0  0  0
 16 17  1  0  0  0  0
 16 15  2  0  0  0  0
 18 21  1  0  0  0  0
 19 18  1  0  0  0  0
 20 18  1  0  0  0  0
 22 29  1  0  0  0  0
 23 36  1  0  0  0  0
 24 23  1  0  0  0  0
 25 24  2  0  0  0  0
 26 27  2  0  0  0  0
 26 25  1  0  0  0  0
 27 33  1  0  0  0  0
 28 30  2  0  0  0  0
 28 27  1  0  0  0  0
 29 34  1  0  0  0  0
 29 28  1  0  0  0  0
 30 31  1  0  0  0  0
 31 32  2  0  0  0  0
 33 32  1  0  0  0  0
 33 23  2  0  0  0  0
 35 39  1  0  0  0  0
 35 38  1  0  0  0  0
 36 35  1  0  0  0  0
 37 36  2  0  0  0  0
M  END
>  <minimizedAffinity>
-5.76214552

$$$$

 OpenBabel10152418333D

 39 42  0  0  0  0  0  0  0  0999 V2000
    0.4890   -5.3540  -27.1140 C   0  0  0  0  0  0  0  0  0  0  0  0
   -0.1080   -4.7510  -26.0020 C   0  0  0  0  0  3  0  0  0  0  0  0
   -0.9810   -5.4790  -25.1980 C   0  0  0  0  0  3  0  0  0  0  0  0
   -1.2840   -6.8100  -25.5030 C   0  0  0  0  0  3  0  0  0  0  0  0
   -0.7410   -7.4190  -26.6350 C   0  0  0  0  0  0  0  0  0  0  0  0
    0.1550   -6.6820  -27.4260 C   0  0  0  0  0  3  0  0  0  0  0  0
   -0.9710   -8.7500  -27.0290 N   0  0  0  0  0  0  0  0  0  0  0  0
   -1.0380   -9.9400  -26.3480 C   0  0  0  0  0  0  0  0  0  0  0  0
   -1.0210  -11.0020  -26.9700 O   0  0  0  0  0  0  0  0  0  0  0  0
   -1.0830   -8.9050  -28.0240 H   0  0  0  0  0  0  0  0  0  0  0  0
   -1.1650  -10.0140  -24.8890 C   0  0  0  0  0  0  0  0  0  0  0  0
   -2.1980   -9.3050  -24.2650 C   0  0  0  0  0  3  0  0  0  0  0  0
   -2.3080   -9.3250  -22.8720 C   0  0  0  0  0  3  0  0  0  0  0  0
   -1.3820  -10.0400  -22.0910 C   0  0  0  0  0  0  0  0  0  0  0  0
   -0.3280  -10.7140  -22.7320 C   0  0  0  0  0  3  0  0  0  0  0  0
   -0.2220  -10.6920  -24.1220 C   0  0  0  0  0  0  0  0  0  0  0  0
    0.8060  -11.3290  -24.6990 F   0  0  0  0  0  0  0  0  0  0  0  0
   -1.4910  -10.0370  -20.5830 C   0  0  0  0  0  0  0  0  0  0  0  0
   -2.7790  -10.1380  -20.1580 F   0  0  0  0  0  0  0  0  0  0  0  0
   -0.8200  -11.0710  -20.0030 F   0  0  0  0  0  0  0  0  0  0  0  0
   -0.9930   -8.9050  -20.0140 F   0  0  0  0  0  0  0  0  0  0  0  0
    1.4610   -4.5820  -27.9720 C   0  0  0  0  0  2  0  0  0  0  0  0
    4.2210   -9.7870  -29.5610 C   0  0  0  0  0  0  0  0  0  0  0  0
    4.1480   -9.6750  -30.9580 C   0  0  0  0  0  3  0  0  0  0  0  0
    3.5980   -8.5350  -31.5200 C   0  0  0  0  0  3  0  0  0  0  0  0
    3.1310   -7.5270  -30.6830 C   0  0  0  0  0  3  0  0  0  0  0  0
    3.2150   -7.6340  -29.2660 C   0  0  0  0  0  0  0  0  0  0  0  0
    2.7580   -6.6460  -28.3680 C   0  0  0  0  0  0  0  0  0  0  0  0
    2.1770   -5.4790  -28.8550 N   0  0  0  0  0  0  0  0  0  0  0  0
    2.8250   -6.8120  -27.0370 N   0  0  0  0  0  0  0  0  0  0  0  0
    3.3790   -7.9420  -26.5960 C   0  0  0  0  0  3  0  0  0  0  0  0
    3.8700   -8.9240  -27.3540 N   0  0  0  0  0  0  0  0  0  0  0  0
    3.7680   -8.7900  -28.6880 C   0  0  0  0  0  0  0  0  0  0  0  0
    2.6680   -5.0390  -29.6210 H   0  0  0  0  0  0  0  0  0  0  0  0
    4.9740  -12.0380  -29.9330 N   0  0  0  0  0  0  0  0  0  0  0  0
    4.7710  -11.0420  -29.0190 C   0  0  0  0  0  0  0  0  0  0  0  0
    4.9660  -11.2020  -27.8240 O   0  0  0  0  0  0  0  0  0  0  0  0
    5.3450  -12.9150  -29.5910 H   0  0  0  0  0  0  0  0  0  0  0  0
    4.8350  -11.9180  -30.9260 H   0  0  0  0  0  0  0  0  0  0  0  0
  1  2  1  0  0  0  0
  2  3  2  0  0  0  0
  4  3  1  0  0  0  0
  5  4  2  0  0  0  0
  6  1  2  0  0  0  0
  6  5  1  0  0  0  0
  7  5  1  0  0  0  0
  7  8  1  0  0  0  0
  8 11  1  0  0  0  0
  9  8  2  0  0  0  0
 10  7  1  0  0  0  0
 11 12  2  0  0  0  0
 11 16  1  0  0  0  0
 12 13  1  0  0  0  0
 13 14  2  0  0  0  0
 14 18  1  0  0  0  0
 15 14  1  0  0  0  0
 16 15  2  0  0  0  0
 17 16  1  0  0  0  0
 18 19  1  0  0  0  0
 18 21  1  0  0  0  0
 18 20  1  0  0  0  0
 22  1  1  0  0  0  0
 23 36  1  0  0  0  0
 23 33  1  0  0  0  0
 24 23  2  0  0  0  0
 25 24  1  0  0  0  0
 25 26  2  0  0  0  0
 26 27  1  0  0  0  0
 27 33  2  0  0  0  0
 27 28  1  0  0  0  0
 28 30  2  0  0  0  0
 29 28  1  0  0  0  0
 29 22  1  0  0  0  0
 30 31  1  0  0  0  0
 32 31  2  0  0  0  0
 33 32  1  0  0  0  0
 34 29  1  0  0  0  0
 35 38  1  0  0  0  0
 35 36  1  0  0  0  0
 36 37  2  0  0  0  0
 39 35  1  0  0  0  0
M  END
>  <minimizedAffinity>
-5.05742216

$$$$

 OpenBabel10152418333D

 39 42  0  0  0  0  0  0  0  0999 V2000
   -0.3190   -9.8630  -24.1710 C   0  0  0  0  0  0  0  0  0  0  0  0
   -1.1790  -10.3160  -25.1750 C   0  0  0  0  0  3  0  0  0  0  0  0
   -0.7140  -11.1990  -26.1470 C   0  0  0  0  0  3  0  0  0  0  0  0
    0.6180  -11.6260  -26.1390 C   0  0  0  0  0  3  0  0  0  0  0  0
    1.5090  -11.1490  -25.1770 C   0  0  0  0  0  0  0  0  0  0  0  0
    1.0230  -10.2770  -24.1900 C   0  0  0  0  0  3  0  0  0  0  0  0
    2.8630  -11.5180  -25.0720 N   0  0  0  0  0  0  0  0  0  0  0  0
    3.9380  -11.4210  -25.9180 C   0  0  0  0  0  0  0  0  0  0  0  0
    4.9730  -12.0390  -25.6650 O   0  0  0  0  0  0  0  0  0  0  0  0
    3.1290  -11.9880  -24.2130 H   0  0  0  0  0  0  0  0  0  0  0  0
    3.9330  -10.5750  -27.1150 C   0  0  0  0  0  0  0  0  0  0  0  0
    4.0190  -11.1830  -28.3730 C   0  0  0  0  0  3  0  0  0  0  0  0
    4.0620  -10.3920  -29.5230 C   0  0  0  0  0  3  0  0  0  0  0  0
    4.0340   -8.9890  -29.4290 C   0  0  0  0  0  0  0  0  0  0  0  0
    3.9880   -8.3940  -28.1560 C   0  0  0  0  0  3  0  0  0  0  0  0
    3.9450   -9.1870  -27.0110 C   0  0  0  0  0  0  0  0  0  0  0  0
    3.9210   -8.5860  -25.8130 F   0  0  0  0  0  0  0  0  0  0  0  0
    4.1080   -8.1380  -30.6760 C   0  0  0  0  0  0  0  0  0  0  0  0
    4.9740   -8.6420  -31.5950 F   0  0  0  0  0  0  0  0  0  0  0  0
    2.9070   -8.0260  -31.3110 F   0  0  0  0  0  0  0  0  0  0  0  0
    4.5170   -6.8630  -30.4300 F   0  0  0  0  0  0  0  0  0  0  0  0
   -0.8230   -8.9320  -23.0950 C   0  0  0  0  0  2  0  0  0  0  0  0
    0.1390   -4.4040  -27.0710 C   0  0  0  0  0  0  0  0  0  0  0  0
   -0.4630   -3.3470  -26.3730 C   0  0  0  0  0  3  0  0  0  0  0  0
   -0.9860   -3.5760  -25.1120 C   0  0  0  0  0  3  0  0  0  0  0  0
   -0.9010   -4.8530  -24.5670 C   0  0  0  0  0  3  0  0  0  0  0  0
   -0.2820   -5.9240  -25.2700 C   0  0  0  0  0  0  0  0  0  0  0  0
   -0.1670   -7.2390  -24.7690 C   0  0  0  0  0  0  0  0  0  0  0  0
   -0.6830   -7.5530  -23.5160 N   0  0  0  0  0  0  0  0  0  0  0  0
    0.3940   -8.2260  -25.4880 N   0  0  0  0  0  0  0  0  0  0  0  0
    0.8750   -7.9000  -26.6880 C   0  0  0  0  0  3  0  0  0  0  0  0
    0.8470   -6.6860  -27.2430 N   0  0  0  0  0  0  0  0  0  0  0  0
    0.2480   -5.7000  -26.5520 C   0  0  0  0  0  0  0  0  0  0  0  0
   -0.4690   -6.8920  -22.7820 H   0  0  0  0  0  0  0  0  0  0  0  0
    0.2650   -5.0090  -29.3940 N   0  0  0  0  0  0  0  0  0  0  0  0
    0.6330   -4.1130  -28.4290 C   0  0  0  0  0  0  0  0  0  0  0  0
    1.3790   -3.1740  -28.6600 O   0  0  0  0  0  0  0  0  0  0  0  0
    0.5940   -4.8400  -30.3350 H   0  0  0  0  0  0  0  0  0  0  0  0
   -0.3640   -5.7800  -29.2240 H   0  0  0  0  0  0  0  0  0  0  0  0
  1 22  1  0  0  0  0
  2  1  2  0  0  0  0
  3  4  2  0  0  0  0
  3  2  1  0  0  0  0
  4  5  1  0  0  0  0
  5  7  1  0  0  0  0
  5  6  2  0  0  0  0
  6  1  1  0  0  0  0
  7 10  1  0  0  0  0
  8  9  2  0  0  0  0
  8  7  1  0  0  0  0
 11 16  1  0  0  0  0
 11  8  1  0  0  0  0
 12 11  2  0  0  0  0
 13 14  2  0  0  0  0
 13 12  1  0  0  0  0
 14 15  1  0  0  0  0
 15 16  2  0  0  0  0
 16 17  1  0  0  0  0
 18 21  1  0  0  0  0
 18 14  1  0  0  0  0
 19 18  1  0  0  0  0
 20 18  1  0  0  0  0
 23 33  2  0  0  0  0
 23 24  1  0  0  0  0
 24 25  2  0  0  0  0
 25 26  1  0  0  0  0
 27 28  1  0  0  0  0
 27 26  2  0  0  0  0
 28 29  1  0  0  0  0
 29 22  1  0  0  0  0
 29 34  1  0  0  0  0
 30 28  2  0  0  0  0
 31 30  1  0  0  0  0
 32 31  2  0  0  0  0
 32 33  1  0  0  0  0
 33 27  1  0  0  0  0
 35 39  1  0  0  0  0
 35 36  1  0  0  0  0
 36 23  1  0  0  0  0
 37 36  2  0  0  0  0
 38 35  1  0  0  0  0
M  END
>  <minimizedAffinity>
-3.68263268

$$$$

 OpenBabel10152418333D

 39 42  0  0  0  0  0  0  0  0999 V2000
   -0.8080   -6.9130  -23.4410 C   0  0  0  0  0  0  0  0  0  0  0  0
   -1.1190   -6.8160  -22.0810 C   0  0  0  0  0  3  0  0  0  0  0  0
   -1.9880   -7.7340  -21.4960 C   0  0  0  0  0  3  0  0  0  0  0  0
   -2.5700   -8.7480  -22.2640 C   0  0  0  0  0  3  0  0  0  0  0  0
   -2.3150   -8.8350  -23.6330 C   0  0  0  0  0  0  0  0  0  0  0  0
   -1.4210   -7.9180  -24.2070 C   0  0  0  0  0  3  0  0  0  0  0  0
   -2.8390   -9.8170  -24.4940 N   0  0  0  0  0  0  0  0  0  0  0  0
   -2.2860  -10.6270  -25.4540 C   0  0  0  0  0  0  0  0  0  0  0  0
   -3.0170  -11.2410  -26.2320 O   0  0  0  0  0  0  0  0  0  0  0  0
   -3.8420   -9.9610  -24.4450 H   0  0  0  0  0  0  0  0  0  0  0  0
   -0.8400  -10.8320  -25.5820 C   0  0  0  0  0  0  0  0  0  0  0  0
   -0.2030  -11.7160  -24.7040 C   0  0  0  0  0  3  0  0  0  0  0  0
    1.1810  -11.8900  -24.7800 C   0  0  0  0  0  3  0  0  0  0  0  0
    1.9420  -11.1730  -25.7220 C   0  0  0  0  0  0  0  0  0  0  0  0
    1.2910  -10.2610  -26.5700 C   0  0  0  0  0  3  0  0  0  0  0  0
   -0.0910  -10.0910  -26.4910 C   0  0  0  0  0  0  0  0  0  0  0  0
   -0.6760   -9.1980  -27.3000 F   0  0  0  0  0  0  0  0  0  0  0  0
    3.4430  -11.3460  -25.7820 C   0  0  0  0  0  0  0  0  0  0  0  0
    3.8410  -12.0240  -26.8920 F   0  0  0  0  0  0  0  0  0  0  0  0
    4.1100  -10.1580  -25.8060 F   0  0  0  0  0  0  0  0  0  0  0  0
    3.9450  -12.0320  -24.7200 F   0  0  0  0  0  0  0  0  0  0  0  0
    0.1570   -5.9420  -24.0750 C   0  0  0  0  0  2  0  0  0  0  0  0
    3.6430   -7.4190  -28.8610 C   0  0  0  0  0  0  0  0  0  0  0  0
    4.7440   -7.9710  -28.1880 C   0  0  0  0  0  3  0  0  0  0  0  0
    4.7150   -8.0730  -26.8080 C   0  0  0  0  0  3  0  0  0  0  0  0
    3.5920   -7.6240  -26.1210 C   0  0  0  0  0  3  0  0  0  0  0  0
    2.4700   -7.0750  -26.8020 C   0  0  0  0  0  0  0  0  0  0  0  0
    1.3050   -6.6040  -26.1600 C   0  0  0  0  0  0  0  0  0  0  0  0
    1.2070   -6.6560  -24.7720 N   0  0  0  0  0  0  0  0  0  0  0  0
    0.2880   -6.0570  -26.8460 N   0  0  0  0  0  0  0  0  0  0  0  0
    0.4100   -6.0120  -28.1730 C   0  0  0  0  0  3  0  0  0  0  0  0
    1.4500   -6.4560  -28.8820 N   0  0  0  0  0  0  0  0  0  0  0  0
    2.4930   -6.9640  -28.2030 C   0  0  0  0  0  0  0  0  0  0  0  0
    1.4970   -7.5280  -24.3520 H   0  0  0  0  0  0  0  0  0  0  0  0
    4.9570   -6.8470  -30.7900 N   0  0  0  0  0  0  0  0  0  0  0  0
    3.7500   -7.2900  -30.3250 C   0  0  0  0  0  0  0  0  0  0  0  0
    2.8020   -7.5000  -31.0660 O   0  0  0  0  0  0  0  0  0  0  0  0
    5.0600   -6.7410  -31.7910 H   0  0  0  0  0  0  0  0  0  0  0  0
    5.7560   -6.6850  -30.1950 H   0  0  0  0  0  0  0  0  0  0  0  0
  1  2  1  0  0  0  0
  2  3  2  0  0  0  0
  4  3  1  0  0  0  0
  5  4  2  0  0  0  0
  6  5  1  0  0  0  0
  6  1  2  0  0  0  0
  7 10  1  0  0  0  0
  7  5  1  0  0  0  0
  8  7  1  0  0  0  0
  9  8  2  0  0  0  0
 11  8  1  0  0  0  0
 11 12  1  0  0  0  0
 13 12  2  0  0  0  0
 14 13  1  0  0  0  0
 15 16  1  0  0  0  0
 15 14  2  0  0  0  0
 16 11  2  0  0  0  0
 17 16  1  0  0  0  0
 18 14  1  0  0  0  0
 18 21  1  0  0  0  0
 19 18  1  0  0  0  0
 20 18  1  0  0  0  0
 22  1  1  0  0  0  0
 23 33  2  0  0  0  0
 23 24  1  0  0  0  0
 24 25  2  0  0  0  0
 25 26  1  0  0  0  0
 27 28  1  0  0  0  0
 27 26  2  0  0  0  0
 28 29  1  0  0  0  0
 29 34  1  0  0  0  0
 29 22  1  0  0  0  0
 30 28  2  0  0  0  0
 31 30  1  0  0  0  0
 32 33  1  0  0  0  0
 32 31  2  0  0  0  0
 33 27  1  0  0  0  0
 35 36  1  0  0  0  0
 35 39  1  0  0  0  0
 36 23  1  0  0  0  0
 37 36  2  0  0  0  0
 38 35  1  0  0  0  0
M  END
>  <minimizedAffinity>
-3.66293025

$$$$
