
 OpenBabel11232418523D

 42 48  0  0  1  0  0  0  0  0999 V2000
    8.4880   -9.4680   13.6470 C   0  0  0  0  0  0  0  0  0  0  0  0
    7.9400   -9.3690   12.3750 N   0  0  0  0  0  0  0  0  0  0  0  0
    7.8780   -8.0870   12.1080 C   0  0  0  0  0  0  0  0  0  0  0  0
    8.2880   -7.3470   13.1790 N   0  0  0  0  0  0  0  0  0  0  0  0
    8.7750   -8.1980   14.1460 C   0  0  0  0  0  0  0  0  0  0  0  0
    8.3700   -5.8990   13.1170 C   0  0  0  0  0  2  0  0  0  0  0  0
    7.4790   -5.3200   12.1380 O   0  0  0  0  0  0  0  0  0  0  0  0
    7.3550   -6.0120   10.9600 C   0  0  0  0  0  0  0  0  0  0  0  0
    7.0110   -5.2900    9.8220 C   0  0  0  0  0  3  0  0  0  0  0  0
    6.8960   -5.9490    8.5930 C   0  0  0  0  0  3  0  0  0  0  0  0
    7.0990   -7.3350    8.5000 C   0  0  0  0  0  0  0  0  0  0  0  0
    7.3840   -8.0600    9.6660 C   0  0  0  0  0  3  0  0  0  0  0  0
    7.5180   -7.3990   10.8890 C   0  0  0  0  0  0  0  0  0  0  0  0
    7.0420   -8.0200    7.2120 C   0  0  0  0  0  0  0  0  0  0  0  0
    7.0220   -7.5400    5.9160 C   0  0  0  0  0  3  0  0  0  0  0  0
    6.9120   -8.6790    5.0980 C   0  0  0  0  0  3  0  0  0  0  0  0
    6.8520   -9.8070    5.8080 N   0  0  0  0  0  0  0  0  0  0  0  0
    6.9330   -9.3830    7.0800 N   0  0  0  0  0  0  0  0  0  0  0  0
    6.8840  -10.0760    7.8180 H   0  0  0  0  0  0  0  0  0  0  0  0
    9.2930  -13.4620   15.1860 C   0  0  0  0  0  0  0  0  0  0  0  0
    8.3720  -13.1990   14.1490 C   0  0  0  0  0  3  0  0  0  0  0  0
    8.1190  -11.9020   13.6770 C   0  0  0  0  0  3  0  0  0  0  0  0
    8.7520  -10.7830   14.2310 C   0  0  0  0  0  0  0  0  0  0  0  0
    9.6080  -11.0100   15.3050 C   0  0  0  0  0  3  0  0  0  0  0  0
    9.8720  -12.3130   15.7630 C   0  0  0  0  0  3  0  0  0  0  0  0
   12.5730  -16.6200   16.5430 C   0  0  0  0  0  1  0  0  0  0  0  0
   11.7370  -15.4340   16.0870 C   0  0  1  0  0  0  0  0  0  0  0  0
   10.7620  -15.7680   14.9290 C   0  0  0  0  0  2  0  0  0  0  0  0
    9.6590  -14.9490   15.6680 C   0  0  1  0  0  0  0  0  0  0  0  0
   10.4990  -15.1140   16.9660 C   0  0  0  0  0  2  0  0  0  0  0  0
    8.4040  -15.7440   15.7190 N   0  0  0  0  0  4  0  0  0  0  0  0
    7.7880  -15.4340   16.4790 H   0  0  0  0  0  0  0  0  0  0  0  0
    7.8750  -15.6360   14.8400 H   0  0  0  0  0  0  0  0  0  0  0  0
    8.5670  -16.7490   15.8540 H   0  0  0  0  0  0  0  0  0  0  0  0
   12.5950  -14.3100   15.8170 O   0  0  0  0  0  0  0  0  0  0  0  0
   13.1670  -14.1940   16.5990 H   0  0  0  0  0  0  0  0  0  0  0  0
    9.4950   -7.7120   15.3130 C   0  0  0  0  0  0  0  0  0  0  0  0
    8.8830   -6.8500   16.2280 C   0  0  0  0  0  3  0  0  0  0  0  0
    9.6040   -6.3720   17.3250 C   0  0  0  0  0  3  0  0  0  0  0  0
   10.9330   -6.7540   17.5100 C   0  0  0  0  0  3  0  0  0  0  0  0
   11.5480   -7.6110   16.6000 C   0  0  0  0  0  3  0  0  0  0  0  0
   10.8320   -8.0870   15.5020 C   0  0  0  0  0  3  0  0  0  0  0  0
  1  5  2  0  0  0  0
  1 23  1  0  0  0  0
  2  1  1  0  0  0  0
  3  2  2  0  0  0  0
  3  4  1  0  0  0  0
  4  5  1  0  0  0  0
  5 37  1  0  0  0  0
  6  4  1  0  0  0  0
  7  6  1  0  0  0  0
  8  7  1  0  0  0  0
  9  8  2  0  0  0  0
 10  9  1  0  0  0  0
 11 10  2  0  0  0  0
 11 12  1  0  0  0  0
 12 13  2  0  0  0  0
 13  8  1  0  0  0  0
 13  3  1  0  0  0  0
 14 11  1  0  0  0  0
 15 14  2  0  0  0  0
 16 17  2  0  0  0  0
 16 15  1  0  0  0  0
 17 18  1  0  0  0  0
 18 14  1  0  0  0  0
 18 19  1  0  0  0  0
 20 29  1  0  0  0  0
 20 25  1  0  0  0  0
 21 20  2  0  0  0  0
 22 21  1  0  0  0  0
 22 23  2  0  0  0  0
 23 24  1  0  0  0  0
 24 25  2  0  0  0  0
 27 26  1  1  0  0  0
 27 30  1  0  0  0  0
 28 29  1  0  0  0  0
 28 27  1  0  0  0  0
 29 31  1  1  0  0  0
 29 30  1  0  0  0  0
 31 34  1  0  0  0  0
 31 32  1  0  0  0  0
 33 31  1  0  0  0  0
 35 27  1  0  0  0  0
 35 36  1  0  0  0  0
 37 42  2  0  0  0  0
 37 38  1  0  0  0  0
 38 39  2  0  0  0  0
 39 40  1  0  0  0  0
 41 40  2  0  0  0  0
 42 41  1  0  0  0  0
M  END
>  <minimizedAffinity>
-11.474946

$$$$
