
 OpenBabel11232420543D

 42 48  0  0  1  0  0  0  0  0999 V2000
  -22.3580   17.7320   14.0750 C   0  0  0  0  0  0  0  0  0  0  0  0
  -22.6610   16.6010   13.3350 N   0  0  0  0  0  0  0  0  0  0  0  0
  -23.0930   15.7120   14.1980 C   0  0  0  0  0  0  0  0  0  0  0  0
  -23.0600   16.2110   15.4680 N   0  0  0  0  0  0  0  0  0  0  0  0
  -22.6310   17.5190   15.4240 C   0  0  0  0  0  0  0  0  0  0  0  0
  -23.6030   15.4640   16.5880 C   0  0  0  0  0  2  0  0  0  0  0  0
  -23.5740   14.0340   16.3890 O   0  0  0  0  0  0  0  0  0  0  0  0
  -23.8320   13.5890   15.1170 C   0  0  0  0  0  0  0  0  0  0  0  0
  -24.2890   12.2840   14.9740 C   0  0  0  0  0  3  0  0  0  0  0  0
  -24.5510   11.7760   13.6970 C   0  0  0  0  0  3  0  0  0  0  0  0
  -24.3420   12.5620   12.5530 C   0  0  0  0  0  0  0  0  0  0  0  0
  -23.8480   13.8650   12.7090 C   0  0  0  0  0  3  0  0  0  0  0  0
  -23.5960   14.3750   13.9860 C   0  0  0  0  0  0  0  0  0  0  0  0
  -24.6240   12.0500   11.2230 C   0  0  0  0  0  0  0  0  0  0  0  0
  -25.8240   12.0400   10.4710 C   0  0  0  0  0  3  0  0  0  0  0  0
  -25.6890   11.4370    9.2870 N   0  0  0  0  0  0  0  0  0  0  0  0
  -24.3990   11.0620    9.2710 N   0  0  0  0  0  0  0  0  0  0  0  0
  -23.7210   11.4000   10.4090 C   0  0  0  0  0  3  0  0  0  0  0  0
  -24.0500   10.5730    8.4530 H   0  0  0  0  0  0  0  0  0  0  0  0
  -20.7930   21.2690   12.0740 C   0  0  0  0  0  0  0  0  0  0  0  0
  -20.0580   20.0750   12.2340 C   0  0  0  0  0  3  0  0  0  0  0  0
  -20.5840   18.9450   12.8800 C   0  0  0  0  0  3  0  0  0  0  0  0
  -21.8770   18.9410   13.4100 C   0  0  0  0  0  0  0  0  0  0  0  0
  -22.6200   20.1110   13.2870 C   0  0  0  0  0  3  0  0  0  0  0  0
  -22.0920   21.2360   12.6300 C   0  0  0  0  0  3  0  0  0  0  0  0
  -17.3530   24.3050   10.6720 C   0  0  0  0  0  1  0  0  0  0  0  0
  -18.1140   23.1310   11.2730 C   0  0  1  0  0  0  0  0  0  0  0  0
  -19.3280   23.5570   12.1360 C   0  0  0  0  0  2  0  0  0  0  0  0
  -20.2380   22.5870   11.3310 C   0  0  1  0  0  0  0  0  0  0  0  0
  -19.0860   22.4210   10.2990 C   0  0  0  0  0  2  0  0  0  0  0  0
  -21.3680   23.3370   10.7240 N   0  0  0  0  0  4  0  0  0  0  0  0
  -21.8580   22.7630   10.0250 H   0  0  0  0  0  0  0  0  0  0  0  0
  -22.0550   23.6080   11.4410 H   0  0  0  0  0  0  0  0  0  0  0  0
  -21.0700   24.1990   10.2530 H   0  0  0  0  0  0  0  0  0  0  0  0
  -17.1960   22.2540   11.9510 O   0  0  0  0  0  0  0  0  0  0  0  0
  -16.4620   22.0760   11.3320 H   0  0  0  0  0  0  0  0  0  0  0  0
  -22.6150   18.3800   16.5980 C   0  0  0  0  0  0  0  0  0  0  0  0
  -21.4720   18.4630   17.4020 C   0  0  0  0  0  3  0  0  0  0  0  0
  -21.4700   19.2790   18.5340 C   0  0  0  0  0  3  0  0  0  0  0  0
  -22.6070   20.0130   18.8690 C   0  0  0  0  0  3  0  0  0  0  0  0
  -23.7490   19.9360   18.0710 C   0  0  0  0  0  3  0  0  0  0  0  0
  -23.7530   19.1210   16.9380 C   0  0  0  0  0  3  0  0  0  0  0  0
  1  5  2  0  0  0  0
  2  1  1  0  0  0  0
  2  3  2  0  0  0  0
  3  4  1  0  0  0  0
  4  6  1  0  0  0  0
  5  4  1  0  0  0  0
  5 37  1  0  0  0  0
  7  6  1  0  0  0  0
  8  7  1  0  0  0  0
  9  8  1  0  0  0  0
 10  9  2  0  0  0  0
 11 12  2  0  0  0  0
 11 10  1  0  0  0  0
 12 13  1  0  0  0  0
 13  3  1  0  0  0  0
 13  8  2  0  0  0  0
 14 11  1  0  0  0  0
 15 14  1  0  0  0  0
 16 15  2  0  0  0  0
 17 16  1  0  0  0  0
 17 18  1  0  0  0  0
 18 14  2  0  0  0  0
 19 17  1  0  0  0  0
 20 21  2  0  0  0  0
 20 25  1  0  0  0  0
 21 22  1  0  0  0  0
 22 23  2  0  0  0  0
 23  1  1  0  0  0  0
 24 23  1  0  0  0  0
 25 24  2  0  0  0  0
 27 26  1  6  0  0  0
 27 35  1  0  0  0  0
 27 28  1  0  0  0  0
 29 31  1  6  0  0  0
 29 20  1  0  0  0  0
 29 28  1  0  0  0  0
 30 27  1  0  0  0  0
 30 29  1  0  0  0  0
 31 33  1  0  0  0  0
 32 31  1  0  0  0  0
 34 31  1  0  0  0  0
 36 35  1  0  0  0  0
 37 42  2  0  0  0  0
 37 38  1  0  0  0  0
 38 39  2  0  0  0  0
 39 40  1  0  0  0  0
 41 40  2  0  0  0  0
 42 41  1  0  0  0  0
M  END
>  <minimizedAffinity>
-11.2046938

$$$$
