
 OpenBabel11232420543D

 42 48  0  0  1  0  0  0  0  0999 V2000
  -20.5800   17.1630   14.6480 C   0  0  0  0  0  0  0  0  0  0  0  0
  -20.0460   17.8120   13.5470 N   0  0  0  0  0  0  0  0  0  0  0  0
  -20.7770   18.8890   13.3760 C   0  0  0  0  0  0  0  0  0  0  0  0
  -21.7760   18.9510   14.3030 N   0  0  0  0  0  0  0  0  0  0  0  0
  -21.6580   17.8800   15.1610 C   0  0  0  0  0  0  0  0  0  0  0  0
  -22.6460   20.1090   14.4010 C   0  0  0  0  0  2  0  0  0  0  0  0
  -22.7940   20.8190   13.1520 O   0  0  0  0  0  0  0  0  0  0  0  0
  -21.6760   20.9030   12.3610 C   0  0  0  0  0  0  0  0  0  0  0  0
  -21.6200   21.9410   11.4380 C   0  0  0  0  0  3  0  0  0  0  0  0
  -20.5100   22.0610   10.5950 C   0  0  0  0  0  3  0  0  0  0  0  0
  -19.4550   21.1360   10.6560 C   0  0  0  0  0  0  0  0  0  0  0  0
  -19.5410   20.0740   11.5680 C   0  0  0  0  0  3  0  0  0  0  0  0
  -20.6460   19.9600   12.4170 C   0  0  0  0  0  0  0  0  0  0  0  0
  -18.2920   21.2590    9.7960 C   0  0  0  0  0  0  0  0  0  0  0  0
  -17.5820   20.2840    9.0550 C   0  0  0  0  0  3  0  0  0  0  0  0
  -16.5300   20.7890    8.4070 N   0  0  0  0  0  0  0  0  0  0  0  0
  -16.5630   22.0940    8.7230 N   0  0  0  0  0  0  0  0  0  0  0  0
  -17.5940   22.4250    9.5570 C   0  0  0  0  0  3  0  0  0  0  0  0
  -15.8460   22.7010    8.3400 H   0  0  0  0  0  0  0  0  0  0  0  0
  -18.9090   13.4350   16.1560 C   0  0  0  0  0  0  0  0  0  0  0  0
  -20.2920   13.7140   16.1310 C   0  0  0  0  0  3  0  0  0  0  0  0
  -20.8090   14.9220   15.6370 C   0  0  0  0  0  3  0  0  0  0  0  0
  -19.9740   15.9280   15.1410 C   0  0  0  0  0  0  0  0  0  0  0  0
  -18.6030   15.6900   15.1710 C   0  0  0  0  0  3  0  0  0  0  0  0
  -18.0920   14.4750   15.6580 C   0  0  0  0  0  3  0  0  0  0  0  0
  -18.9430    9.3750   18.7130 C   0  0  0  0  0  1  0  0  0  0  0  0
  -19.3250   10.6920   18.0510 C   0  0  1  0  0  0  0  0  0  0  0  0
  -18.2670   11.8080   18.2360 C   0  0  0  0  0  2  0  0  0  0  0  0
  -18.2680   12.0610   16.7020 C   0  0  1  0  0  0  0  0  0  0  0  0
  -19.0810   10.7460   16.5240 C   0  0  0  0  0  2  0  0  0  0  0  0
  -16.8950   11.8940   16.1580 N   0  0  0  0  0  4  0  0  0  0  0  0
  -16.9080   11.8490   15.1310 H   0  0  0  0  0  0  0  0  0  0  0  0
  -16.2960   12.6860   16.4290 H   0  0  0  0  0  0  0  0  0  0  0  0
  -16.4330   11.0400   16.4920 H   0  0  0  0  0  0  0  0  0  0  0  0
  -20.6510   11.0740   18.4620 O   0  0  0  0  0  0  0  0  0  0  0  0
  -21.2250   10.2940   18.3320 H   0  0  0  0  0  0  0  0  0  0  0  0
  -22.4900   17.7270   16.3460 C   0  0  0  0  0  0  0  0  0  0  0  0
  -23.7150   17.0540   16.2720 C   0  0  0  0  0  3  0  0  0  0  0  0
  -24.5140   16.9260   17.4090 C   0  0  0  0  0  3  0  0  0  0  0  0
  -24.0940   17.4690   18.6230 C   0  0  0  0  0  3  0  0  0  0  0  0
  -22.8740   18.1400   18.7030 C   0  0  0  0  0  3  0  0  0  0  0  0
  -22.0730   18.2690   17.5680 C   0  0  0  0  0  3  0  0  0  0  0  0
  1 23  1  0  0  0  0
  1  5  2  0  0  0  0
  2  1  1  0  0  0  0
  3  2  2  0  0  0  0
  3  4  1  0  0  0  0
  4  6  1  0  0  0  0
  4  5  1  0  0  0  0
  5 37  1  0  0  0  0
  7  6  1  0  0  0  0
  8 13  1  0  0  0  0
  8  7  1  0  0  0  0
  9  8  2  0  0  0  0
 10 11  2  0  0  0  0
 10  9  1  0  0  0  0
 11 12  1  0  0  0  0
 12 13  2  0  0  0  0
 13  3  1  0  0  0  0
 14 11  1  0  0  0  0
 15 14  1  0  0  0  0
 16 17  1  0  0  0  0
 16 15  2  0  0  0  0
 17 18  1  0  0  0  0
 18 14  2  0  0  0  0
 19 17  1  0  0  0  0
 20 29  1  0  0  0  0
 21 20  1  0  0  0  0
 22 21  2  0  0  0  0
 23 24  2  0  0  0  0
 23 22  1  0  0  0  0
 24 25  1  0  0  0  0
 25 20  2  0  0  0  0
 27 28  1  0  0  0  0
 27 35  1  0  0  0  0
 27 26  1  1  0  0  0
 29 31  1  6  0  0  0
 29 28  1  0  0  0  0
 30 29  1  0  0  0  0
 30 27  1  0  0  0  0
 31 33  1  0  0  0  0
 31 34  1  0  0  0  0
 32 31  1  0  0  0  0
 36 35  1  0  0  0  0
 37 42  1  0  0  0  0
 38 37  2  0  0  0  0
 38 39  1  0  0  0  0
 39 40  2  0  0  0  0
 40 41  1  0  0  0  0
 42 41  2  0  0  0  0
M  END
>  <minimizedAffinity>
-11.628973

$$$$
