
 OpenBabel11232420543D

 42 48  0  0  1  0  0  0  0  0999 V2000
  -19.1970   21.6620   10.7710 C   0  0  0  0  0  0  0  0  0  0  0  0
  -19.8980   21.1040   11.8260 N   0  0  0  0  0  0  0  0  0  0  0  0
  -19.9780   19.8200   11.5660 C   0  0  0  0  0  0  0  0  0  0  0  0
  -19.3800   19.5270   10.3740 N   0  0  0  0  0  0  0  0  0  0  0  0
  -18.8320   20.6790    9.8540 C   0  0  0  0  0  0  0  0  0  0  0  0
  -19.2280   18.1570    9.9210 C   0  0  0  0  0  2  0  0  0  0  0  0
  -20.2390   17.2670   10.4420 O   0  0  0  0  0  0  0  0  0  0  0  0
  -20.6410   17.4900   11.7350 C   0  0  0  0  0  0  0  0  0  0  0  0
  -21.2090   16.4240   12.4230 C   0  0  0  0  0  3  0  0  0  0  0  0
  -21.6520   16.6020   13.7380 C   0  0  0  0  0  3  0  0  0  0  0  0
  -21.5440   17.8520   14.3700 C   0  0  0  0  0  0  0  0  0  0  0  0
  -21.0010   18.9270   13.6520 C   0  0  0  0  0  3  0  0  0  0  0  0
  -20.5500   18.7460   12.3420 C   0  0  0  0  0  0  0  0  0  0  0  0
  -21.9870   18.0450   15.7400 C   0  0  0  0  0  0  0  0  0  0  0  0
  -23.2850   18.2230   16.2760 C   0  0  0  0  0  3  0  0  0  0  0  0
  -23.2800   18.4090   17.5980 N   0  0  0  0  0  0  0  0  0  0  0  0
  -21.9770   18.3440   17.9190 N   0  0  0  0  0  0  0  0  0  0  0  0
  -21.1620   18.1350   16.8410 C   0  0  0  0  0  3  0  0  0  0  0  0
  -21.7140   18.4590   18.8920 H   0  0  0  0  0  0  0  0  0  0  0  0
  -18.3060   25.9230   10.8890 C   0  0  0  0  0  0  0  0  0  0  0  0
  -18.4840   25.1320   12.0450 C   0  0  0  0  0  3  0  0  0  0  0  0
  -18.7680   23.7590   11.9830 C   0  0  0  0  0  3  0  0  0  0  0  0
  -18.8950   23.0910   10.7610 C   0  0  0  0  0  0  0  0  0  0  0  0
  -18.7450   23.8480    9.6030 C   0  0  0  0  0  3  0  0  0  0  0  0
  -18.4510   25.2210    9.6710 C   0  0  0  0  0  3  0  0  0  0  0  0
  -19.3340   30.5460   11.6530 C   0  0  0  0  0  1  0  0  0  0  0  0
  -19.3980   29.0280   11.5630 C   0  0  1  0  0  0  0  0  0  0  0  0
  -18.9470   28.4700   10.1900 C   0  0  0  0  0  2  0  0  0  0  0  0
  -17.9690   27.4990   10.9080 C   0  0  1  0  0  0  0  0  0  0  0  0
  -18.2110   28.2890   12.2270 C   0  0  0  0  0  2  0  0  0  0  0  0
  -16.5820   27.7230   10.4220 N   0  0  0  0  0  4  0  0  0  0  0  0
  -15.8990   27.2470   11.0250 H   0  0  0  0  0  0  0  0  0  0  0  0
  -16.4650   27.3570    9.4680 H   0  0  0  0  0  0  0  0  0  0  0  0
  -16.3220   28.7150   10.3960 H   0  0  0  0  0  0  0  0  0  0  0  0
  -20.6980   28.5720   11.9790 O   0  0  0  0  0  0  0  0  0  0  0  0
  -20.8920   29.0050   12.8330 H   0  0  0  0  0  0  0  0  0  0  0  0
  -18.0050   20.6840    8.6560 C   0  0  0  0  0  0  0  0  0  0  0  0
  -16.6290   20.4430    8.7430 C   0  0  0  0  0  3  0  0  0  0  0  0
  -15.8400   20.4660    7.5910 C   0  0  0  0  0  3  0  0  0  0  0  0
  -16.4200   20.7300    6.3520 C   0  0  0  0  0  3  0  0  0  0  0  0
  -17.7910   20.9690    6.2590 C   0  0  0  0  0  3  0  0  0  0  0  0
  -18.5820   20.9460    7.4080 C   0  0  0  0  0  3  0  0  0  0  0  0
  1  2  1  0  0  0  0
  3  2  2  0  0  0  0
  3 13  1  0  0  0  0
  4  3  1  0  0  0  0
  5  4  1  0  0  0  0
  5  1  2  0  0  0  0
  6  4  1  0  0  0  0
  6  7  1  0  0  0  0
  7  8  1  0  0  0  0
  8 13  2  0  0  0  0
  8  9  1  0  0  0  0
  9 10  2  0  0  0  0
 10 11  1  0  0  0  0
 11 14  1  0  0  0  0
 12 11  2  0  0  0  0
 13 12  1  0  0  0  0
 14 15  1  0  0  0  0
 14 18  2  0  0  0  0
 15 16  2  0  0  0  0
 16 17  1  0  0  0  0
 17 19  1  0  0  0  0
 18 17  1  0  0  0  0
 20 29  1  0  0  0  0
 20 21  1  0  0  0  0
 22 21  2  0  0  0  0
 23  1  1  0  0  0  0
 23 22  1  0  0  0  0
 24 25  1  0  0  0  0
 24 23  2  0  0  0  0
 25 20  2  0  0  0  0
 27 26  1  1  0  0  0
 27 35  1  0  0  0  0
 27 30  1  0  0  0  0
 28 29  1  0  0  0  0
 28 27  1  0  0  0  0
 29 31  1  6  0  0  0
 29 30  1  0  0  0  0
 31 32  1  0  0  0  0
 33 31  1  0  0  0  0
 34 31  1  0  0  0  0
 35 36  1  0  0  0  0
 37 38  1  0  0  0  0
 37  5  1  0  0  0  0
 39 38  2  0  0  0  0
 40 39  1  0  0  0  0
 41 40  2  0  0  0  0
 41 42  1  0  0  0  0
 42 37  2  0  0  0  0
M  END
>  <minimizedAffinity>
-13.1169043

$$$$

 OpenBabel11232420543D

 42 48  0  0  1  0  0  0  0  0999 V2000
  -20.5800   17.1630   14.6480 C   0  0  0  0  0  0  0  0  0  0  0  0
  -20.0460   17.8120   13.5470 N   0  0  0  0  0  0  0  0  0  0  0  0
  -20.7770   18.8890   13.3760 C   0  0  0  0  0  0  0  0  0  0  0  0
  -21.7760   18.9510   14.3030 N   0  0  0  0  0  0  0  0  0  0  0  0
  -21.6580   17.8800   15.1610 C   0  0  0  0  0  0  0  0  0  0  0  0
  -22.6460   20.1090   14.4010 C   0  0  0  0  0  2  0  0  0  0  0  0
  -22.7940   20.8190   13.1520 O   0  0  0  0  0  0  0  0  0  0  0  0
  -21.6760   20.9030   12.3610 C   0  0  0  0  0  0  0  0  0  0  0  0
  -21.6200   21.9410   11.4380 C   0  0  0  0  0  3  0  0  0  0  0  0
  -20.5100   22.0610   10.5950 C   0  0  0  0  0  3  0  0  0  0  0  0
  -19.4550   21.1360   10.6560 C   0  0  0  0  0  0  0  0  0  0  0  0
  -19.5410   20.0740   11.5680 C   0  0  0  0  0  3  0  0  0  0  0  0
  -20.6460   19.9600   12.4170 C   0  0  0  0  0  0  0  0  0  0  0  0
  -18.2920   21.2590    9.7960 C   0  0  0  0  0  0  0  0  0  0  0  0
  -17.5820   20.2840    9.0550 C   0  0  0  0  0  3  0  0  0  0  0  0
  -16.5300   20.7890    8.4070 N   0  0  0  0  0  0  0  0  0  0  0  0
  -16.5630   22.0940    8.7230 N   0  0  0  0  0  0  0  0  0  0  0  0
  -17.5940   22.4250    9.5570 C   0  0  0  0  0  3  0  0  0  0  0  0
  -15.8460   22.7010    8.3400 H   0  0  0  0  0  0  0  0  0  0  0  0
  -18.9090   13.4350   16.1560 C   0  0  0  0  0  0  0  0  0  0  0  0
  -20.2920   13.7140   16.1310 C   0  0  0  0  0  3  0  0  0  0  0  0
  -20.8090   14.9220   15.6370 C   0  0  0  0  0  3  0  0  0  0  0  0
  -19.9740   15.9280   15.1410 C   0  0  0  0  0  0  0  0  0  0  0  0
  -18.6030   15.6900   15.1710 C   0  0  0  0  0  3  0  0  0  0  0  0
  -18.0920   14.4750   15.6580 C   0  0  0  0  0  3  0  0  0  0  0  0
  -18.9430    9.3750   18.7130 C   0  0  0  0  0  1  0  0  0  0  0  0
  -19.3250   10.6920   18.0510 C   0  0  1  0  0  0  0  0  0  0  0  0
  -18.2670   11.8080   18.2360 C   0  0  0  0  0  2  0  0  0  0  0  0
  -18.2680   12.0610   16.7020 C   0  0  1  0  0  0  0  0  0  0  0  0
  -19.0810   10.7460   16.5240 C   0  0  0  0  0  2  0  0  0  0  0  0
  -16.8950   11.8940   16.1580 N   0  0  0  0  0  4  0  0  0  0  0  0
  -16.9080   11.8490   15.1310 H   0  0  0  0  0  0  0  0  0  0  0  0
  -16.2960   12.6860   16.4290 H   0  0  0  0  0  0  0  0  0  0  0  0
  -16.4330   11.0400   16.4920 H   0  0  0  0  0  0  0  0  0  0  0  0
  -20.6510   11.0740   18.4620 O   0  0  0  0  0  0  0  0  0  0  0  0
  -21.2250   10.2940   18.3320 H   0  0  0  0  0  0  0  0  0  0  0  0
  -22.4900   17.7270   16.3460 C   0  0  0  0  0  0  0  0  0  0  0  0
  -23.7150   17.0540   16.2720 C   0  0  0  0  0  3  0  0  0  0  0  0
  -24.5140   16.9260   17.4090 C   0  0  0  0  0  3  0  0  0  0  0  0
  -24.0940   17.4690   18.6230 C   0  0  0  0  0  3  0  0  0  0  0  0
  -22.8740   18.1400   18.7030 C   0  0  0  0  0  3  0  0  0  0  0  0
  -22.0730   18.2690   17.5680 C   0  0  0  0  0  3  0  0  0  0  0  0
  1 23  1  0  0  0  0
  1  5  2  0  0  0  0
  2  1  1  0  0  0  0
  3  2  2  0  0  0  0
  3  4  1  0  0  0  0
  4  6  1  0  0  0  0
  4  5  1  0  0  0  0
  5 37  1  0  0  0  0
  7  6  1  0  0  0  0
  8 13  1  0  0  0  0
  8  7  1  0  0  0  0
  9  8  2  0  0  0  0
 10 11  2  0  0  0  0
 10  9  1  0  0  0  0
 11 12  1  0  0  0  0
 12 13  2  0  0  0  0
 13  3  1  0  0  0  0
 14 11  1  0  0  0  0
 15 14  1  0  0  0  0
 16 17  1  0  0  0  0
 16 15  2  0  0  0  0
 17 18  1  0  0  0  0
 18 14  2  0  0  0  0
 19 17  1  0  0  0  0
 20 29  1  0  0  0  0
 21 20  1  0  0  0  0
 22 21  2  0  0  0  0
 23 24  2  0  0  0  0
 23 22  1  0  0  0  0
 24 25  1  0  0  0  0
 25 20  2  0  0  0  0
 27 28  1  0  0  0  0
 27 35  1  0  0  0  0
 27 26  1  1  0  0  0
 29 31  1  6  0  0  0
 29 28  1  0  0  0  0
 30 29  1  0  0  0  0
 30 27  1  0  0  0  0
 31 33  1  0  0  0  0
 31 34  1  0  0  0  0
 32 31  1  0  0  0  0
 36 35  1  0  0  0  0
 37 42  1  0  0  0  0
 38 37  2  0  0  0  0
 38 39  1  0  0  0  0
 39 40  2  0  0  0  0
 40 41  1  0  0  0  0
 42 41  2  0  0  0  0
M  END
>  <minimizedAffinity>
-11.628973

$$$$

 OpenBabel11232420543D

 42 48  0  0  1  0  0  0  0  0999 V2000
  -22.3580   17.7320   14.0750 C   0  0  0  0  0  0  0  0  0  0  0  0
  -22.6610   16.6010   13.3350 N   0  0  0  0  0  0  0  0  0  0  0  0
  -23.0930   15.7120   14.1980 C   0  0  0  0  0  0  0  0  0  0  0  0
  -23.0600   16.2110   15.4680 N   0  0  0  0  0  0  0  0  0  0  0  0
  -22.6310   17.5190   15.4240 C   0  0  0  0  0  0  0  0  0  0  0  0
  -23.6030   15.4640   16.5880 C   0  0  0  0  0  2  0  0  0  0  0  0
  -23.5740   14.0340   16.3890 O   0  0  0  0  0  0  0  0  0  0  0  0
  -23.8320   13.5890   15.1170 C   0  0  0  0  0  0  0  0  0  0  0  0
  -24.2890   12.2840   14.9740 C   0  0  0  0  0  3  0  0  0  0  0  0
  -24.5510   11.7760   13.6970 C   0  0  0  0  0  3  0  0  0  0  0  0
  -24.3420   12.5620   12.5530 C   0  0  0  0  0  0  0  0  0  0  0  0
  -23.8480   13.8650   12.7090 C   0  0  0  0  0  3  0  0  0  0  0  0
  -23.5960   14.3750   13.9860 C   0  0  0  0  0  0  0  0  0  0  0  0
  -24.6240   12.0500   11.2230 C   0  0  0  0  0  0  0  0  0  0  0  0
  -25.8240   12.0400   10.4710 C   0  0  0  0  0  3  0  0  0  0  0  0
  -25.6890   11.4370    9.2870 N   0  0  0  0  0  0  0  0  0  0  0  0
  -24.3990   11.0620    9.2710 N   0  0  0  0  0  0  0  0  0  0  0  0
  -23.7210   11.4000   10.4090 C   0  0  0  0  0  3  0  0  0  0  0  0
  -24.0500   10.5730    8.4530 H   0  0  0  0  0  0  0  0  0  0  0  0
  -20.7930   21.2690   12.0740 C   0  0  0  0  0  0  0  0  0  0  0  0
  -20.0580   20.0750   12.2340 C   0  0  0  0  0  3  0  0  0  0  0  0
  -20.5840   18.9450   12.8800 C   0  0  0  0  0  3  0  0  0  0  0  0
  -21.8770   18.9410   13.4100 C   0  0  0  0  0  0  0  0  0  0  0  0
  -22.6200   20.1110   13.2870 C   0  0  0  0  0  3  0  0  0  0  0  0
  -22.0920   21.2360   12.6300 C   0  0  0  0  0  3  0  0  0  0  0  0
  -17.3530   24.3050   10.6720 C   0  0  0  0  0  1  0  0  0  0  0  0
  -18.1140   23.1310   11.2730 C   0  0  1  0  0  0  0  0  0  0  0  0
  -19.3280   23.5570   12.1360 C   0  0  0  0  0  2  0  0  0  0  0  0
  -20.2380   22.5870   11.3310 C   0  0  1  0  0  0  0  0  0  0  0  0
  -19.0860   22.4210   10.2990 C   0  0  0  0  0  2  0  0  0  0  0  0
  -21.3680   23.3370   10.7240 N   0  0  0  0  0  4  0  0  0  0  0  0
  -21.8580   22.7630   10.0250 H   0  0  0  0  0  0  0  0  0  0  0  0
  -22.0550   23.6080   11.4410 H   0  0  0  0  0  0  0  0  0  0  0  0
  -21.0700   24.1990   10.2530 H   0  0  0  0  0  0  0  0  0  0  0  0
  -17.1960   22.2540   11.9510 O   0  0  0  0  0  0  0  0  0  0  0  0
  -16.4620   22.0760   11.3320 H   0  0  0  0  0  0  0  0  0  0  0  0
  -22.6150   18.3800   16.5980 C   0  0  0  0  0  0  0  0  0  0  0  0
  -21.4720   18.4630   17.4020 C   0  0  0  0  0  3  0  0  0  0  0  0
  -21.4700   19.2790   18.5340 C   0  0  0  0  0  3  0  0  0  0  0  0
  -22.6070   20.0130   18.8690 C   0  0  0  0  0  3  0  0  0  0  0  0
  -23.7490   19.9360   18.0710 C   0  0  0  0  0  3  0  0  0  0  0  0
  -23.7530   19.1210   16.9380 C   0  0  0  0  0  3  0  0  0  0  0  0
  1  5  2  0  0  0  0
  2  1  1  0  0  0  0
  2  3  2  0  0  0  0
  3  4  1  0  0  0  0
  4  6  1  0  0  0  0
  5  4  1  0  0  0  0
  5 37  1  0  0  0  0
  7  6  1  0  0  0  0
  8  7  1  0  0  0  0
  9  8  1  0  0  0  0
 10  9  2  0  0  0  0
 11 12  2  0  0  0  0
 11 10  1  0  0  0  0
 12 13  1  0  0  0  0
 13  3  1  0  0  0  0
 13  8  2  0  0  0  0
 14 11  1  0  0  0  0
 15 14  1  0  0  0  0
 16 15  2  0  0  0  0
 17 16  1  0  0  0  0
 17 18  1  0  0  0  0
 18 14  2  0  0  0  0
 19 17  1  0  0  0  0
 20 21  2  0  0  0  0
 20 25  1  0  0  0  0
 21 22  1  0  0  0  0
 22 23  2  0  0  0  0
 23  1  1  0  0  0  0
 24 23  1  0  0  0  0
 25 24  2  0  0  0  0
 27 26  1  6  0  0  0
 27 35  1  0  0  0  0
 27 28  1  0  0  0  0
 29 31  1  6  0  0  0
 29 20  1  0  0  0  0
 29 28  1  0  0  0  0
 30 27  1  0  0  0  0
 30 29  1  0  0  0  0
 31 33  1  0  0  0  0
 32 31  1  0  0  0  0
 34 31  1  0  0  0  0
 36 35  1  0  0  0  0
 37 42  2  0  0  0  0
 37 38  1  0  0  0  0
 38 39  2  0  0  0  0
 39 40  1  0  0  0  0
 41 40  2  0  0  0  0
 42 41  1  0  0  0  0
M  END
>  <minimizedAffinity>
-11.2046938

$$$$

 OpenBabel11232420543D

 42 48  0  0  1  0  0  0  0  0999 V2000
  -17.3080   29.8810   11.7690 C   0  0  0  0  0  0  0  0  0  0  0  0
  -16.3660   30.3690   10.8780 N   0  0  0  0  0  0  0  0  0  0  0  0
  -15.9840   31.5290   11.3580 C   0  0  0  0  0  0  0  0  0  0  0  0
  -16.6550   31.8230   12.5100 N   0  0  0  0  0  0  0  0  0  0  0  0
  -17.4850   30.7710   12.8250 C   0  0  0  0  0  0  0  0  0  0  0  0
  -16.3230   32.9950   13.3000 C   0  0  0  0  0  2  0  0  0  0  0  0
  -15.7530   34.0680   12.5190 O   0  0  0  0  0  0  0  0  0  0  0  0
  -14.9070   33.7000   11.5030 C   0  0  0  0  0  0  0  0  0  0  0  0
  -13.9860   34.6440   11.0620 C   0  0  0  0  0  3  0  0  0  0  0  0
  -13.1130   34.3260   10.0170 C   0  0  0  0  0  3  0  0  0  0  0  0
  -13.1640   33.0690    9.3930 C   0  0  0  0  0  0  0  0  0  0  0  0
  -14.1210   32.1400    9.8240 C   0  0  0  0  0  3  0  0  0  0  0  0
  -14.9870   32.4540   10.8750 C   0  0  0  0  0  0  0  0  0  0  0  0
  -12.2520   32.7230    8.3160 C   0  0  0  0  0  0  0  0  0  0  0  0
  -10.8630   32.9530    8.1710 C   0  0  0  0  0  3  0  0  0  0  0  0
  -10.3830   32.5120    7.0060 N   0  0  0  0  0  0  0  0  0  0  0  0
  -11.4620   31.9900    6.3990 N   0  0  0  0  0  0  0  0  0  0  0  0
  -12.6060   32.0980    7.1390 C   0  0  0  0  0  3  0  0  0  0  0  0
  -11.3460   31.5820    5.4770 H   0  0  0  0  0  0  0  0  0  0  0  0
  -19.0010   25.9270   11.0860 C   0  0  0  0  0  0  0  0  0  0  0  0
  -17.6180   26.2030   11.0260 C   0  0  0  0  0  3  0  0  0  0  0  0
  -17.0940   27.4850   11.2540 C   0  0  0  0  0  3  0  0  0  0  0  0
  -17.9210   28.5730   11.5500 C   0  0  0  0  0  0  0  0  0  0  0  0
  -19.2920   28.3370   11.5950 C   0  0  0  0  0  3  0  0  0  0  0  0
  -19.8100   27.0490   11.3770 C   0  0  0  0  0  3  0  0  0  0  0  0
  -19.0250   21.1330   11.2540 C   0  0  0  0  0  1  0  0  0  0  0  0
  -18.6460   22.6010   11.3930 C   0  0  1  0  0  0  0  0  0  0  0  0
  -18.8090   23.4100   10.0820 C   0  0  0  0  0  2  0  0  0  0  0  0
  -19.6500   24.4720   10.8440 C   0  0  1  0  0  0  0  0  0  0  0  0
  -19.7300   23.4910   12.0490 C   0  0  0  0  0  2  0  0  0  0  0  0
  -20.9850   24.6150   10.2080 N   0  0  0  0  0  4  0  0  0  0  0  0
  -21.6250   25.1490   10.8110 H   0  0  0  0  0  0  0  0  0  0  0  0
  -20.9120   25.1140    9.3110 H   0  0  0  0  0  0  0  0  0  0  0  0
  -21.4350   23.7130   10.0140 H   0  0  0  0  0  0  0  0  0  0  0  0
  -17.3390   22.7090   11.9860 O   0  0  0  0  0  0  0  0  0  0  0  0
  -17.3390   22.1420   12.7810 H   0  0  0  0  0  0  0  0  0  0  0  0
  -18.2400   30.7110   14.0690 C   0  0  0  0  0  0  0  0  0  0  0  0
  -19.5790   31.1190   14.1070 C   0  0  0  0  0  3  0  0  0  0  0  0
  -20.2910   31.0730   15.3070 C   0  0  0  0  0  3  0  0  0  0  0  0
  -19.6700   30.6230   16.4710 C   0  0  0  0  0  3  0  0  0  0  0  0
  -18.3370   30.2140   16.4390 C   0  0  0  0  0  3  0  0  0  0  0  0
  -17.6230   30.2570   15.2410 C   0  0  0  0  0  3  0  0  0  0  0  0
  1  5  2  0  0  0  0
  2  3  2  0  0  0  0
  2  1  1  0  0  0  0
  3  4  1  0  0  0  0
  4  5  1  0  0  0  0
  4  6  1  0  0  0  0
  5 37  1  0  0  0  0
  7  6  1  0  0  0  0
  8  7  1  0  0  0  0
  9  8  1  0  0  0  0
 10  9  2  0  0  0  0
 11 12  2  0  0  0  0
 11 10  1  0  0  0  0
 12 13  1  0  0  0  0
 13  3  1  0  0  0  0
 13  8  2  0  0  0  0
 14 11  1  0  0  0  0
 15 14  1  0  0  0  0
 16 15  2  0  0  0  0
 17 16  1  0  0  0  0
 17 18  1  0  0  0  0
 18 14  2  0  0  0  0
 19 17  1  0  0  0  0
 20 25  1  0  0  0  0
 21 20  2  0  0  0  0
 21 22  1  0  0  0  0
 22 23  2  0  0  0  0
 23 24  1  0  0  0  0
 23  1  1  0  0  0  0
 25 24  2  0  0  0  0
 27 26  1  6  0  0  0
 27 35  1  0  0  0  0
 27 30  1  0  0  0  0
 28 29  1  0  0  0  0
 28 27  1  0  0  0  0
 29 31  1  6  0  0  0
 29 20  1  0  0  0  0
 29 30  1  0  0  0  0
 31 32  1  0  0  0  0
 33 31  1  0  0  0  0
 34 31  1  0  0  0  0
 35 36  1  0  0  0  0
 37 38  2  0  0  0  0
 37 42  1  0  0  0  0
 38 39  1  0  0  0  0
 39 40  2  0  0  0  0
 41 40  1  0  0  0  0
 42 41  2  0  0  0  0
M  END
>  <minimizedAffinity>
-10.8269806

$$$$
