
 OpenBabel10152419463D

 35 38  0  0  0  0  0  0  0  0999 V2000
   -1.7660   -7.3700  -22.7780 C   0  0  0  0  0  2  0  0  0  0  0  0
   -1.1680  -11.0760  -23.3700 C   0  0  0  0  0  0  0  0  0  0  0  0
   -1.0680  -11.5730  -22.0730 C   0  0  0  0  0  3  0  0  0  0  0  0
   -1.1220  -10.6900  -20.9900 C   0  0  0  0  0  3  0  0  0  0  0  0
   -1.3310   -9.3230  -21.2030 C   0  0  0  0  0  3  0  0  0  0  0  0
   -1.4410   -8.8220  -22.5040 C   0  0  0  0  0  0  0  0  0  0  0  0
   -1.2780   -9.7000  -23.5840 C   0  0  0  0  0  3  0  0  0  0  0  0
   -0.2420  -12.4490  -25.2760 C   0  0  0  0  0  0  0  0  0  0  0  0
   -0.5770  -12.9580  -26.3500 O   0  0  0  0  0  0  0  0  0  0  0  0
   -1.2280  -11.8810  -24.5080 N   0  0  0  0  0  0  0  0  0  0  0  0
   -2.1460  -12.2000  -24.7960 H   0  0  0  0  0  0  0  0  0  0  0  0
    2.3030  -11.6880  -27.0220 C   0  0  0  0  0  1  0  0  0  0  0  0
    2.3260  -12.2340  -25.6220 C   0  0  0  0  0  0  0  0  0  0  0  0
    3.6030  -12.3670  -25.0380 C   0  0  0  0  0  3  0  0  0  0  0  0
    3.7560  -12.7140  -23.6980 C   0  0  0  0  0  3  0  0  0  0  0  0
    2.6360  -12.9590  -22.9190 C   0  0  0  0  0  3  0  0  0  0  0  0
    1.3670  -12.9020  -23.4960 C   0  0  0  0  0  3  0  0  0  0  0  0
    1.1890  -12.5720  -24.8560 C   0  0  0  0  0  0  0  0  0  0  0  0
   -0.5360   -6.6700  -23.0810 N   0  0  0  0  0  0  0  0  0  0  0  0
    0.2570   -6.9810  -22.5400 H   0  0  0  0  0  0  0  0  0  0  0  0
   -0.2540   -6.2270  -24.3700 C   0  0  0  0  0  0  0  0  0  0  0  0
   -0.9310   -5.1680  -24.8370 N   0  0  0  0  0  0  0  0  0  0  0  0
   -0.6330   -4.7660  -26.0710 C   0  0  0  0  0  3  0  0  0  0  0  0
    0.2710   -5.3230  -26.8770 N   0  0  0  0  0  0  0  0  0  0  0  0
    0.9870   -6.3670  -26.4280 C   0  0  0  0  0  0  0  0  0  0  0  0
    1.9810   -7.0030  -27.2130 C   0  0  0  0  0  0  0  0  0  0  0  0
    2.7050   -8.1010  -26.7050 C   0  0  0  0  0  3  0  0  0  0  0  0
    2.4670   -8.5780  -25.4260 C   0  0  0  0  0  3  0  0  0  0  0  0
    1.5080   -7.9590  -24.6430 C   0  0  0  0  0  3  0  0  0  0  0  0
    0.7530   -6.8640  -25.1290 C   0  0  0  0  0  0  0  0  0  0  0  0
    2.2900   -6.4880  -28.5950 C   0  0  0  0  0  0  0  0  0  0  0  0
    1.9670   -5.1870  -28.8970 N   0  0  0  0  0  0  0  0  0  0  0  0
    2.8030   -7.1540  -29.4820 O   0  0  0  0  0  0  0  0  0  0  0  0
    2.1850   -4.8920  -29.8400 H   0  0  0  0  0  0  0  0  0  0  0  0
    1.5700   -4.5030  -28.2760 H   0  0  0  0  0  0  0  0  0  0  0  0
  1  6  1  0  0  0  0
  2  3  1  0  0  0  0
  3  4  2  0  0  0  0
  5  4  1  0  0  0  0
  6  5  2  0  0  0  0
  7  2  2  0  0  0  0
  7  6  1  0  0  0  0
  8 18  1  0  0  0  0
  8 10  1  0  0  0  0
  9  8  2  0  0  0  0
 10  2  1  0  0  0  0
 11 10  1  0  0  0  0
 12 13  1  0  0  0  0
 13 14  2  0  0  0  0
 13 18  1  0  0  0  0
 14 15  1  0  0  0  0
 15 16  2  0  0  0  0
 17 16  1  0  0  0  0
 18 17  2  0  0  0  0
 19  1  1  0  0  0  0
 19 20  1  0  0  0  0
 21 19  1  0  0  0  0
 22 21  1  0  0  0  0
 23 22  2  0  0  0  0
 24 25  2  0  0  0  0
 24 23  1  0  0  0  0
 25 30  1  0  0  0  0
 26 27  2  0  0  0  0
 26 25  1  0  0  0  0
 27 28  1  0  0  0  0
 28 29  2  0  0  0  0
 30 29  1  0  0  0  0
 30 21  2  0  0  0  0
 31 26  1  0  0  0  0
 32 31  1  0  0  0  0
 32 35  1  0  0  0  0
 33 31  2  0  0  0  0
 34 32  1  0  0  0  0
M  END
>  <minimizedAffinity>
-8.05767345

$$$$
