
 OpenBabel10152419463D

 35 38  0  0  0  0  0  0  0  0999 V2000
    0.6140  -12.5500  -26.6580 C   0  0  0  0  0  2  0  0  0  0  0  0
    3.8220  -10.5470  -27.0250 C   0  0  0  0  0  0  0  0  0  0  0  0
    4.7220  -11.2810  -26.2570 C   0  0  0  0  0  3  0  0  0  0  0  0
    4.2710  -12.4000  -25.5490 C   0  0  0  0  0  3  0  0  0  0  0  0
    2.9390  -12.8140  -25.6560 C   0  0  0  0  0  3  0  0  0  0  0  0
    2.0350  -12.0840  -26.4340 C   0  0  0  0  0  0  0  0  0  0  0  0
    2.4720  -10.9050  -27.0520 C   0  0  0  0  0  3  0  0  0  0  0  0
    3.6520   -8.2280  -28.0090 C   0  0  0  0  0  0  0  0  0  0  0  0
    4.0650   -7.5480  -28.9540 O   0  0  0  0  0  0  0  0  0  0  0  0
    4.1910   -9.4800  -27.8450 N   0  0  0  0  0  0  0  0  0  0  0  0
    5.0590   -9.5750  -28.3590 H   0  0  0  0  0  0  0  0  0  0  0  0
    1.4930   -6.0140  -28.7440 C   0  0  0  0  0  1  0  0  0  0  0  0
    1.7070   -6.6210  -27.3860 C   0  0  0  0  0  0  0  0  0  0  0  0
    0.8240   -6.1830  -26.3750 C   0  0  0  0  0  3  0  0  0  0  0  0
    0.8130   -6.7760  -25.1150 C   0  0  0  0  0  3  0  0  0  0  0  0
    1.7000   -7.8030  -24.8310 C   0  0  0  0  0  3  0  0  0  0  0  0
    2.6280   -8.2010  -25.7930 C   0  0  0  0  0  3  0  0  0  0  0  0
    2.6710   -7.6020  -27.0690 C   0  0  0  0  0  0  0  0  0  0  0  0
   -0.1070  -12.4520  -25.4070 N   0  0  0  0  0  0  0  0  0  0  0  0
    0.2840  -13.0100  -24.6630 H   0  0  0  0  0  0  0  0  0  0  0  0
   -0.7190  -11.2640  -25.0160 C   0  0  0  0  0  0  0  0  0  0  0  0
   -1.0470  -10.3780  -25.9680 N   0  0  0  0  0  0  0  0  0  0  0  0
   -1.6360   -9.2550  -25.5610 C   0  0  0  0  0  3  0  0  0  0  0  0
   -1.9230   -8.9370  -24.2990 N   0  0  0  0  0  0  0  0  0  0  0  0
   -1.6340   -9.8160  -23.3250 C   0  0  0  0  0  0  0  0  0  0  0  0
   -1.9250   -9.5640  -21.9610 C   0  0  0  0  0  0  0  0  0  0  0  0
   -1.5990  -10.5100  -20.9690 C   0  0  0  0  0  3  0  0  0  0  0  0
   -0.9940  -11.7110  -21.3050 C   0  0  0  0  0  3  0  0  0  0  0  0
   -0.7150  -11.9770  -22.6350 C   0  0  0  0  0  3  0  0  0  0  0  0
   -1.0160  -11.0400  -23.6530 C   0  0  0  0  0  0  0  0  0  0  0  0
   -2.6150   -8.2840  -21.5640 C   0  0  0  0  0  0  0  0  0  0  0  0
   -2.0760   -7.0920  -21.9850 N   0  0  0  0  0  0  0  0  0  0  0  0
   -3.6240   -8.2260  -20.8780 O   0  0  0  0  0  0  0  0  0  0  0  0
   -2.5700   -6.2610  -21.6830 H   0  0  0  0  0  0  0  0  0  0  0  0
   -1.2720   -6.9660  -22.5760 H   0  0  0  0  0  0  0  0  0  0  0  0
  1  6  1  0  0  0  0
  1 19  1  0  0  0  0
  2  3  1  0  0  0  0
  3  4  2  0  0  0  0
  5  4  1  0  0  0  0
  6  5  2  0  0  0  0
  7  2  2  0  0  0  0
  7  6  1  0  0  0  0
  8 10  1  0  0  0  0
  8 18  1  0  0  0  0
  9  8  2  0  0  0  0
 10  2  1  0  0  0  0
 11 10  1  0  0  0  0
 12 13  1  0  0  0  0
 13 18  2  0  0  0  0
 13 14  1  0  0  0  0
 14 15  2  0  0  0  0
 15 16  1  0  0  0  0
 17 16  2  0  0  0  0
 18 17  1  0  0  0  0
 19 21  1  0  0  0  0
 19 20  1  0  0  0  0
 21 30  1  0  0  0  0
 22 23  1  0  0  0  0
 22 21  2  0  0  0  0
 23 24  2  0  0  0  0
 24 25  1  0  0  0  0
 25 26  1  0  0  0  0
 26 31  1  0  0  0  0
 26 27  2  0  0  0  0
 28 27  1  0  0  0  0
 29 28  2  0  0  0  0
 30 25  2  0  0  0  0
 30 29  1  0  0  0  0
 31 33  2  0  0  0  0
 32 34  1  0  0  0  0
 32 31  1  0  0  0  0
 35 32  1  0  0  0  0
M  END
>  <minimizedAffinity>
-7.81596565

$$$$
