
 OpenBabel10152419463D

 35 38  0  0  0  0  0  0  0  0999 V2000
   -1.3260   -7.1490  -26.1220 C   0  0  0  0  0  2  0  0  0  0  0  0
    1.6340   -5.7800  -28.0730 C   0  0  0  0  0  0  0  0  0  0  0  0
    1.3880   -4.4090  -28.0640 C   0  0  0  0  0  3  0  0  0  0  0  0
    0.2130   -3.9230  -27.4830 C   0  0  0  0  0  3  0  0  0  0  0  0
   -0.6850   -4.8000  -26.8650 C   0  0  0  0  0  3  0  0  0  0  0  0
   -0.4370   -6.1760  -26.8640 C   0  0  0  0  0  0  0  0  0  0  0  0
    0.6890   -6.6620  -27.5410 C   0  0  0  0  0  3  0  0  0  0  0  0
    3.5740   -7.3950  -28.0530 C   0  0  0  0  0  0  0  0  0  0  0  0
    4.6900   -7.5690  -28.5520 O   0  0  0  0  0  0  0  0  0  0  0  0
    2.8190   -6.3540  -28.5340 N   0  0  0  0  0  0  0  0  0  0  0  0
    3.1660   -6.0330  -29.4300 H   0  0  0  0  0  0  0  0  0  0  0  0
    3.7730  -10.5600  -28.2690 C   0  0  0  0  0  1  0  0  0  0  0  0
    3.1840   -9.7900  -27.1210 C   0  0  0  0  0  0  0  0  0  0  0  0
    2.7280  -10.5660  -26.0340 C   0  0  0  0  0  3  0  0  0  0  0  0
    2.3030   -9.9740  -24.8470 C   0  0  0  0  0  3  0  0  0  0  0  0
    2.3030   -8.5930  -24.7300 C   0  0  0  0  0  3  0  0  0  0  0  0
    2.6830   -7.8070  -25.8170 C   0  0  0  0  0  3  0  0  0  0  0  0
    3.0970   -8.3840  -27.0350 C   0  0  0  0  0  0  0  0  0  0  0  0
   -0.9620   -8.4950  -26.5100 N   0  0  0  0  0  0  0  0  0  0  0  0
   -0.1890   -8.5420  -27.1580 H   0  0  0  0  0  0  0  0  0  0  0  0
   -1.0700   -9.5590  -25.6180 C   0  0  0  0  0  0  0  0  0  0  0  0
   -0.9040  -10.8020  -26.0940 N   0  0  0  0  0  0  0  0  0  0  0  0
   -1.0070  -11.7960  -25.2140 C   0  0  0  0  0  3  0  0  0  0  0  0
   -1.2610  -11.6640  -23.9120 N   0  0  0  0  0  0  0  0  0  0  0  0
   -1.4020  -10.4310  -23.3990 C   0  0  0  0  0  0  0  0  0  0  0  0
   -1.6540  -10.2030  -22.0240 C   0  0  0  0  0  0  0  0  0  0  0  0
   -1.8030   -8.8920  -21.5270 C   0  0  0  0  0  3  0  0  0  0  0  0
   -1.7000   -7.7970  -22.3710 C   0  0  0  0  0  3  0  0  0  0  0  0
   -1.4430   -8.0040  -23.7150 C   0  0  0  0  0  3  0  0  0  0  0  0
   -1.3030   -9.3090  -24.2480 C   0  0  0  0  0  0  0  0  0  0  0  0
   -1.7370  -11.3680  -21.0720 C   0  0  0  0  0  0  0  0  0  0  0  0
   -0.6390  -12.1830  -20.9360 N   0  0  0  0  0  0  0  0  0  0  0  0
   -2.7250  -11.6520  -20.4110 O   0  0  0  0  0  0  0  0  0  0  0  0
   -0.7480  -12.9570  -20.2940 H   0  0  0  0  0  0  0  0  0  0  0  0
    0.2550  -12.0720  -21.3830 H   0  0  0  0  0  0  0  0  0  0  0  0
  2  3  2  0  0  0  0
  2  7  1  0  0  0  0
  3  4  1  0  0  0  0
  4  5  2  0  0  0  0
  5  6  1  0  0  0  0
  6  1  1  0  0  0  0
  7  6  2  0  0  0  0
  8 18  1  0  0  0  0
  9  8  2  0  0  0  0
 10  2  1  0  0  0  0
 10  8  1  0  0  0  0
 11 10  1  0  0  0  0
 12 13  1  0  0  0  0
 13 18  2  0  0  0  0
 13 14  1  0  0  0  0
 14 15  2  0  0  0  0
 15 16  1  0  0  0  0
 17 16  2  0  0  0  0
 18 17  1  0  0  0  0
 19  1  1  0  0  0  0
 19 21  1  0  0  0  0
 20 19  1  0  0  0  0
 21 30  1  0  0  0  0
 22 21  2  0  0  0  0
 22 23  1  0  0  0  0
 23 24  2  0  0  0  0
 24 25  1  0  0  0  0
 25 26  1  0  0  0  0
 26 27  2  0  0  0  0
 26 31  1  0  0  0  0
 28 27  1  0  0  0  0
 29 28  2  0  0  0  0
 30 29  1  0  0  0  0
 30 25  2  0  0  0  0
 31 32  1  0  0  0  0
 31 33  2  0  0  0  0
 32 34  1  0  0  0  0
 35 32  1  0  0  0  0
M  END
>  <minimizedAffinity>
-8.24312496

$$$$

 OpenBabel10152419463D

 35 38  0  0  0  0  0  0  0  0999 V2000
    2.5560   -9.2100  -24.8830 C   0  0  0  0  0  2  0  0  0  0  0  0
    3.1130   -7.1200  -28.0070 C   0  0  0  0  0  0  0  0  0  0  0  0
    3.9260   -7.9470  -28.7780 C   0  0  0  0  0  3  0  0  0  0  0  0
    4.3630   -9.1670  -28.2530 C   0  0  0  0  0  3  0  0  0  0  0  0
    3.9420   -9.5830  -26.9860 C   0  0  0  0  0  3  0  0  0  0  0  0
    3.1170   -8.7600  -26.2130 C   0  0  0  0  0  0  0  0  0  0  0  0
    2.7720   -7.4930  -26.7050 C   0  0  0  0  0  3  0  0  0  0  0  0
    1.2890   -5.4010  -28.3110 C   0  0  0  0  0  0  0  0  0  0  0  0
    0.9900   -4.4240  -29.0030 O   0  0  0  0  0  0  0  0  0  0  0  0
    2.5420   -5.9360  -28.4750 N   0  0  0  0  0  0  0  0  0  0  0  0
    3.1590   -5.2860  -28.9480 H   0  0  0  0  0  0  0  0  0  0  0  0
   -0.3080   -3.5610  -26.2690 C   0  0  0  0  0  1  0  0  0  0  0  0
   -0.4140   -5.0560  -26.3780 C   0  0  0  0  0  0  0  0  0  0  0  0
   -1.3500   -5.6660  -25.5150 C   0  0  0  0  0  3  0  0  0  0  0  0
   -1.6570   -7.0200  -25.6190 C   0  0  0  0  0  3  0  0  0  0  0  0
   -1.0190   -7.7990  -26.5720 C   0  0  0  0  0  3  0  0  0  0  0  0
   -0.0410   -7.2290  -27.3870 C   0  0  0  0  0  3  0  0  0  0  0  0
    0.3020   -5.8650  -27.2860 C   0  0  0  0  0  0  0  0  0  0  0  0
    1.3800  -10.0180  -25.1270 N   0  0  0  0  0  0  0  0  0  0  0  0
    1.2700  -10.3030  -26.0890 H   0  0  0  0  0  0  0  0  0  0  0  0
    0.9060  -10.9140  -24.1710 C   0  0  0  0  0  0  0  0  0  0  0  0
    1.4700  -12.1290  -24.1110 N   0  0  0  0  0  0  0  0  0  0  0  0
    0.9980  -12.9590  -23.1820 C   0  0  0  0  0  3  0  0  0  0  0  0
    0.0210  -12.6890  -22.3170 N   0  0  0  0  0  0  0  0  0  0  0  0
   -0.5430  -11.4700  -22.3330 C   0  0  0  0  0  0  0  0  0  0  0  0
   -1.5730  -11.0960  -21.4340 C   0  0  0  0  0  0  0  0  0  0  0  0
   -2.1430   -9.8080  -21.4890 C   0  0  0  0  0  3  0  0  0  0  0  0
   -1.7050   -8.8760  -22.4170 C   0  0  0  0  0  3  0  0  0  0  0  0
   -0.6910   -9.2240  -23.2930 C   0  0  0  0  0  3  0  0  0  0  0  0
   -0.1080  -10.5140  -23.2740 C   0  0  0  0  0  0  0  0  0  0  0  0
   -2.0490  -12.0720  -20.3890 C   0  0  0  0  0  0  0  0  0  0  0  0
   -1.1260  -12.6090  -19.5240 N   0  0  0  0  0  0  0  0  0  0  0  0
   -3.2100  -12.4340  -20.2590 O   0  0  0  0  0  0  0  0  0  0  0  0
   -1.4940  -13.2670  -18.8490 H   0  0  0  0  0  0  0  0  0  0  0  0
   -0.1450  -12.3950  -19.4790 H   0  0  0  0  0  0  0  0  0  0  0  0
  2  7  1  0  0  0  0
  3  4  1  0  0  0  0
  3  2  2  0  0  0  0
  4  5  2  0  0  0  0
  5  6  1  0  0  0  0
  6  1  1  0  0  0  0
  7  6  2  0  0  0  0
  8 18  1  0  0  0  0
  9  8  2  0  0  0  0
 10  8  1  0  0  0  0
 10  2  1  0  0  0  0
 11 10  1  0  0  0  0
 13 12  1  0  0  0  0
 13 14  1  0  0  0  0
 15 14  2  0  0  0  0
 16 15  1  0  0  0  0
 17 18  1  0  0  0  0
 17 16  2  0  0  0  0
 18 13  2  0  0  0  0
 19  1  1  0  0  0  0
 19 21  1  0  0  0  0
 20 19  1  0  0  0  0
 21 22  2  0  0  0  0
 21 30  1  0  0  0  0
 22 23  1  0  0  0  0
 23 24  2  0  0  0  0
 25 24  1  0  0  0  0
 25 26  1  0  0  0  0
 26 31  1  0  0  0  0
 27 26  2  0  0  0  0
 28 27  1  0  0  0  0
 29 30  1  0  0  0  0
 29 28  2  0  0  0  0
 30 25  2  0  0  0  0
 31 33  2  0  0  0  0
 31 32  1  0  0  0  0
 32 35  1  0  0  0  0
 32 34  1  0  0  0  0
M  END
>  <minimizedAffinity>
-8.09797668

$$$$

 OpenBabel10152419463D

 35 38  0  0  0  0  0  0  0  0999 V2000
   -1.7660   -7.3700  -22.7780 C   0  0  0  0  0  2  0  0  0  0  0  0
   -1.1680  -11.0760  -23.3700 C   0  0  0  0  0  0  0  0  0  0  0  0
   -1.0680  -11.5730  -22.0730 C   0  0  0  0  0  3  0  0  0  0  0  0
   -1.1220  -10.6900  -20.9900 C   0  0  0  0  0  3  0  0  0  0  0  0
   -1.3310   -9.3230  -21.2030 C   0  0  0  0  0  3  0  0  0  0  0  0
   -1.4410   -8.8220  -22.5040 C   0  0  0  0  0  0  0  0  0  0  0  0
   -1.2780   -9.7000  -23.5840 C   0  0  0  0  0  3  0  0  0  0  0  0
   -0.2420  -12.4490  -25.2760 C   0  0  0  0  0  0  0  0  0  0  0  0
   -0.5770  -12.9580  -26.3500 O   0  0  0  0  0  0  0  0  0  0  0  0
   -1.2280  -11.8810  -24.5080 N   0  0  0  0  0  0  0  0  0  0  0  0
   -2.1460  -12.2000  -24.7960 H   0  0  0  0  0  0  0  0  0  0  0  0
    2.3030  -11.6880  -27.0220 C   0  0  0  0  0  1  0  0  0  0  0  0
    2.3260  -12.2340  -25.6220 C   0  0  0  0  0  0  0  0  0  0  0  0
    3.6030  -12.3670  -25.0380 C   0  0  0  0  0  3  0  0  0  0  0  0
    3.7560  -12.7140  -23.6980 C   0  0  0  0  0  3  0  0  0  0  0  0
    2.6360  -12.9590  -22.9190 C   0  0  0  0  0  3  0  0  0  0  0  0
    1.3670  -12.9020  -23.4960 C   0  0  0  0  0  3  0  0  0  0  0  0
    1.1890  -12.5720  -24.8560 C   0  0  0  0  0  0  0  0  0  0  0  0
   -0.5360   -6.6700  -23.0810 N   0  0  0  0  0  0  0  0  0  0  0  0
    0.2570   -6.9810  -22.5400 H   0  0  0  0  0  0  0  0  0  0  0  0
   -0.2540   -6.2270  -24.3700 C   0  0  0  0  0  0  0  0  0  0  0  0
   -0.9310   -5.1680  -24.8370 N   0  0  0  0  0  0  0  0  0  0  0  0
   -0.6330   -4.7660  -26.0710 C   0  0  0  0  0  3  0  0  0  0  0  0
    0.2710   -5.3230  -26.8770 N   0  0  0  0  0  0  0  0  0  0  0  0
    0.9870   -6.3670  -26.4280 C   0  0  0  0  0  0  0  0  0  0  0  0
    1.9810   -7.0030  -27.2130 C   0  0  0  0  0  0  0  0  0  0  0  0
    2.7050   -8.1010  -26.7050 C   0  0  0  0  0  3  0  0  0  0  0  0
    2.4670   -8.5780  -25.4260 C   0  0  0  0  0  3  0  0  0  0  0  0
    1.5080   -7.9590  -24.6430 C   0  0  0  0  0  3  0  0  0  0  0  0
    0.7530   -6.8640  -25.1290 C   0  0  0  0  0  0  0  0  0  0  0  0
    2.2900   -6.4880  -28.5950 C   0  0  0  0  0  0  0  0  0  0  0  0
    1.9670   -5.1870  -28.8970 N   0  0  0  0  0  0  0  0  0  0  0  0
    2.8030   -7.1540  -29.4820 O   0  0  0  0  0  0  0  0  0  0  0  0
    2.1850   -4.8920  -29.8400 H   0  0  0  0  0  0  0  0  0  0  0  0
    1.5700   -4.5030  -28.2760 H   0  0  0  0  0  0  0  0  0  0  0  0
  1  6  1  0  0  0  0
  2  3  1  0  0  0  0
  3  4  2  0  0  0  0
  5  4  1  0  0  0  0
  6  5  2  0  0  0  0
  7  2  2  0  0  0  0
  7  6  1  0  0  0  0
  8 18  1  0  0  0  0
  8 10  1  0  0  0  0
  9  8  2  0  0  0  0
 10  2  1  0  0  0  0
 11 10  1  0  0  0  0
 12 13  1  0  0  0  0
 13 14  2  0  0  0  0
 13 18  1  0  0  0  0
 14 15  1  0  0  0  0
 15 16  2  0  0  0  0
 17 16  1  0  0  0  0
 18 17  2  0  0  0  0
 19  1  1  0  0  0  0
 19 20  1  0  0  0  0
 21 19  1  0  0  0  0
 22 21  1  0  0  0  0
 23 22  2  0  0  0  0
 24 25  2  0  0  0  0
 24 23  1  0  0  0  0
 25 30  1  0  0  0  0
 26 27  2  0  0  0  0
 26 25  1  0  0  0  0
 27 28  1  0  0  0  0
 28 29  2  0  0  0  0
 30 29  1  0  0  0  0
 30 21  2  0  0  0  0
 31 26  1  0  0  0  0
 32 31  1  0  0  0  0
 32 35  1  0  0  0  0
 33 31  2  0  0  0  0
 34 32  1  0  0  0  0
M  END
>  <minimizedAffinity>
-8.05767345

$$$$

 OpenBabel10152419463D

 35 38  0  0  0  0  0  0  0  0999 V2000
    3.1340   -8.4040  -26.2360 C   0  0  0  0  0  2  0  0  0  0  0  0
    2.7390  -11.9730  -24.9940 C   0  0  0  0  0  0  0  0  0  0  0  0
    3.7890  -12.6290  -25.6320 C   0  0  0  0  0  3  0  0  0  0  0  0
    4.5940  -11.9260  -26.5340 C   0  0  0  0  0  3  0  0  0  0  0  0
    4.3840  -10.5610  -26.7530 C   0  0  0  0  0  3  0  0  0  0  0  0
    3.3360   -9.8970  -26.1070 C   0  0  0  0  0  0  0  0  0  0  0  0
    2.4700  -10.6340  -25.2880 C   0  0  0  0  0  3  0  0  0  0  0  0
    0.6960  -12.2370  -23.5340 C   0  0  0  0  0  0  0  0  0  0  0  0
    0.3100  -12.8080  -22.5090 O   0  0  0  0  0  0  0  0  0  0  0  0
    1.9460  -12.5560  -24.0050 N   0  0  0  0  0  0  0  0  0  0  0  0
    2.2790  -13.4240  -23.6020 H   0  0  0  0  0  0  0  0  0  0  0  0
   -0.7970   -9.7460  -22.2440 C   0  0  0  0  0  1  0  0  0  0  0  0
   -0.9250  -10.2100  -23.6670 C   0  0  0  0  0  0  0  0  0  0  0  0
   -1.7520   -9.4210  -24.4960 C   0  0  0  0  0  3  0  0  0  0  0  0
   -1.8350   -9.6500  -25.8670 C   0  0  0  0  0  3  0  0  0  0  0  0
   -1.1110  -10.6860  -26.4360 C   0  0  0  0  0  3  0  0  0  0  0  0
   -0.3420  -11.5190  -25.6240 C   0  0  0  0  0  3  0  0  0  0  0  0
   -0.2590  -11.3200  -24.2310 C   0  0  0  0  0  0  0  0  0  0  0  0
    1.8530   -8.1640  -26.8660 N   0  0  0  0  0  0  0  0  0  0  0  0
    1.1380   -8.8280  -26.6090 H   0  0  0  0  0  0  0  0  0  0  0  0
    1.4110   -6.8710  -27.1380 C   0  0  0  0  0  0  0  0  0  0  0  0
    1.6790   -6.3530  -28.3450 N   0  0  0  0  0  0  0  0  0  0  0  0
    1.2370   -5.1180  -28.5750 C   0  0  0  0  0  3  0  0  0  0  0  0
    0.5590   -4.3580  -27.7150 N   0  0  0  0  0  0  0  0  0  0  0  0
    0.2500   -4.8600  -26.5070 C   0  0  0  0  0  0  0  0  0  0  0  0
   -0.4840   -4.1260  -25.5430 C   0  0  0  0  0  0  0  0  0  0  0  0
   -0.7820   -4.6880  -24.2850 C   0  0  0  0  0  3  0  0  0  0  0  0
   -0.3700   -5.9720  -23.9650 C   0  0  0  0  0  3  0  0  0  0  0  0
    0.3380   -6.7050  -24.9020 C   0  0  0  0  0  3  0  0  0  0  0  0
    0.6660   -6.1640  -26.1690 C   0  0  0  0  0  0  0  0  0  0  0  0
   -0.9780   -2.7400  -25.8700 C   0  0  0  0  0  0  0  0  0  0  0  0
   -0.4520   -2.0980  -26.9650 N   0  0  0  0  0  0  0  0  0  0  0  0
   -1.8150   -2.1330  -25.2180 O   0  0  0  0  0  0  0  0  0  0  0  0
   -0.8080   -1.1660  -27.1350 H   0  0  0  0  0  0  0  0  0  0  0  0
    0.2180   -2.4670  -27.6180 H   0  0  0  0  0  0  0  0  0  0  0  0
  1  6  1  0  0  0  0
  2 10  1  0  0  0  0
  3  2  2  0  0  0  0
  4  3  1  0  0  0  0
  5  4  2  0  0  0  0
  5  6  1  0  0  0  0
  6  7  2  0  0  0  0
  7  2  1  0  0  0  0
  8  9  2  0  0  0  0
 10 11  1  0  0  0  0
 10  8  1  0  0  0  0
 13 12  1  0  0  0  0
 14 13  2  0  0  0  0
 15 14  1  0  0  0  0
 16 15  2  0  0  0  0
 16 17  1  0  0  0  0
 17 18  2  0  0  0  0
 18 13  1  0  0  0  0
 18  8  1  0  0  0  0
 19 20  1  0  0  0  0
 19  1  1  0  0  0  0
 21 19  1  0  0  0  0
 21 30  1  0  0  0  0
 22 21  2  0  0  0  0
 23 22  1  0  0  0  0
 23 24  2  0  0  0  0
 24 25  1  0  0  0  0
 25 30  2  0  0  0  0
 25 26  1  0  0  0  0
 26 27  2  0  0  0  0
 27 28  1  0  0  0  0
 29 28  2  0  0  0  0
 30 29  1  0  0  0  0
 31 26  1  0  0  0  0
 31 33  2  0  0  0  0
 32 31  1  0  0  0  0
 34 32  1  0  0  0  0
 35 32  1  0  0  0  0
M  END
>  <minimizedAffinity>
-7.97105169

$$$$

 OpenBabel10152419463D

 35 38  0  0  0  0  0  0  0  0999 V2000
   -1.6450   -7.1840  -24.8410 C   0  0  0  0  0  2  0  0  0  0  0  0
   -1.4140   -9.4190  -21.7760 C   0  0  0  0  0  0  0  0  0  0  0  0
   -1.7640   -8.5490  -20.7460 C   0  0  0  0  0  3  0  0  0  0  0  0
   -2.0080   -7.2030  -21.0330 C   0  0  0  0  0  3  0  0  0  0  0  0
   -1.9570   -6.7410  -22.3530 C   0  0  0  0  0  3  0  0  0  0  0  0
   -1.6150   -7.6140  -23.3910 C   0  0  0  0  0  0  0  0  0  0  0  0
   -1.2680   -8.9350  -23.0790 C   0  0  0  0  0  3  0  0  0  0  0  0
   -0.9420  -11.7900  -22.5040 C   0  0  0  0  0  0  0  0  0  0  0  0
   -1.0540  -12.9570  -22.1180 O   0  0  0  0  0  0  0  0  0  0  0  0
   -1.2510  -10.7940  -21.6100 N   0  0  0  0  0  0  0  0  0  0  0  0
   -1.2660  -11.1470  -20.6600 H   0  0  0  0  0  0  0  0  0  0  0  0
    1.9960  -12.4820  -23.4980 C   0  0  0  0  0  1  0  0  0  0  0  0
    0.9100  -11.8580  -24.3260 C   0  0  0  0  0  0  0  0  0  0  0  0
    1.2360  -11.6100  -25.6770 C   0  0  0  0  0  3  0  0  0  0  0  0
    0.2760  -11.1790  -26.5890 C   0  0  0  0  0  3  0  0  0  0  0  0
   -1.0260  -10.9630  -26.1650 C   0  0  0  0  0  3  0  0  0  0  0  0
   -1.3520  -11.1350  -24.8200 C   0  0  0  0  0  3  0  0  0  0  0  0
   -0.3920  -11.5510  -23.8750 C   0  0  0  0  0  0  0  0  0  0  0  0
   -0.5870   -6.2210  -25.0590 N   0  0  0  0  0  0  0  0  0  0  0  0
   -0.1330   -5.9100  -24.2130 H   0  0  0  0  0  0  0  0  0  0  0  0
    0.2190   -6.2760  -26.1940 C   0  0  0  0  0  0  0  0  0  0  0  0
   -0.0740   -5.4590  -27.2160 N   0  0  0  0  0  0  0  0  0  0  0  0
    0.7200   -5.5320  -28.2830 C   0  0  0  0  0  3  0  0  0  0  0  0
    1.7690   -6.3420  -28.4220 N   0  0  0  0  0  0  0  0  0  0  0  0
    2.1060   -7.1510  -27.4040 C   0  0  0  0  0  0  0  0  0  0  0  0
    3.2180   -8.0260  -27.4630 C   0  0  0  0  0  0  0  0  0  0  0  0
    3.5330   -8.8640  -26.3740 C   0  0  0  0  0  3  0  0  0  0  0  0
    2.7670   -8.8460  -25.2190 C   0  0  0  0  0  3  0  0  0  0  0  0
    1.6840   -7.9860  -25.1420 C   0  0  0  0  0  3  0  0  0  0  0  0
    1.3330   -7.1430  -26.2240 C   0  0  0  0  0  0  0  0  0  0  0  0
    4.0940   -8.0470  -28.6900 C   0  0  0  0  0  0  0  0  0  0  0  0
    4.5020   -6.8490  -29.2240 N   0  0  0  0  0  0  0  0  0  0  0  0
    4.4630   -9.0650  -29.2580 O   0  0  0  0  0  0  0  0  0  0  0  0
    5.0780   -6.9170  -30.0530 H   0  0  0  0  0  0  0  0  0  0  0  0
    4.3100   -5.9300  -28.8640 H   0  0  0  0  0  0  0  0  0  0  0  0
  1  6  1  0  0  0  0
  2 10  1  0  0  0  0
  2  3  1  0  0  0  0
  4  3  2  0  0  0  0
  5  4  1  0  0  0  0
  6  7  1  0  0  0  0
  6  5  2  0  0  0  0
  7  2  2  0  0  0  0
  8  9  2  0  0  0  0
  8 10  1  0  0  0  0
 10 11  1  0  0  0  0
 13 18  1  0  0  0  0
 13 12  1  0  0  0  0
 14 13  2  0  0  0  0
 15 16  2  0  0  0  0
 15 14  1  0  0  0  0
 16 17  1  0  0  0  0
 17 18  2  0  0  0  0
 18  8  1  0  0  0  0
 19  1  1  0  0  0  0
 19 20  1  0  0  0  0
 21 19  1  0  0  0  0
 22 21  2  0  0  0  0
 23 22  1  0  0  0  0
 24 23  2  0  0  0  0
 24 25  1  0  0  0  0
 25 30  1  0  0  0  0
 26 25  2  0  0  0  0
 26 27  1  0  0  0  0
 27 28  2  0  0  0  0
 28 29  1  0  0  0  0
 30 21  1  0  0  0  0
 30 29  2  0  0  0  0
 31 26  1  0  0  0  0
 32 35  1  0  0  0  0
 32 31  1  0  0  0  0
 33 31  2  0  0  0  0
 34 32  1  0  0  0  0
M  END
>  <minimizedAffinity>
-7.84180355

$$$$

 OpenBabel10152419463D

 35 38  0  0  0  0  0  0  0  0999 V2000
    0.6140  -12.5500  -26.6580 C   0  0  0  0  0  2  0  0  0  0  0  0
    3.8220  -10.5470  -27.0250 C   0  0  0  0  0  0  0  0  0  0  0  0
    4.7220  -11.2810  -26.2570 C   0  0  0  0  0  3  0  0  0  0  0  0
    4.2710  -12.4000  -25.5490 C   0  0  0  0  0  3  0  0  0  0  0  0
    2.9390  -12.8140  -25.6560 C   0  0  0  0  0  3  0  0  0  0  0  0
    2.0350  -12.0840  -26.4340 C   0  0  0  0  0  0  0  0  0  0  0  0
    2.4720  -10.9050  -27.0520 C   0  0  0  0  0  3  0  0  0  0  0  0
    3.6520   -8.2280  -28.0090 C   0  0  0  0  0  0  0  0  0  0  0  0
    4.0650   -7.5480  -28.9540 O   0  0  0  0  0  0  0  0  0  0  0  0
    4.1910   -9.4800  -27.8450 N   0  0  0  0  0  0  0  0  0  0  0  0
    5.0590   -9.5750  -28.3590 H   0  0  0  0  0  0  0  0  0  0  0  0
    1.4930   -6.0140  -28.7440 C   0  0  0  0  0  1  0  0  0  0  0  0
    1.7070   -6.6210  -27.3860 C   0  0  0  0  0  0  0  0  0  0  0  0
    0.8240   -6.1830  -26.3750 C   0  0  0  0  0  3  0  0  0  0  0  0
    0.8130   -6.7760  -25.1150 C   0  0  0  0  0  3  0  0  0  0  0  0
    1.7000   -7.8030  -24.8310 C   0  0  0  0  0  3  0  0  0  0  0  0
    2.6280   -8.2010  -25.7930 C   0  0  0  0  0  3  0  0  0  0  0  0
    2.6710   -7.6020  -27.0690 C   0  0  0  0  0  0  0  0  0  0  0  0
   -0.1070  -12.4520  -25.4070 N   0  0  0  0  0  0  0  0  0  0  0  0
    0.2840  -13.0100  -24.6630 H   0  0  0  0  0  0  0  0  0  0  0  0
   -0.7190  -11.2640  -25.0160 C   0  0  0  0  0  0  0  0  0  0  0  0
   -1.0470  -10.3780  -25.9680 N   0  0  0  0  0  0  0  0  0  0  0  0
   -1.6360   -9.2550  -25.5610 C   0  0  0  0  0  3  0  0  0  0  0  0
   -1.9230   -8.9370  -24.2990 N   0  0  0  0  0  0  0  0  0  0  0  0
   -1.6340   -9.8160  -23.3250 C   0  0  0  0  0  0  0  0  0  0  0  0
   -1.9250   -9.5640  -21.9610 C   0  0  0  0  0  0  0  0  0  0  0  0
   -1.5990  -10.5100  -20.9690 C   0  0  0  0  0  3  0  0  0  0  0  0
   -0.9940  -11.7110  -21.3050 C   0  0  0  0  0  3  0  0  0  0  0  0
   -0.7150  -11.9770  -22.6350 C   0  0  0  0  0  3  0  0  0  0  0  0
   -1.0160  -11.0400  -23.6530 C   0  0  0  0  0  0  0  0  0  0  0  0
   -2.6150   -8.2840  -21.5640 C   0  0  0  0  0  0  0  0  0  0  0  0
   -2.0760   -7.0920  -21.9850 N   0  0  0  0  0  0  0  0  0  0  0  0
   -3.6240   -8.2260  -20.8780 O   0  0  0  0  0  0  0  0  0  0  0  0
   -2.5700   -6.2610  -21.6830 H   0  0  0  0  0  0  0  0  0  0  0  0
   -1.2720   -6.9660  -22.5760 H   0  0  0  0  0  0  0  0  0  0  0  0
  1  6  1  0  0  0  0
  1 19  1  0  0  0  0
  2  3  1  0  0  0  0
  3  4  2  0  0  0  0
  5  4  1  0  0  0  0
  6  5  2  0  0  0  0
  7  2  2  0  0  0  0
  7  6  1  0  0  0  0
  8 10  1  0  0  0  0
  8 18  1  0  0  0  0
  9  8  2  0  0  0  0
 10  2  1  0  0  0  0
 11 10  1  0  0  0  0
 12 13  1  0  0  0  0
 13 18  2  0  0  0  0
 13 14  1  0  0  0  0
 14 15  2  0  0  0  0
 15 16  1  0  0  0  0
 17 16  2  0  0  0  0
 18 17  1  0  0  0  0
 19 21  1  0  0  0  0
 19 20  1  0  0  0  0
 21 30  1  0  0  0  0
 22 23  1  0  0  0  0
 22 21  2  0  0  0  0
 23 24  2  0  0  0  0
 24 25  1  0  0  0  0
 25 26  1  0  0  0  0
 26 31  1  0  0  0  0
 26 27  2  0  0  0  0
 28 27  1  0  0  0  0
 29 28  2  0  0  0  0
 30 25  2  0  0  0  0
 30 29  1  0  0  0  0
 31 33  2  0  0  0  0
 32 34  1  0  0  0  0
 32 31  1  0  0  0  0
 35 32  1  0  0  0  0
M  END
>  <minimizedAffinity>
-7.81596565

$$$$

 OpenBabel10152419463D

 35 38  0  0  0  0  0  0  0  0999 V2000
    0.4310  -10.1560  -25.2080 C   0  0  0  0  0  2  0  0  0  0  0  0
    3.3070  -12.2020  -26.6180 C   0  0  0  0  0  0  0  0  0  0  0  0
    3.7060  -12.9540  -25.5160 C   0  0  0  0  0  3  0  0  0  0  0  0
    3.0870  -12.7470  -24.2790 C   0  0  0  0  0  3  0  0  0  0  0  0
    2.0360  -11.8310  -24.1590 C   0  0  0  0  0  3  0  0  0  0  0  0
    1.6260  -11.0820  -25.2660 C   0  0  0  0  0  0  0  0  0  0  0  0
    2.3230  -11.2200  -26.4740 C   0  0  0  0  0  3  0  0  0  0  0  0
    4.1170  -11.5200  -28.9100 C   0  0  0  0  0  0  0  0  0  0  0  0
    4.3340  -11.9840  -30.0340 O   0  0  0  0  0  0  0  0  0  0  0  0
    3.7870  -12.4040  -27.9120 N   0  0  0  0  0  0  0  0  0  0  0  0
    4.0370  -13.3530  -28.1660 H   0  0  0  0  0  0  0  0  0  0  0  0
    3.6060   -9.2320  -31.0560 C   0  0  0  0  0  1  0  0  0  0  0  0
    4.0930   -9.0290  -29.6490 C   0  0  0  0  0  0  0  0  0  0  0  0
    4.2870   -7.6870  -29.2580 C   0  0  0  0  0  3  0  0  0  0  0  0
    4.5870   -7.3510  -27.9400 C   0  0  0  0  0  3  0  0  0  0  0  0
    4.7220   -8.3520  -26.9900 C   0  0  0  0  0  3  0  0  0  0  0  0
    4.6030   -9.6880  -27.3720 C   0  0  0  0  0  3  0  0  0  0  0  0
    4.3190  -10.0520  -28.7040 C   0  0  0  0  0  0  0  0  0  0  0  0
    0.7620   -8.9310  -25.9040 N   0  0  0  0  0  0  0  0  0  0  0  0
    0.9310   -9.0520  -26.8920 H   0  0  0  0  0  0  0  0  0  0  0  0
    0.2000   -7.7120  -25.5310 C   0  0  0  0  0  0  0  0  0  0  0  0
   -0.4510   -7.6490  -24.3600 N   0  0  0  0  0  0  0  0  0  0  0  0
   -0.9710   -6.4680  -24.0300 C   0  0  0  0  0  3  0  0  0  0  0  0
   -0.9030   -5.3540  -24.7580 N   0  0  0  0  0  0  0  0  0  0  0  0
   -0.2320   -5.3770  -25.9220 C   0  0  0  0  0  0  0  0  0  0  0  0
   -0.0960   -4.2320  -26.7450 C   0  0  0  0  0  0  0  0  0  0  0  0
    0.6100   -4.3010  -27.9630 C   0  0  0  0  0  3  0  0  0  0  0  0
    1.1930   -5.4880  -28.3790 C   0  0  0  0  0  3  0  0  0  0  0  0
    1.0790   -6.6120  -27.5790 C   0  0  0  0  0  3  0  0  0  0  0  0
    0.3630   -6.5790  -26.3570 C   0  0  0  0  0  0  0  0  0  0  0  0
   -0.6870   -2.9170  -26.3060 C   0  0  0  0  0  0  0  0  0  0  0  0
   -0.5190   -1.8210  -27.1170 N   0  0  0  0  0  0  0  0  0  0  0  0
   -1.3030   -2.7490  -25.2640 O   0  0  0  0  0  0  0  0  0  0  0  0
   -0.9250   -0.9590  -26.7730 H   0  0  0  0  0  0  0  0  0  0  0  0
   -0.0660   -1.7960  -28.0140 H   0  0  0  0  0  0  0  0  0  0  0  0
  2  7  2  0  0  0  0
  2  3  1  0  0  0  0
  3  4  2  0  0  0  0
  4  5  1  0  0  0  0
  6  1  1  0  0  0  0
  6  5  2  0  0  0  0
  7  6  1  0  0  0  0
  8 18  1  0  0  0  0
  8 10  1  0  0  0  0
  9  8  2  0  0  0  0
 10  2  1  0  0  0  0
 11 10  1  0  0  0  0
 12 13  1  0  0  0  0
 13 14  2  0  0  0  0
 13 18  1  0  0  0  0
 14 15  1  0  0  0  0
 15 16  2  0  0  0  0
 17 16  1  0  0  0  0
 18 17  2  0  0  0  0
 19 21  1  0  0  0  0
 19  1  1  0  0  0  0
 20 19  1  0  0  0  0
 21 22  1  0  0  0  0
 22 23  2  0  0  0  0
 24 23  1  0  0  0  0
 25 24  2  0  0  0  0
 26 31  1  0  0  0  0
 26 25  1  0  0  0  0
 27 26  2  0  0  0  0
 28 27  1  0  0  0  0
 28 29  2  0  0  0  0
 29 30  1  0  0  0  0
 30 25  1  0  0  0  0
 30 21  2  0  0  0  0
 31 33  2  0  0  0  0
 32 34  1  0  0  0  0
 32 31  1  0  0  0  0
 35 32  1  0  0  0  0
M  END
>  <minimizedAffinity>
-7.72864914

$$$$

 OpenBabel10152419463D

 35 38  0  0  0  0  0  0  0  0999 V2000
   -0.1550  -11.2140  -26.3580 C   0  0  0  0  0  2  0  0  0  0  0  0
    3.5590  -10.4310  -26.5310 C   0  0  0  0  0  0  0  0  0  0  0  0
    4.1380  -11.6490  -26.1840 C   0  0  0  0  0  3  0  0  0  0  0  0
    3.3180  -12.7220  -25.8170 C   0  0  0  0  0  3  0  0  0  0  0  0
    1.9260  -12.5910  -25.8520 C   0  0  0  0  0  3  0  0  0  0  0  0
    1.3420  -11.3720  -26.2100 C   0  0  0  0  0  0  0  0  0  0  0  0
    2.1720  -10.2740  -26.4710 C   0  0  0  0  0  3  0  0  0  0  0  0
    3.9200   -8.0290  -27.2190 C   0  0  0  0  0  0  0  0  0  0  0  0
    4.7110   -7.3110  -27.8380 O   0  0  0  0  0  0  0  0  0  0  0  0
    4.2810   -9.3360  -27.0080 N   0  0  0  0  0  0  0  0  0  0  0  0
    5.2760   -9.4690  -27.1470 H   0  0  0  0  0  0  0  0  0  0  0  0
    1.8090   -6.3040  -28.8540 C   0  0  0  0  0  1  0  0  0  0  0  0
    1.7340   -6.6320  -27.3900 C   0  0  0  0  0  0  0  0  0  0  0  0
    0.5880   -6.1590  -26.7140 C   0  0  0  0  0  3  0  0  0  0  0  0
    0.3200   -6.5230  -25.3970 C   0  0  0  0  0  3  0  0  0  0  0  0
    1.2030   -7.3480  -24.7190 C   0  0  0  0  0  3  0  0  0  0  0  0
    2.3760   -7.7690  -25.3460 C   0  0  0  0  0  3  0  0  0  0  0  0
    2.6790   -7.3980  -26.6720 C   0  0  0  0  0  0  0  0  0  0  0  0
   -0.8070  -12.0380  -25.3630 N   0  0  0  0  0  0  0  0  0  0  0  0
   -0.7080  -13.0300  -25.5220 H   0  0  0  0  0  0  0  0  0  0  0  0
   -0.8800  -11.6420  -24.0300 C   0  0  0  0  0  0  0  0  0  0  0  0
   -0.4150  -12.4830  -23.0950 N   0  0  0  0  0  0  0  0  0  0  0  0
   -0.4930  -12.0710  -21.8300 C   0  0  0  0  0  3  0  0  0  0  0  0
   -0.9920  -10.9070  -21.4180 N   0  0  0  0  0  0  0  0  0  0  0  0
   -1.4390  -10.0300  -22.3330 C   0  0  0  0  0  0  0  0  0  0  0  0
   -1.9660   -8.7630  -21.9790 C   0  0  0  0  0  0  0  0  0  0  0  0
   -2.4310   -7.8750  -22.9710 C   0  0  0  0  0  3  0  0  0  0  0  0
   -2.3770   -8.2180  -24.3120 C   0  0  0  0  0  3  0  0  0  0  0  0
   -1.8530   -9.4470  -24.6740 C   0  0  0  0  0  3  0  0  0  0  0  0
   -1.3920  -10.3680  -23.7010 C   0  0  0  0  0  0  0  0  0  0  0  0
   -2.0070   -8.3440  -20.5320 C   0  0  0  0  0  0  0  0  0  0  0  0
   -3.1330   -7.7090  -20.0660 N   0  0  0  0  0  0  0  0  0  0  0  0
   -1.0970   -8.5190  -19.7350 O   0  0  0  0  0  0  0  0  0  0  0  0
   -3.1070   -7.4370  -19.0910 H   0  0  0  0  0  0  0  0  0  0  0  0
   -3.9750   -7.5160  -20.5810 H   0  0  0  0  0  0  0  0  0  0  0  0
  1  6  1  0  0  0  0
  1 19  1  0  0  0  0
  2  7  2  0  0  0  0
  2  3  1  0  0  0  0
  3  4  2  0  0  0  0
  5  4  1  0  0  0  0
  6  5  2  0  0  0  0
  7  6  1  0  0  0  0
  8 10  1  0  0  0  0
  8 18  1  0  0  0  0
  9  8  2  0  0  0  0
 10  2  1  0  0  0  0
 11 10  1  0  0  0  0
 12 13  1  0  0  0  0
 13 14  2  0  0  0  0
 13 18  1  0  0  0  0
 14 15  1  0  0  0  0
 15 16  2  0  0  0  0
 17 16  1  0  0  0  0
 18 17  2  0  0  0  0
 19 21  1  0  0  0  0
 20 19  1  0  0  0  0
 21 30  2  0  0  0  0
 21 22  1  0  0  0  0
 22 23  2  0  0  0  0
 23 24  1  0  0  0  0
 25 26  1  0  0  0  0
 25 24  2  0  0  0  0
 26 31  1  0  0  0  0
 27 26  2  0  0  0  0
 28 27  1  0  0  0  0
 29 28  2  0  0  0  0
 29 30  1  0  0  0  0
 30 25  1  0  0  0  0
 31 32  1  0  0  0  0
 31 33  2  0  0  0  0
 32 34  1  0  0  0  0
 35 32  1  0  0  0  0
M  END
>  <minimizedAffinity>
-7.5202713

$$$$

 OpenBabel10152419463D

 35 38  0  0  0  0  0  0  0  0999 V2000
   -1.5700   -8.8310  -23.4110 C   0  0  0  0  0  2  0  0  0  0  0  0
    0.6770  -11.3970  -25.0880 C   0  0  0  0  0  0  0  0  0  0  0  0
    0.0780  -11.5480  -26.3360 C   0  0  0  0  0  3  0  0  0  0  0  0
   -1.1110  -10.8670  -26.6170 C   0  0  0  0  0  3  0  0  0  0  0  0
   -1.6660   -9.9960  -25.6730 C   0  0  0  0  0  3  0  0  0  0  0  0
   -1.0620   -9.8350  -24.4220 C   0  0  0  0  0  0  0  0  0  0  0  0
    0.0690  -10.6030  -24.1120 C   0  0  0  0  0  3  0  0  0  0  0  0
    3.1410  -11.8800  -25.3550 C   0  0  0  0  0  0  0  0  0  0  0  0
    4.0270  -12.6320  -24.9380 O   0  0  0  0  0  0  0  0  0  0  0  0
    1.9120  -11.9500  -24.7470 N   0  0  0  0  0  0  0  0  0  0  0  0
    1.9730  -12.4160  -23.8490 H   0  0  0  0  0  0  0  0  0  0  0  0
    3.6150  -12.5220  -28.4320 C   0  0  0  0  0  1  0  0  0  0  0  0
    3.7090  -11.1670  -27.7890 C   0  0  0  0  0  0  0  0  0  0  0  0
    3.9890  -10.0940  -28.6630 C   0  0  0  0  0  3  0  0  0  0  0  0
    3.9520   -8.7730  -28.2250 C   0  0  0  0  0  3  0  0  0  0  0  0
    3.6570   -8.4970  -26.8980 C   0  0  0  0  0  3  0  0  0  0  0  0
    3.4470   -9.5460  -26.0040 C   0  0  0  0  0  3  0  0  0  0  0  0
    3.4990  -10.8920  -26.4200 C   0  0  0  0  0  0  0  0  0  0  0  0
   -0.5280   -7.8570  -23.1650 N   0  0  0  0  0  0  0  0  0  0  0  0
    0.4010   -8.2490  -23.1280 H   0  0  0  0  0  0  0  0  0  0  0  0
   -0.6190   -6.5600  -23.6640 C   0  0  0  0  0  0  0  0  0  0  0  0
   -1.0800   -5.6000  -22.8480 N   0  0  0  0  0  0  0  0  0  0  0  0
   -1.1480   -4.3700  -23.3540 C   0  0  0  0  0  3  0  0  0  0  0  0
   -0.8030   -4.0140  -24.5910 N   0  0  0  0  0  0  0  0  0  0  0  0
   -0.3100   -4.9460  -25.4230 C   0  0  0  0  0  0  0  0  0  0  0  0
    0.0990   -4.6470  -26.7460 C   0  0  0  0  0  0  0  0  0  0  0  0
    0.6050   -5.6570  -27.5890 C   0  0  0  0  0  3  0  0  0  0  0  0
    0.7210   -6.9640  -27.1410 C   0  0  0  0  0  3  0  0  0  0  0  0
    0.3370   -7.2690  -25.8460 C   0  0  0  0  0  3  0  0  0  0  0  0
   -0.1890   -6.2800  -24.9800 C   0  0  0  0  0  0  0  0  0  0  0  0
    0.0200   -3.2310  -27.2550 C   0  0  0  0  0  0  0  0  0  0  0  0
   -1.0060   -2.4320  -26.8120 N   0  0  0  0  0  0  0  0  0  0  0  0
    0.8050   -2.7370  -28.0510 O   0  0  0  0  0  0  0  0  0  0  0  0
   -1.0220   -1.4930  -27.1910 H   0  0  0  0  0  0  0  0  0  0  0  0
   -1.7140   -2.6740  -26.1390 H   0  0  0  0  0  0  0  0  0  0  0  0
  1 19  1  0  0  0  0
  2 10  1  0  0  0  0
  2  7  1  0  0  0  0
  3  2  2  0  0  0  0
  4  3  1  0  0  0  0
  4  5  2  0  0  0  0
  5  6  1  0  0  0  0
  6  7  2  0  0  0  0
  6  1  1  0  0  0  0
  8  9  2  0  0  0  0
  8 10  1  0  0  0  0
 10 11  1  0  0  0  0
 12 13  1  0  0  0  0
 13 18  1  0  0  0  0
 14 15  1  0  0  0  0
 14 13  2  0  0  0  0
 15 16  2  0  0  0  0
 16 17  1  0  0  0  0
 18 17  2  0  0  0  0
 18  8  1  0  0  0  0
 19 20  1  0  0  0  0
 21 19  1  0  0  0  0
 21 22  1  0  0  0  0
 23 22  2  0  0  0  0
 24 23  1  0  0  0  0
 25 30  1  0  0  0  0
 25 24  2  0  0  0  0
 26 25  1  0  0  0  0
 27 28  1  0  0  0  0
 27 26  2  0  0  0  0
 28 29  2  0  0  0  0
 29 30  1  0  0  0  0
 30 21  2  0  0  0  0
 31 32  1  0  0  0  0
 31 26  1  0  0  0  0
 32 35  1  0  0  0  0
 33 31  2  0  0  0  0
 34 32  1  0  0  0  0
M  END
>  <minimizedAffinity>
-7.39684105

$$$$
