
 OpenBabel10152419463D

 35 38  0  0  0  0  0  0  0  0999 V2000
    0.4310  -10.1560  -25.2080 C   0  0  0  0  0  2  0  0  0  0  0  0
    3.3070  -12.2020  -26.6180 C   0  0  0  0  0  0  0  0  0  0  0  0
    3.7060  -12.9540  -25.5160 C   0  0  0  0  0  3  0  0  0  0  0  0
    3.0870  -12.7470  -24.2790 C   0  0  0  0  0  3  0  0  0  0  0  0
    2.0360  -11.8310  -24.1590 C   0  0  0  0  0  3  0  0  0  0  0  0
    1.6260  -11.0820  -25.2660 C   0  0  0  0  0  0  0  0  0  0  0  0
    2.3230  -11.2200  -26.4740 C   0  0  0  0  0  3  0  0  0  0  0  0
    4.1170  -11.5200  -28.9100 C   0  0  0  0  0  0  0  0  0  0  0  0
    4.3340  -11.9840  -30.0340 O   0  0  0  0  0  0  0  0  0  0  0  0
    3.7870  -12.4040  -27.9120 N   0  0  0  0  0  0  0  0  0  0  0  0
    4.0370  -13.3530  -28.1660 H   0  0  0  0  0  0  0  0  0  0  0  0
    3.6060   -9.2320  -31.0560 C   0  0  0  0  0  1  0  0  0  0  0  0
    4.0930   -9.0290  -29.6490 C   0  0  0  0  0  0  0  0  0  0  0  0
    4.2870   -7.6870  -29.2580 C   0  0  0  0  0  3  0  0  0  0  0  0
    4.5870   -7.3510  -27.9400 C   0  0  0  0  0  3  0  0  0  0  0  0
    4.7220   -8.3520  -26.9900 C   0  0  0  0  0  3  0  0  0  0  0  0
    4.6030   -9.6880  -27.3720 C   0  0  0  0  0  3  0  0  0  0  0  0
    4.3190  -10.0520  -28.7040 C   0  0  0  0  0  0  0  0  0  0  0  0
    0.7620   -8.9310  -25.9040 N   0  0  0  0  0  0  0  0  0  0  0  0
    0.9310   -9.0520  -26.8920 H   0  0  0  0  0  0  0  0  0  0  0  0
    0.2000   -7.7120  -25.5310 C   0  0  0  0  0  0  0  0  0  0  0  0
   -0.4510   -7.6490  -24.3600 N   0  0  0  0  0  0  0  0  0  0  0  0
   -0.9710   -6.4680  -24.0300 C   0  0  0  0  0  3  0  0  0  0  0  0
   -0.9030   -5.3540  -24.7580 N   0  0  0  0  0  0  0  0  0  0  0  0
   -0.2320   -5.3770  -25.9220 C   0  0  0  0  0  0  0  0  0  0  0  0
   -0.0960   -4.2320  -26.7450 C   0  0  0  0  0  0  0  0  0  0  0  0
    0.6100   -4.3010  -27.9630 C   0  0  0  0  0  3  0  0  0  0  0  0
    1.1930   -5.4880  -28.3790 C   0  0  0  0  0  3  0  0  0  0  0  0
    1.0790   -6.6120  -27.5790 C   0  0  0  0  0  3  0  0  0  0  0  0
    0.3630   -6.5790  -26.3570 C   0  0  0  0  0  0  0  0  0  0  0  0
   -0.6870   -2.9170  -26.3060 C   0  0  0  0  0  0  0  0  0  0  0  0
   -0.5190   -1.8210  -27.1170 N   0  0  0  0  0  0  0  0  0  0  0  0
   -1.3030   -2.7490  -25.2640 O   0  0  0  0  0  0  0  0  0  0  0  0
   -0.9250   -0.9590  -26.7730 H   0  0  0  0  0  0  0  0  0  0  0  0
   -0.0660   -1.7960  -28.0140 H   0  0  0  0  0  0  0  0  0  0  0  0
  2  7  2  0  0  0  0
  2  3  1  0  0  0  0
  3  4  2  0  0  0  0
  4  5  1  0  0  0  0
  6  1  1  0  0  0  0
  6  5  2  0  0  0  0
  7  6  1  0  0  0  0
  8 18  1  0  0  0  0
  8 10  1  0  0  0  0
  9  8  2  0  0  0  0
 10  2  1  0  0  0  0
 11 10  1  0  0  0  0
 12 13  1  0  0  0  0
 13 14  2  0  0  0  0
 13 18  1  0  0  0  0
 14 15  1  0  0  0  0
 15 16  2  0  0  0  0
 17 16  1  0  0  0  0
 18 17  2  0  0  0  0
 19 21  1  0  0  0  0
 19  1  1  0  0  0  0
 20 19  1  0  0  0  0
 21 22  1  0  0  0  0
 22 23  2  0  0  0  0
 24 23  1  0  0  0  0
 25 24  2  0  0  0  0
 26 31  1  0  0  0  0
 26 25  1  0  0  0  0
 27 26  2  0  0  0  0
 28 27  1  0  0  0  0
 28 29  2  0  0  0  0
 29 30  1  0  0  0  0
 30 25  1  0  0  0  0
 30 21  2  0  0  0  0
 31 33  2  0  0  0  0
 32 34  1  0  0  0  0
 32 31  1  0  0  0  0
 35 32  1  0  0  0  0
M  END
>  <minimizedAffinity>
-7.72864914

$$$$
