
 OpenBabel10152419463D

 35 38  0  0  0  0  0  0  0  0999 V2000
   -0.1550  -11.2140  -26.3580 C   0  0  0  0  0  2  0  0  0  0  0  0
    3.5590  -10.4310  -26.5310 C   0  0  0  0  0  0  0  0  0  0  0  0
    4.1380  -11.6490  -26.1840 C   0  0  0  0  0  3  0  0  0  0  0  0
    3.3180  -12.7220  -25.8170 C   0  0  0  0  0  3  0  0  0  0  0  0
    1.9260  -12.5910  -25.8520 C   0  0  0  0  0  3  0  0  0  0  0  0
    1.3420  -11.3720  -26.2100 C   0  0  0  0  0  0  0  0  0  0  0  0
    2.1720  -10.2740  -26.4710 C   0  0  0  0  0  3  0  0  0  0  0  0
    3.9200   -8.0290  -27.2190 C   0  0  0  0  0  0  0  0  0  0  0  0
    4.7110   -7.3110  -27.8380 O   0  0  0  0  0  0  0  0  0  0  0  0
    4.2810   -9.3360  -27.0080 N   0  0  0  0  0  0  0  0  0  0  0  0
    5.2760   -9.4690  -27.1470 H   0  0  0  0  0  0  0  0  0  0  0  0
    1.8090   -6.3040  -28.8540 C   0  0  0  0  0  1  0  0  0  0  0  0
    1.7340   -6.6320  -27.3900 C   0  0  0  0  0  0  0  0  0  0  0  0
    0.5880   -6.1590  -26.7140 C   0  0  0  0  0  3  0  0  0  0  0  0
    0.3200   -6.5230  -25.3970 C   0  0  0  0  0  3  0  0  0  0  0  0
    1.2030   -7.3480  -24.7190 C   0  0  0  0  0  3  0  0  0  0  0  0
    2.3760   -7.7690  -25.3460 C   0  0  0  0  0  3  0  0  0  0  0  0
    2.6790   -7.3980  -26.6720 C   0  0  0  0  0  0  0  0  0  0  0  0
   -0.8070  -12.0380  -25.3630 N   0  0  0  0  0  0  0  0  0  0  0  0
   -0.7080  -13.0300  -25.5220 H   0  0  0  0  0  0  0  0  0  0  0  0
   -0.8800  -11.6420  -24.0300 C   0  0  0  0  0  0  0  0  0  0  0  0
   -0.4150  -12.4830  -23.0950 N   0  0  0  0  0  0  0  0  0  0  0  0
   -0.4930  -12.0710  -21.8300 C   0  0  0  0  0  3  0  0  0  0  0  0
   -0.9920  -10.9070  -21.4180 N   0  0  0  0  0  0  0  0  0  0  0  0
   -1.4390  -10.0300  -22.3330 C   0  0  0  0  0  0  0  0  0  0  0  0
   -1.9660   -8.7630  -21.9790 C   0  0  0  0  0  0  0  0  0  0  0  0
   -2.4310   -7.8750  -22.9710 C   0  0  0  0  0  3  0  0  0  0  0  0
   -2.3770   -8.2180  -24.3120 C   0  0  0  0  0  3  0  0  0  0  0  0
   -1.8530   -9.4470  -24.6740 C   0  0  0  0  0  3  0  0  0  0  0  0
   -1.3920  -10.3680  -23.7010 C   0  0  0  0  0  0  0  0  0  0  0  0
   -2.0070   -8.3440  -20.5320 C   0  0  0  0  0  0  0  0  0  0  0  0
   -3.1330   -7.7090  -20.0660 N   0  0  0  0  0  0  0  0  0  0  0  0
   -1.0970   -8.5190  -19.7350 O   0  0  0  0  0  0  0  0  0  0  0  0
   -3.1070   -7.4370  -19.0910 H   0  0  0  0  0  0  0  0  0  0  0  0
   -3.9750   -7.5160  -20.5810 H   0  0  0  0  0  0  0  0  0  0  0  0
  1  6  1  0  0  0  0
  1 19  1  0  0  0  0
  2  7  2  0  0  0  0
  2  3  1  0  0  0  0
  3  4  2  0  0  0  0
  5  4  1  0  0  0  0
  6  5  2  0  0  0  0
  7  6  1  0  0  0  0
  8 10  1  0  0  0  0
  8 18  1  0  0  0  0
  9  8  2  0  0  0  0
 10  2  1  0  0  0  0
 11 10  1  0  0  0  0
 12 13  1  0  0  0  0
 13 14  2  0  0  0  0
 13 18  1  0  0  0  0
 14 15  1  0  0  0  0
 15 16  2  0  0  0  0
 17 16  1  0  0  0  0
 18 17  2  0  0  0  0
 19 21  1  0  0  0  0
 20 19  1  0  0  0  0
 21 30  2  0  0  0  0
 21 22  1  0  0  0  0
 22 23  2  0  0  0  0
 23 24  1  0  0  0  0
 25 26  1  0  0  0  0
 25 24  2  0  0  0  0
 26 31  1  0  0  0  0
 27 26  2  0  0  0  0
 28 27  1  0  0  0  0
 29 28  2  0  0  0  0
 29 30  1  0  0  0  0
 30 25  1  0  0  0  0
 31 32  1  0  0  0  0
 31 33  2  0  0  0  0
 32 34  1  0  0  0  0
 35 32  1  0  0  0  0
M  END
>  <minimizedAffinity>
-7.5202713

$$$$
