
 OpenBabel10152419463D

 35 38  0  0  0  0  0  0  0  0999 V2000
    3.1340   -8.4040  -26.2360 C   0  0  0  0  0  2  0  0  0  0  0  0
    2.7390  -11.9730  -24.9940 C   0  0  0  0  0  0  0  0  0  0  0  0
    3.7890  -12.6290  -25.6320 C   0  0  0  0  0  3  0  0  0  0  0  0
    4.5940  -11.9260  -26.5340 C   0  0  0  0  0  3  0  0  0  0  0  0
    4.3840  -10.5610  -26.7530 C   0  0  0  0  0  3  0  0  0  0  0  0
    3.3360   -9.8970  -26.1070 C   0  0  0  0  0  0  0  0  0  0  0  0
    2.4700  -10.6340  -25.2880 C   0  0  0  0  0  3  0  0  0  0  0  0
    0.6960  -12.2370  -23.5340 C   0  0  0  0  0  0  0  0  0  0  0  0
    0.3100  -12.8080  -22.5090 O   0  0  0  0  0  0  0  0  0  0  0  0
    1.9460  -12.5560  -24.0050 N   0  0  0  0  0  0  0  0  0  0  0  0
    2.2790  -13.4240  -23.6020 H   0  0  0  0  0  0  0  0  0  0  0  0
   -0.7970   -9.7460  -22.2440 C   0  0  0  0  0  1  0  0  0  0  0  0
   -0.9250  -10.2100  -23.6670 C   0  0  0  0  0  0  0  0  0  0  0  0
   -1.7520   -9.4210  -24.4960 C   0  0  0  0  0  3  0  0  0  0  0  0
   -1.8350   -9.6500  -25.8670 C   0  0  0  0  0  3  0  0  0  0  0  0
   -1.1110  -10.6860  -26.4360 C   0  0  0  0  0  3  0  0  0  0  0  0
   -0.3420  -11.5190  -25.6240 C   0  0  0  0  0  3  0  0  0  0  0  0
   -0.2590  -11.3200  -24.2310 C   0  0  0  0  0  0  0  0  0  0  0  0
    1.8530   -8.1640  -26.8660 N   0  0  0  0  0  0  0  0  0  0  0  0
    1.1380   -8.8280  -26.6090 H   0  0  0  0  0  0  0  0  0  0  0  0
    1.4110   -6.8710  -27.1380 C   0  0  0  0  0  0  0  0  0  0  0  0
    1.6790   -6.3530  -28.3450 N   0  0  0  0  0  0  0  0  0  0  0  0
    1.2370   -5.1180  -28.5750 C   0  0  0  0  0  3  0  0  0  0  0  0
    0.5590   -4.3580  -27.7150 N   0  0  0  0  0  0  0  0  0  0  0  0
    0.2500   -4.8600  -26.5070 C   0  0  0  0  0  0  0  0  0  0  0  0
   -0.4840   -4.1260  -25.5430 C   0  0  0  0  0  0  0  0  0  0  0  0
   -0.7820   -4.6880  -24.2850 C   0  0  0  0  0  3  0  0  0  0  0  0
   -0.3700   -5.9720  -23.9650 C   0  0  0  0  0  3  0  0  0  0  0  0
    0.3380   -6.7050  -24.9020 C   0  0  0  0  0  3  0  0  0  0  0  0
    0.6660   -6.1640  -26.1690 C   0  0  0  0  0  0  0  0  0  0  0  0
   -0.9780   -2.7400  -25.8700 C   0  0  0  0  0  0  0  0  0  0  0  0
   -0.4520   -2.0980  -26.9650 N   0  0  0  0  0  0  0  0  0  0  0  0
   -1.8150   -2.1330  -25.2180 O   0  0  0  0  0  0  0  0  0  0  0  0
   -0.8080   -1.1660  -27.1350 H   0  0  0  0  0  0  0  0  0  0  0  0
    0.2180   -2.4670  -27.6180 H   0  0  0  0  0  0  0  0  0  0  0  0
  1  6  1  0  0  0  0
  2 10  1  0  0  0  0
  3  2  2  0  0  0  0
  4  3  1  0  0  0  0
  5  4  2  0  0  0  0
  5  6  1  0  0  0  0
  6  7  2  0  0  0  0
  7  2  1  0  0  0  0
  8  9  2  0  0  0  0
 10 11  1  0  0  0  0
 10  8  1  0  0  0  0
 13 12  1  0  0  0  0
 14 13  2  0  0  0  0
 15 14  1  0  0  0  0
 16 15  2  0  0  0  0
 16 17  1  0  0  0  0
 17 18  2  0  0  0  0
 18 13  1  0  0  0  0
 18  8  1  0  0  0  0
 19 20  1  0  0  0  0
 19  1  1  0  0  0  0
 21 19  1  0  0  0  0
 21 30  1  0  0  0  0
 22 21  2  0  0  0  0
 23 22  1  0  0  0  0
 23 24  2  0  0  0  0
 24 25  1  0  0  0  0
 25 30  2  0  0  0  0
 25 26  1  0  0  0  0
 26 27  2  0  0  0  0
 27 28  1  0  0  0  0
 29 28  2  0  0  0  0
 30 29  1  0  0  0  0
 31 26  1  0  0  0  0
 31 33  2  0  0  0  0
 32 31  1  0  0  0  0
 34 32  1  0  0  0  0
 35 32  1  0  0  0  0
M  END
>  <minimizedAffinity>
-7.97105169

$$$$
