
 OpenBabel10152419463D

 35 38  0  0  0  0  0  0  0  0999 V2000
   -1.6450   -7.1840  -24.8410 C   0  0  0  0  0  2  0  0  0  0  0  0
   -1.4140   -9.4190  -21.7760 C   0  0  0  0  0  0  0  0  0  0  0  0
   -1.7640   -8.5490  -20.7460 C   0  0  0  0  0  3  0  0  0  0  0  0
   -2.0080   -7.2030  -21.0330 C   0  0  0  0  0  3  0  0  0  0  0  0
   -1.9570   -6.7410  -22.3530 C   0  0  0  0  0  3  0  0  0  0  0  0
   -1.6150   -7.6140  -23.3910 C   0  0  0  0  0  0  0  0  0  0  0  0
   -1.2680   -8.9350  -23.0790 C   0  0  0  0  0  3  0  0  0  0  0  0
   -0.9420  -11.7900  -22.5040 C   0  0  0  0  0  0  0  0  0  0  0  0
   -1.0540  -12.9570  -22.1180 O   0  0  0  0  0  0  0  0  0  0  0  0
   -1.2510  -10.7940  -21.6100 N   0  0  0  0  0  0  0  0  0  0  0  0
   -1.2660  -11.1470  -20.6600 H   0  0  0  0  0  0  0  0  0  0  0  0
    1.9960  -12.4820  -23.4980 C   0  0  0  0  0  1  0  0  0  0  0  0
    0.9100  -11.8580  -24.3260 C   0  0  0  0  0  0  0  0  0  0  0  0
    1.2360  -11.6100  -25.6770 C   0  0  0  0  0  3  0  0  0  0  0  0
    0.2760  -11.1790  -26.5890 C   0  0  0  0  0  3  0  0  0  0  0  0
   -1.0260  -10.9630  -26.1650 C   0  0  0  0  0  3  0  0  0  0  0  0
   -1.3520  -11.1350  -24.8200 C   0  0  0  0  0  3  0  0  0  0  0  0
   -0.3920  -11.5510  -23.8750 C   0  0  0  0  0  0  0  0  0  0  0  0
   -0.5870   -6.2210  -25.0590 N   0  0  0  0  0  0  0  0  0  0  0  0
   -0.1330   -5.9100  -24.2130 H   0  0  0  0  0  0  0  0  0  0  0  0
    0.2190   -6.2760  -26.1940 C   0  0  0  0  0  0  0  0  0  0  0  0
   -0.0740   -5.4590  -27.2160 N   0  0  0  0  0  0  0  0  0  0  0  0
    0.7200   -5.5320  -28.2830 C   0  0  0  0  0  3  0  0  0  0  0  0
    1.7690   -6.3420  -28.4220 N   0  0  0  0  0  0  0  0  0  0  0  0
    2.1060   -7.1510  -27.4040 C   0  0  0  0  0  0  0  0  0  0  0  0
    3.2180   -8.0260  -27.4630 C   0  0  0  0  0  0  0  0  0  0  0  0
    3.5330   -8.8640  -26.3740 C   0  0  0  0  0  3  0  0  0  0  0  0
    2.7670   -8.8460  -25.2190 C   0  0  0  0  0  3  0  0  0  0  0  0
    1.6840   -7.9860  -25.1420 C   0  0  0  0  0  3  0  0  0  0  0  0
    1.3330   -7.1430  -26.2240 C   0  0  0  0  0  0  0  0  0  0  0  0
    4.0940   -8.0470  -28.6900 C   0  0  0  0  0  0  0  0  0  0  0  0
    4.5020   -6.8490  -29.2240 N   0  0  0  0  0  0  0  0  0  0  0  0
    4.4630   -9.0650  -29.2580 O   0  0  0  0  0  0  0  0  0  0  0  0
    5.0780   -6.9170  -30.0530 H   0  0  0  0  0  0  0  0  0  0  0  0
    4.3100   -5.9300  -28.8640 H   0  0  0  0  0  0  0  0  0  0  0  0
  1  6  1  0  0  0  0
  2 10  1  0  0  0  0
  2  3  1  0  0  0  0
  4  3  2  0  0  0  0
  5  4  1  0  0  0  0
  6  7  1  0  0  0  0
  6  5  2  0  0  0  0
  7  2  2  0  0  0  0
  8  9  2  0  0  0  0
  8 10  1  0  0  0  0
 10 11  1  0  0  0  0
 13 18  1  0  0  0  0
 13 12  1  0  0  0  0
 14 13  2  0  0  0  0
 15 16  2  0  0  0  0
 15 14  1  0  0  0  0
 16 17  1  0  0  0  0
 17 18  2  0  0  0  0
 18  8  1  0  0  0  0
 19  1  1  0  0  0  0
 19 20  1  0  0  0  0
 21 19  1  0  0  0  0
 22 21  2  0  0  0  0
 23 22  1  0  0  0  0
 24 23  2  0  0  0  0
 24 25  1  0  0  0  0
 25 30  1  0  0  0  0
 26 25  2  0  0  0  0
 26 27  1  0  0  0  0
 27 28  2  0  0  0  0
 28 29  1  0  0  0  0
 30 21  1  0  0  0  0
 30 29  2  0  0  0  0
 31 26  1  0  0  0  0
 32 35  1  0  0  0  0
 32 31  1  0  0  0  0
 33 31  2  0  0  0  0
 34 32  1  0  0  0  0
M  END
>  <minimizedAffinity>
-7.84180355

$$$$
