
 OpenBabel10152418403D

 36 39  0  0  0  0  0  0  0  0999 V2000
   -2.4660   -8.4180  -23.0720 C   0  0  0  0  0  2  0  0  0  0  0  0
    0.0460   -4.6990  -27.2340 C   0  0  0  0  0  0  0  0  0  0  0  0
    0.0400   -5.5420  -28.3560 C   0  0  0  0  0  3  0  0  0  0  0  0
   -0.4380   -6.8350  -28.2330 C   0  0  0  0  0  3  0  0  0  0  0  0
   -0.9120   -7.2660  -26.9960 C   0  0  0  0  0  3  0  0  0  0  0  0
   -0.9250   -6.4080  -25.8620 C   0  0  0  0  0  0  0  0  0  0  0  0
   -1.4260   -6.7710  -24.5920 C   0  0  0  0  0  0  0  0  0  0  0  0
   -1.9710   -8.0310  -24.3820 N   0  0  0  0  0  0  0  0  0  0  0  0
   -1.3690   -5.9340  -23.5440 N   0  0  0  0  0  0  0  0  0  0  0  0
   -0.8700   -4.7170  -23.7640 C   0  0  0  0  0  3  0  0  0  0  0  0
   -0.4220   -4.2550  -24.9310 N   0  0  0  0  0  0  0  0  0  0  0  0
   -0.4250   -5.0980  -25.9770 C   0  0  0  0  0  0  0  0  0  0  0  0
   -2.4280   -8.4720  -25.1660 H   0  0  0  0  0  0  0  0  0  0  0  0
   -0.2430   -2.3170  -27.0810 N   0  0  0  0  0  0  0  0  0  0  0  0
    0.5950   -3.3430  -27.4170 C   0  0  0  0  0  0  0  0  0  0  0  0
    1.7040   -3.1470  -27.8960 O   0  0  0  0  0  0  0  0  0  0  0  0
    0.1040   -1.3740  -27.1960 H   0  0  0  0  0  0  0  0  0  0  0  0
   -1.1530   -2.4570  -26.6650 H   0  0  0  0  0  0  0  0  0  0  0  0
   -1.7700   -9.6870  -22.6300 C   0  0  0  0  0  0  0  0  0  0  0  0
   -2.2030  -10.4010  -21.5090 C   0  0  0  0  0  3  0  0  0  0  0  0
   -1.5490  -11.5740  -21.1340 C   0  0  0  0  0  3  0  0  0  0  0  0
   -0.4530  -12.0390  -21.8690 C   0  0  0  0  0  3  0  0  0  0  0  0
    0.0100  -11.3420  -22.9880 C   0  0  0  0  0  0  0  0  0  0  0  0
   -0.6750  -10.1790  -23.3650 C   0  0  0  0  0  3  0  0  0  0  0  0
    1.1000  -11.7520  -23.7650 N   0  0  0  0  0  0  0  0  0  0  0  0
    1.8370  -11.1690  -24.7900 C   0  0  0  0  0  0  0  0  0  0  0  0
    1.9660   -9.7970  -24.9530 C   0  0  0  0  0  3  0  0  0  0  0  0
    2.7470   -9.2900  -26.0010 C   0  0  0  0  0  0  0  0  0  0  0  0
    3.3580  -10.1920  -26.8730 C   0  0  0  0  0  3  0  0  0  0  0  0
    3.1940  -11.5420  -26.6330 C   0  0  0  0  0  3  0  0  0  0  0  0
    2.4660  -12.0380  -25.6110 N   0  0  0  0  0  0  0  0  0  0  0  0
    1.2850  -12.7480  -23.7460 H   0  0  0  0  0  0  0  0  0  0  0  0
    2.8980   -7.8080  -26.2000 C   0  0  0  0  0  0  0  0  0  0  0  0
    2.2590   -7.0780  -25.2430 F   0  0  0  0  0  0  0  0  0  0  0  0
    4.2000   -7.4140  -26.1620 F   0  0  0  0  0  0  0  0  0  0  0  0
    2.4060   -7.3710  -27.3910 F   0  0  0  0  0  0  0  0  0  0  0  0
  1 19  1  0  0  0  0
  2 12  1  0  0  0  0
  3  4  1  0  0  0  0
  3  2  2  0  0  0  0
  4  5  2  0  0  0  0
  5  6  1  0  0  0  0
  6  7  1  0  0  0  0
  7  8  1  0  0  0  0
  7  9  2  0  0  0  0
  8  1  1  0  0  0  0
 10  9  1  0  0  0  0
 11 10  2  0  0  0  0
 12  6  2  0  0  0  0
 12 11  1  0  0  0  0
 13  8  1  0  0  0  0
 14 18  1  0  0  0  0
 15  2  1  0  0  0  0
 15 14  1  0  0  0  0
 16 15  2  0  0  0  0
 17 14  1  0  0  0  0
 19 20  1  0  0  0  0
 20 21  2  0  0  0  0
 22 21  1  0  0  0  0
 23 22  2  0  0  0  0
 24 23  1  0  0  0  0
 24 19  2  0  0  0  0
 25 32  1  0  0  0  0
 25 23  1  0  0  0  0
 26 25  1  0  0  0  0
 27 26  1  0  0  0  0
 28 27  2  0  0  0  0
 29 30  2  0  0  0  0
 29 28  1  0  0  0  0
 30 31  1  0  0  0  0
 31 26  2  0  0  0  0
 33 35  1  0  0  0  0
 33 28  1  0  0  0  0
 33 34  1  0  0  0  0
 36 33  1  0  0  0  0
M  END
>  <minimizedAffinity>
-7.23373413

$$$$
