
 OpenBabel10152418403D

 36 39  0  0  0  0  0  0  0  0999 V2000
    0.0000  -10.2210  -25.2900 C   0  0  0  0  0  2  0  0  0  0  0  0
   -0.5000   -4.2380  -26.4860 C   0  0  0  0  0  0  0  0  0  0  0  0
   -0.1000   -4.2200  -27.8300 C   0  0  0  0  0  3  0  0  0  0  0  0
    0.2870   -5.4000  -28.4420 C   0  0  0  0  0  3  0  0  0  0  0  0
    0.2570   -6.5830  -27.7070 C   0  0  0  0  0  3  0  0  0  0  0  0
   -0.1660   -6.6090  -26.3500 C   0  0  0  0  0  0  0  0  0  0  0  0
   -0.2530   -7.7780  -25.5630 C   0  0  0  0  0  0  0  0  0  0  0  0
    0.0660   -9.0170  -26.1030 N   0  0  0  0  0  0  0  0  0  0  0  0
   -0.6160   -7.7350  -24.2710 N   0  0  0  0  0  0  0  0  0  0  0  0
   -0.9480   -6.5450  -23.7720 C   0  0  0  0  0  3  0  0  0  0  0  0
   -0.9530   -5.3900  -24.4390 N   0  0  0  0  0  0  0  0  0  0  0  0
   -0.5430   -5.4090  -25.7190 C   0  0  0  0  0  0  0  0  0  0  0  0
   -0.1060   -9.1490  -27.0880 H   0  0  0  0  0  0  0  0  0  0  0  0
   -0.6000   -1.8410  -26.6350 N   0  0  0  0  0  0  0  0  0  0  0  0
   -0.8700   -2.9470  -25.8780 C   0  0  0  0  0  0  0  0  0  0  0  0
   -1.3310   -2.8650  -24.7480 O   0  0  0  0  0  0  0  0  0  0  0  0
   -0.8420   -0.9390  -26.2450 H   0  0  0  0  0  0  0  0  0  0  0  0
   -0.2400   -1.8870  -27.5770 H   0  0  0  0  0  0  0  0  0  0  0  0
    1.3730  -10.8560  -25.2270 C   0  0  0  0  0  0  0  0  0  0  0  0
    1.9120  -11.3020  -24.0170 C   0  0  0  0  0  3  0  0  0  0  0  0
    3.1730  -11.8940  -23.9910 C   0  0  0  0  0  3  0  0  0  0  0  0
    3.9110  -12.0390  -25.1720 C   0  0  0  0  0  3  0  0  0  0  0  0
    3.4040  -11.5930  -26.3950 C   0  0  0  0  0  0  0  0  0  0  0  0
    2.1230  -11.0230  -26.4050 C   0  0  0  0  0  3  0  0  0  0  0  0
    4.0900  -11.7070  -27.6110 N   0  0  0  0  0  0  0  0  0  0  0  0
    4.2530  -10.8790  -28.7160 C   0  0  0  0  0  0  0  0  0  0  0  0
    4.1610   -9.4950  -28.6540 C   0  0  0  0  0  3  0  0  0  0  0  0
    4.3600   -8.7320  -29.8120 C   0  0  0  0  0  0  0  0  0  0  0  0
    4.6260   -9.3950  -31.0100 C   0  0  0  0  0  3  0  0  0  0  0  0
    4.7180  -10.7730  -30.9850 C   0  0  0  0  0  3  0  0  0  0  0  0
    4.5520  -11.5140  -29.8690 N   0  0  0  0  0  0  0  0  0  0  0  0
    4.3640  -12.6510  -27.8570 H   0  0  0  0  0  0  0  0  0  0  0  0
    4.2620   -7.2320  -29.7700 C   0  0  0  0  0  0  0  0  0  0  0  0
    4.8220   -6.6970  -28.6490 F   0  0  0  0  0  0  0  0  0  0  0  0
    4.8950   -6.6450  -30.8220 F   0  0  0  0  0  0  0  0  0  0  0  0
    2.9800   -6.7760  -29.8000 F   0  0  0  0  0  0  0  0  0  0  0  0
  1 19  1  0  0  0  0
  2 15  1  0  0  0  0
  2 12  1  0  0  0  0
  3  2  2  0  0  0  0
  4  3  1  0  0  0  0
  4  5  2  0  0  0  0
  5  6  1  0  0  0  0
  6 12  2  0  0  0  0
  6  7  1  0  0  0  0
  7  9  2  0  0  0  0
  8  7  1  0  0  0  0
  8  1  1  0  0  0  0
  9 10  1  0  0  0  0
 11 10  2  0  0  0  0
 12 11  1  0  0  0  0
 13  8  1  0  0  0  0
 14 17  1  0  0  0  0
 14 15  1  0  0  0  0
 15 16  2  0  0  0  0
 18 14  1  0  0  0  0
 19 20  1  0  0  0  0
 20 21  2  0  0  0  0
 22 21  1  0  0  0  0
 23 22  2  0  0  0  0
 24 23  1  0  0  0  0
 24 19  2  0  0  0  0
 25 23  1  0  0  0  0
 26 27  1  0  0  0  0
 26 25  1  0  0  0  0
 28 33  1  0  0  0  0
 28 27  2  0  0  0  0
 29 30  2  0  0  0  0
 29 28  1  0  0  0  0
 30 31  1  0  0  0  0
 31 26  2  0  0  0  0
 32 25  1  0  0  0  0
 33 34  1  0  0  0  0
 35 33  1  0  0  0  0
 36 33  1  0  0  0  0
M  END
>  <minimizedAffinity>
-7.93763208

$$$$
