
 OpenBabel10152418403D

 36 39  0  0  0  0  0  0  0  0999 V2000
   -0.6660   -5.8870  -24.7790 C   0  0  0  0  0  2  0  0  0  0  0  0
   -1.5670  -11.1060  -21.7110 C   0  0  0  0  0  0  0  0  0  0  0  0
   -1.2950  -12.0390  -22.7230 C   0  0  0  0  0  3  0  0  0  0  0  0
   -0.9700  -11.5910  -23.9920 C   0  0  0  0  0  3  0  0  0  0  0  0
   -0.9120  -10.2200  -24.2310 C   0  0  0  0  0  3  0  0  0  0  0  0
   -1.1690   -9.2720  -23.2030 C   0  0  0  0  0  0  0  0  0  0  0  0
   -1.0910   -7.8720  -23.3710 C   0  0  0  0  0  0  0  0  0  0  0  0
   -0.7260   -7.3270  -24.5950 N   0  0  0  0  0  0  0  0  0  0  0  0
   -1.3900   -7.0220  -22.3740 N   0  0  0  0  0  0  0  0  0  0  0  0
   -1.7120   -7.5570  -21.1960 C   0  0  0  0  0  3  0  0  0  0  0  0
   -1.7620   -8.8590  -20.9150 N   0  0  0  0  0  0  0  0  0  0  0  0
   -1.5160   -9.7220  -21.9160 C   0  0  0  0  0  0  0  0  0  0  0  0
   -0.0920   -7.8650  -25.1680 H   0  0  0  0  0  0  0  0  0  0  0  0
   -0.8920  -12.0310  -19.5960 N   0  0  0  0  0  0  0  0  0  0  0  0
   -1.9370  -11.6410  -20.3880 C   0  0  0  0  0  0  0  0  0  0  0  0
   -3.1020  -11.7850  -20.0440 O   0  0  0  0  0  0  0  0  0  0  0  0
   -1.1130  -12.4030  -18.6820 H   0  0  0  0  0  0  0  0  0  0  0  0
    0.0760  -11.9010  -19.8520 H   0  0  0  0  0  0  0  0  0  0  0  0
    0.0090   -5.5810  -26.0990 C   0  0  0  0  0  0  0  0  0  0  0  0
   -0.2890   -4.4180  -26.8160 C   0  0  0  0  0  3  0  0  0  0  0  0
    0.3580   -4.1570  -28.0220 C   0  0  0  0  0  3  0  0  0  0  0  0
    1.3030   -5.0580  -28.5270 C   0  0  0  0  0  3  0  0  0  0  0  0
    1.6150   -6.2330  -27.8400 C   0  0  0  0  0  0  0  0  0  0  0  0
    0.9730   -6.4670  -26.6170 C   0  0  0  0  0  3  0  0  0  0  0  0
    2.5480   -7.1750  -28.2910 N   0  0  0  0  0  0  0  0  0  0  0  0
    3.1190   -8.3180  -27.7410 C   0  0  0  0  0  0  0  0  0  0  0  0
    2.5020   -9.0840  -26.7610 C   0  0  0  0  0  3  0  0  0  0  0  0
    3.1360  -10.2350  -26.2760 C   0  0  0  0  0  0  0  0  0  0  0  0
    4.3930  -10.5670  -26.7820 C   0  0  0  0  0  3  0  0  0  0  0  0
    4.9310   -9.7630  -27.7670 C   0  0  0  0  0  3  0  0  0  0  0  0
    4.3160   -8.6670  -28.2580 N   0  0  0  0  0  0  0  0  0  0  0  0
    3.0930   -6.8830  -29.0930 H   0  0  0  0  0  0  0  0  0  0  0  0
    2.4900  -11.0780  -25.2120 C   0  0  0  0  0  0  0  0  0  0  0  0
    3.3500  -11.9740  -24.6510 F   0  0  0  0  0  0  0  0  0  0  0  0
    2.0080  -10.3280  -24.1830 F   0  0  0  0  0  0  0  0  0  0  0  0
    1.4370  -11.8090  -25.6700 F   0  0  0  0  0  0  0  0  0  0  0  0
  1  8  1  0  0  0  0
  2 15  1  0  0  0  0
  3  2  2  0  0  0  0
  4  3  1  0  0  0  0
  5  4  2  0  0  0  0
  5  6  1  0  0  0  0
  6 12  1  0  0  0  0
  7  6  2  0  0  0  0
  7  9  1  0  0  0  0
  8  7  1  0  0  0  0
  9 10  2  0  0  0  0
 10 11  1  0  0  0  0
 12  2  1  0  0  0  0
 12 11  2  0  0  0  0
 13  8  1  0  0  0  0
 14 17  1  0  0  0  0
 15 16  2  0  0  0  0
 15 14  1  0  0  0  0
 18 14  1  0  0  0  0
 19  1  1  0  0  0  0
 20 19  2  0  0  0  0
 21 20  1  0  0  0  0
 22 21  2  0  0  0  0
 22 23  1  0  0  0  0
 23 24  2  0  0  0  0
 24 19  1  0  0  0  0
 25 23  1  0  0  0  0
 25 26  1  0  0  0  0
 26 27  1  0  0  0  0
 27 28  2  0  0  0  0
 28 33  1  0  0  0  0
 29 28  1  0  0  0  0
 30 29  2  0  0  0  0
 31 30  1  0  0  0  0
 31 26  2  0  0  0  0
 32 25  1  0  0  0  0
 33 34  1  0  0  0  0
 33 35  1  0  0  0  0
 36 33  1  0  0  0  0
M  END
>  <minimizedAffinity>
-9.80374622

$$$$
