
 OpenBabel10152418403D

 36 39  0  0  0  0  0  0  0  0999 V2000
   -0.6660   -5.8870  -24.7790 C   0  0  0  0  0  2  0  0  0  0  0  0
   -1.5670  -11.1060  -21.7110 C   0  0  0  0  0  0  0  0  0  0  0  0
   -1.2950  -12.0390  -22.7230 C   0  0  0  0  0  3  0  0  0  0  0  0
   -0.9700  -11.5910  -23.9920 C   0  0  0  0  0  3  0  0  0  0  0  0
   -0.9120  -10.2200  -24.2310 C   0  0  0  0  0  3  0  0  0  0  0  0
   -1.1690   -9.2720  -23.2030 C   0  0  0  0  0  0  0  0  0  0  0  0
   -1.0910   -7.8720  -23.3710 C   0  0  0  0  0  0  0  0  0  0  0  0
   -0.7260   -7.3270  -24.5950 N   0  0  0  0  0  0  0  0  0  0  0  0
   -1.3900   -7.0220  -22.3740 N   0  0  0  0  0  0  0  0  0  0  0  0
   -1.7120   -7.5570  -21.1960 C   0  0  0  0  0  3  0  0  0  0  0  0
   -1.7620   -8.8590  -20.9150 N   0  0  0  0  0  0  0  0  0  0  0  0
   -1.5160   -9.7220  -21.9160 C   0  0  0  0  0  0  0  0  0  0  0  0
   -0.0920   -7.8650  -25.1680 H   0  0  0  0  0  0  0  0  0  0  0  0
   -0.8920  -12.0310  -19.5960 N   0  0  0  0  0  0  0  0  0  0  0  0
   -1.9370  -11.6410  -20.3880 C   0  0  0  0  0  0  0  0  0  0  0  0
   -3.1020  -11.7850  -20.0440 O   0  0  0  0  0  0  0  0  0  0  0  0
   -1.1130  -12.4030  -18.6820 H   0  0  0  0  0  0  0  0  0  0  0  0
    0.0760  -11.9010  -19.8520 H   0  0  0  0  0  0  0  0  0  0  0  0
    0.0090   -5.5810  -26.0990 C   0  0  0  0  0  0  0  0  0  0  0  0
   -0.2890   -4.4180  -26.8160 C   0  0  0  0  0  3  0  0  0  0  0  0
    0.3580   -4.1570  -28.0220 C   0  0  0  0  0  3  0  0  0  0  0  0
    1.3030   -5.0580  -28.5270 C   0  0  0  0  0  3  0  0  0  0  0  0
    1.6150   -6.2330  -27.8400 C   0  0  0  0  0  0  0  0  0  0  0  0
    0.9730   -6.4670  -26.6170 C   0  0  0  0  0  3  0  0  0  0  0  0
    2.5480   -7.1750  -28.2910 N   0  0  0  0  0  0  0  0  0  0  0  0
    3.1190   -8.3180  -27.7410 C   0  0  0  0  0  0  0  0  0  0  0  0
    2.5020   -9.0840  -26.7610 C   0  0  0  0  0  3  0  0  0  0  0  0
    3.1360  -10.2350  -26.2760 C   0  0  0  0  0  0  0  0  0  0  0  0
    4.3930  -10.5670  -26.7820 C   0  0  0  0  0  3  0  0  0  0  0  0
    4.9310   -9.7630  -27.7670 C   0  0  0  0  0  3  0  0  0  0  0  0
    4.3160   -8.6670  -28.2580 N   0  0  0  0  0  0  0  0  0  0  0  0
    3.0930   -6.8830  -29.0930 H   0  0  0  0  0  0  0  0  0  0  0  0
    2.4900  -11.0780  -25.2120 C   0  0  0  0  0  0  0  0  0  0  0  0
    3.3500  -11.9740  -24.6510 F   0  0  0  0  0  0  0  0  0  0  0  0
    2.0080  -10.3280  -24.1830 F   0  0  0  0  0  0  0  0  0  0  0  0
    1.4370  -11.8090  -25.6700 F   0  0  0  0  0  0  0  0  0  0  0  0
  1  8  1  0  0  0  0
  2 15  1  0  0  0  0
  3  2  2  0  0  0  0
  4  3  1  0  0  0  0
  5  4  2  0  0  0  0
  5  6  1  0  0  0  0
  6 12  1  0  0  0  0
  7  6  2  0  0  0  0
  7  9  1  0  0  0  0
  8  7  1  0  0  0  0
  9 10  2  0  0  0  0
 10 11  1  0  0  0  0
 12  2  1  0  0  0  0
 12 11  2  0  0  0  0
 13  8  1  0  0  0  0
 14 17  1  0  0  0  0
 15 16  2  0  0  0  0
 15 14  1  0  0  0  0
 18 14  1  0  0  0  0
 19  1  1  0  0  0  0
 20 19  2  0  0  0  0
 21 20  1  0  0  0  0
 22 21  2  0  0  0  0
 22 23  1  0  0  0  0
 23 24  2  0  0  0  0
 24 19  1  0  0  0  0
 25 23  1  0  0  0  0
 25 26  1  0  0  0  0
 26 27  1  0  0  0  0
 27 28  2  0  0  0  0
 28 33  1  0  0  0  0
 29 28  1  0  0  0  0
 30 29  2  0  0  0  0
 31 30  1  0  0  0  0
 31 26  2  0  0  0  0
 32 25  1  0  0  0  0
 33 34  1  0  0  0  0
 33 35  1  0  0  0  0
 36 33  1  0  0  0  0
M  END
>  <minimizedAffinity>
-9.80374622

$$$$

 OpenBabel10152418403D

 36 39  0  0  0  0  0  0  0  0999 V2000
    0.8990  -12.0390  -26.5820 C   0  0  0  0  0  2  0  0  0  0  0  0
   -1.8500   -9.6030  -21.6850 C   0  0  0  0  0  0  0  0  0  0  0  0
   -1.7270  -10.6660  -20.7780 C   0  0  0  0  0  3  0  0  0  0  0  0
   -1.1270  -11.8450  -21.1870 C   0  0  0  0  0  3  0  0  0  0  0  0
   -0.6480  -11.9420  -22.4910 C   0  0  0  0  0  3  0  0  0  0  0  0
   -0.7530  -10.8600  -23.4070 C   0  0  0  0  0  0  0  0  0  0  0  0
   -0.2560  -10.8820  -24.7290 C   0  0  0  0  0  0  0  0  0  0  0  0
    0.4050  -12.0030  -25.2150 N   0  0  0  0  0  0  0  0  0  0  0  0
   -0.4260   -9.8460  -25.5660 N   0  0  0  0  0  0  0  0  0  0  0  0
   -1.0370   -8.7660  -25.0790 C   0  0  0  0  0  3  0  0  0  0  0  0
   -1.4950   -8.6190  -23.8360 N   0  0  0  0  0  0  0  0  0  0  0  0
   -1.3780   -9.6670  -23.0020 C   0  0  0  0  0  0  0  0  0  0  0  0
    0.9270  -12.5550  -24.5510 H   0  0  0  0  0  0  0  0  0  0  0  0
   -3.5610   -7.9400  -21.9770 N   0  0  0  0  0  0  0  0  0  0  0  0
   -2.5260   -8.3850  -21.2030 C   0  0  0  0  0  0  0  0  0  0  0  0
   -2.1470   -7.7770  -20.2120 O   0  0  0  0  0  0  0  0  0  0  0  0
   -4.0450   -7.1050  -21.6740 H   0  0  0  0  0  0  0  0  0  0  0  0
   -3.9030   -8.4380  -22.7870 H   0  0  0  0  0  0  0  0  0  0  0  0
    2.2120  -11.2890  -26.6580 C   0  0  0  0  0  0  0  0  0  0  0  0
    3.4000  -11.8570  -26.1910 C   0  0  0  0  0  3  0  0  0  0  0  0
    4.5960  -11.1470  -26.2860 C   0  0  0  0  0  3  0  0  0  0  0  0
    4.6140   -9.8630  -26.8410 C   0  0  0  0  0  3  0  0  0  0  0  0
    3.4410   -9.2650  -27.3080 C   0  0  0  0  0  0  0  0  0  0  0  0
    2.2530  -10.0020  -27.2270 C   0  0  0  0  0  3  0  0  0  0  0  0
    3.3910   -7.9840  -27.8720 N   0  0  0  0  0  0  0  0  0  0  0  0
    2.4660   -6.9460  -27.8450 C   0  0  0  0  0  0  0  0  0  0  0  0
    1.5610   -6.7560  -26.8090 C   0  0  0  0  0  3  0  0  0  0  0  0
    0.6760   -5.6690  -26.8490 C   0  0  0  0  0  0  0  0  0  0  0  0
    0.7180   -4.8150  -27.9510 C   0  0  0  0  0  3  0  0  0  0  0  0
    1.6590   -5.0620  -28.9310 C   0  0  0  0  0  3  0  0  0  0  0  0
    2.5320   -6.0920  -28.8880 N   0  0  0  0  0  0  0  0  0  0  0  0
    4.0480   -7.8260  -28.6270 H   0  0  0  0  0  0  0  0  0  0  0  0
   -0.3160   -5.4460  -25.7410 C   0  0  0  0  0  0  0  0  0  0  0  0
   -0.6990   -4.1430  -25.6300 F   0  0  0  0  0  0  0  0  0  0  0  0
   -1.4600   -6.1590  -25.9240 F   0  0  0  0  0  0  0  0  0  0  0  0
    0.1570   -5.8010  -24.5160 F   0  0  0  0  0  0  0  0  0  0  0  0
  1  8  1  0  0  0  0
  2 15  1  0  0  0  0
  2  3  1  0  0  0  0
  4  3  2  0  0  0  0
  5  4  1  0  0  0  0
  6 12  1  0  0  0  0
  6  5  2  0  0  0  0
  7  6  1  0  0  0  0
  8  7  1  0  0  0  0
  8 13  1  0  0  0  0
  9 10  1  0  0  0  0
  9  7  2  0  0  0  0
 10 11  2  0  0  0  0
 11 12  1  0  0  0  0
 12  2  2  0  0  0  0
 14 17  1  0  0  0  0
 14 15  1  0  0  0  0
 15 16  2  0  0  0  0
 18 14  1  0  0  0  0
 19  1  1  0  0  0  0
 19 20  1  0  0  0  0
 21 20  2  0  0  0  0
 22 21  1  0  0  0  0
 23 24  1  0  0  0  0
 23 22  2  0  0  0  0
 24 19  2  0  0  0  0
 25 26  1  0  0  0  0
 25 23  1  0  0  0  0
 26 27  1  0  0  0  0
 28 27  2  0  0  0  0
 28 33  1  0  0  0  0
 29 28  1  0  0  0  0
 30 31  1  0  0  0  0
 30 29  2  0  0  0  0
 31 26  2  0  0  0  0
 32 25  1  0  0  0  0
 33 34  1  0  0  0  0
 33 36  1  0  0  0  0
 35 33  1  0  0  0  0
M  END
>  <minimizedAffinity>
-8.66262436

$$$$

 OpenBabel10152418403D

 36 39  0  0  0  0  0  0  0  0999 V2000
    0.0000  -10.2210  -25.2900 C   0  0  0  0  0  2  0  0  0  0  0  0
   -0.5000   -4.2380  -26.4860 C   0  0  0  0  0  0  0  0  0  0  0  0
   -0.1000   -4.2200  -27.8300 C   0  0  0  0  0  3  0  0  0  0  0  0
    0.2870   -5.4000  -28.4420 C   0  0  0  0  0  3  0  0  0  0  0  0
    0.2570   -6.5830  -27.7070 C   0  0  0  0  0  3  0  0  0  0  0  0
   -0.1660   -6.6090  -26.3500 C   0  0  0  0  0  0  0  0  0  0  0  0
   -0.2530   -7.7780  -25.5630 C   0  0  0  0  0  0  0  0  0  0  0  0
    0.0660   -9.0170  -26.1030 N   0  0  0  0  0  0  0  0  0  0  0  0
   -0.6160   -7.7350  -24.2710 N   0  0  0  0  0  0  0  0  0  0  0  0
   -0.9480   -6.5450  -23.7720 C   0  0  0  0  0  3  0  0  0  0  0  0
   -0.9530   -5.3900  -24.4390 N   0  0  0  0  0  0  0  0  0  0  0  0
   -0.5430   -5.4090  -25.7190 C   0  0  0  0  0  0  0  0  0  0  0  0
   -0.1060   -9.1490  -27.0880 H   0  0  0  0  0  0  0  0  0  0  0  0
   -0.6000   -1.8410  -26.6350 N   0  0  0  0  0  0  0  0  0  0  0  0
   -0.8700   -2.9470  -25.8780 C   0  0  0  0  0  0  0  0  0  0  0  0
   -1.3310   -2.8650  -24.7480 O   0  0  0  0  0  0  0  0  0  0  0  0
   -0.8420   -0.9390  -26.2450 H   0  0  0  0  0  0  0  0  0  0  0  0
   -0.2400   -1.8870  -27.5770 H   0  0  0  0  0  0  0  0  0  0  0  0
    1.3730  -10.8560  -25.2270 C   0  0  0  0  0  0  0  0  0  0  0  0
    1.9120  -11.3020  -24.0170 C   0  0  0  0  0  3  0  0  0  0  0  0
    3.1730  -11.8940  -23.9910 C   0  0  0  0  0  3  0  0  0  0  0  0
    3.9110  -12.0390  -25.1720 C   0  0  0  0  0  3  0  0  0  0  0  0
    3.4040  -11.5930  -26.3950 C   0  0  0  0  0  0  0  0  0  0  0  0
    2.1230  -11.0230  -26.4050 C   0  0  0  0  0  3  0  0  0  0  0  0
    4.0900  -11.7070  -27.6110 N   0  0  0  0  0  0  0  0  0  0  0  0
    4.2530  -10.8790  -28.7160 C   0  0  0  0  0  0  0  0  0  0  0  0
    4.1610   -9.4950  -28.6540 C   0  0  0  0  0  3  0  0  0  0  0  0
    4.3600   -8.7320  -29.8120 C   0  0  0  0  0  0  0  0  0  0  0  0
    4.6260   -9.3950  -31.0100 C   0  0  0  0  0  3  0  0  0  0  0  0
    4.7180  -10.7730  -30.9850 C   0  0  0  0  0  3  0  0  0  0  0  0
    4.5520  -11.5140  -29.8690 N   0  0  0  0  0  0  0  0  0  0  0  0
    4.3640  -12.6510  -27.8570 H   0  0  0  0  0  0  0  0  0  0  0  0
    4.2620   -7.2320  -29.7700 C   0  0  0  0  0  0  0  0  0  0  0  0
    4.8220   -6.6970  -28.6490 F   0  0  0  0  0  0  0  0  0  0  0  0
    4.8950   -6.6450  -30.8220 F   0  0  0  0  0  0  0  0  0  0  0  0
    2.9800   -6.7760  -29.8000 F   0  0  0  0  0  0  0  0  0  0  0  0
  1 19  1  0  0  0  0
  2 15  1  0  0  0  0
  2 12  1  0  0  0  0
  3  2  2  0  0  0  0
  4  3  1  0  0  0  0
  4  5  2  0  0  0  0
  5  6  1  0  0  0  0
  6 12  2  0  0  0  0
  6  7  1  0  0  0  0
  7  9  2  0  0  0  0
  8  7  1  0  0  0  0
  8  1  1  0  0  0  0
  9 10  1  0  0  0  0
 11 10  2  0  0  0  0
 12 11  1  0  0  0  0
 13  8  1  0  0  0  0
 14 17  1  0  0  0  0
 14 15  1  0  0  0  0
 15 16  2  0  0  0  0
 18 14  1  0  0  0  0
 19 20  1  0  0  0  0
 20 21  2  0  0  0  0
 22 21  1  0  0  0  0
 23 22  2  0  0  0  0
 24 23  1  0  0  0  0
 24 19  2  0  0  0  0
 25 23  1  0  0  0  0
 26 27  1  0  0  0  0
 26 25  1  0  0  0  0
 28 33  1  0  0  0  0
 28 27  2  0  0  0  0
 29 30  2  0  0  0  0
 29 28  1  0  0  0  0
 30 31  1  0  0  0  0
 31 26  2  0  0  0  0
 32 25  1  0  0  0  0
 33 34  1  0  0  0  0
 35 33  1  0  0  0  0
 36 33  1  0  0  0  0
M  END
>  <minimizedAffinity>
-7.93763208

$$$$

 OpenBabel10152418403D

 36 39  0  0  0  0  0  0  0  0999 V2000
   -1.1560   -5.7450  -26.7390 C   0  0  0  0  0  2  0  0  0  0  0  0
   -1.4150  -10.1550  -22.5010 C   0  0  0  0  0  0  0  0  0  0  0  0
   -1.3760  -11.2910  -23.3230 C   0  0  0  0  0  3  0  0  0  0  0  0
   -1.3300  -11.1350  -24.6990 C   0  0  0  0  0  3  0  0  0  0  0  0
   -1.3140   -9.8500  -25.2330 C   0  0  0  0  0  3  0  0  0  0  0  0
   -1.3340   -8.6950  -24.4020 C   0  0  0  0  0  0  0  0  0  0  0  0
   -1.2830   -7.3670  -24.8800 C   0  0  0  0  0  0  0  0  0  0  0  0
   -1.1860   -7.1100  -26.2410 N   0  0  0  0  0  0  0  0  0  0  0  0
   -1.3520   -6.3140  -24.0490 N   0  0  0  0  0  0  0  0  0  0  0  0
   -1.4160   -6.5730  -22.7430 C   0  0  0  0  0  3  0  0  0  0  0  0
   -1.4160   -7.7840  -22.1840 N   0  0  0  0  0  0  0  0  0  0  0  0
   -1.3980   -8.8480  -23.0050 C   0  0  0  0  0  0  0  0  0  0  0  0
   -0.6960   -7.7890  -26.8050 H   0  0  0  0  0  0  0  0  0  0  0  0
   -1.1820  -11.6450  -20.6290 N   0  0  0  0  0  0  0  0  0  0  0  0
   -1.4950  -10.3810  -21.0470 C   0  0  0  0  0  0  0  0  0  0  0  0
   -1.8750   -9.5160  -20.2710 O   0  0  0  0  0  0  0  0  0  0  0  0
   -1.2280  -11.8330  -19.6370 H   0  0  0  0  0  0  0  0  0  0  0  0
   -0.8460  -12.3680  -21.2500 H   0  0  0  0  0  0  0  0  0  0  0  0
    0.1780   -5.4880  -27.4080 C   0  0  0  0  0  0  0  0  0  0  0  0
    0.5940   -4.1920  -27.7240 C   0  0  0  0  0  3  0  0  0  0  0  0
    1.8340   -3.9860  -28.3280 C   0  0  0  0  0  3  0  0  0  0  0  0
    2.6640   -5.0710  -28.6280 C   0  0  0  0  0  3  0  0  0  0  0  0
    2.2710   -6.3790  -28.3330 C   0  0  0  0  0  0  0  0  0  0  0  0
    1.0330   -6.5660  -27.7030 C   0  0  0  0  0  3  0  0  0  0  0  0
    3.0540   -7.5080  -28.6070 N   0  0  0  0  0  0  0  0  0  0  0  0
    3.4170   -8.6380  -27.8820 C   0  0  0  0  0  0  0  0  0  0  0  0
    2.6570   -9.1550  -26.8420 C   0  0  0  0  0  3  0  0  0  0  0  0
    3.0840  -10.3120  -26.1760 C   0  0  0  0  0  0  0  0  0  0  0  0
    4.2850  -10.9030  -26.5700 C   0  0  0  0  0  3  0  0  0  0  0  0
    4.9740  -10.3370  -27.6250 C   0  0  0  0  0  3  0  0  0  0  0  0
    4.5560   -9.2380  -28.2880 N   0  0  0  0  0  0  0  0  0  0  0  0
    3.6620   -7.4190  -29.4130 H   0  0  0  0  0  0  0  0  0  0  0  0
    2.2810  -10.8880  -25.0440 C   0  0  0  0  0  0  0  0  0  0  0  0
    2.9510  -11.8560  -24.3580 F   0  0  0  0  0  0  0  0  0  0  0  0
    1.9400   -9.9460  -24.1230 F   0  0  0  0  0  0  0  0  0  0  0  0
    1.1130  -11.4590  -25.4480 F   0  0  0  0  0  0  0  0  0  0  0  0
  1  8  1  0  0  0  0
  2 15  1  0  0  0  0
  3  2  2  0  0  0  0
  4  3  1  0  0  0  0
  5  4  2  0  0  0  0
  5  6  1  0  0  0  0
  6 12  1  0  0  0  0
  7  6  2  0  0  0  0
  7  9  1  0  0  0  0
  8  7  1  0  0  0  0
  9 10  2  0  0  0  0
 10 11  1  0  0  0  0
 12  2  1  0  0  0  0
 12 11  2  0  0  0  0
 13  8  1  0  0  0  0
 14 17  1  0  0  0  0
 15 14  1  0  0  0  0
 15 16  2  0  0  0  0
 18 14  1  0  0  0  0
 19  1  1  0  0  0  0
 20 19  2  0  0  0  0
 21 20  1  0  0  0  0
 22 23  1  0  0  0  0
 22 21  2  0  0  0  0
 23 24  2  0  0  0  0
 24 19  1  0  0  0  0
 25 23  1  0  0  0  0
 25 26  1  0  0  0  0
 26 27  1  0  0  0  0
 27 28  2  0  0  0  0
 28 33  1  0  0  0  0
 29 28  1  0  0  0  0
 30 29  2  0  0  0  0
 31 26  2  0  0  0  0
 31 30  1  0  0  0  0
 32 25  1  0  0  0  0
 33 34  1  0  0  0  0
 33 35  1  0  0  0  0
 36 33  1  0  0  0  0
M  END
>  <minimizedAffinity>
-7.92624569

$$$$

 OpenBabel10152418403D

 36 39  0  0  0  0  0  0  0  0999 V2000
   -2.4660   -8.4180  -23.0720 C   0  0  0  0  0  2  0  0  0  0  0  0
    0.0460   -4.6990  -27.2340 C   0  0  0  0  0  0  0  0  0  0  0  0
    0.0400   -5.5420  -28.3560 C   0  0  0  0  0  3  0  0  0  0  0  0
   -0.4380   -6.8350  -28.2330 C   0  0  0  0  0  3  0  0  0  0  0  0
   -0.9120   -7.2660  -26.9960 C   0  0  0  0  0  3  0  0  0  0  0  0
   -0.9250   -6.4080  -25.8620 C   0  0  0  0  0  0  0  0  0  0  0  0
   -1.4260   -6.7710  -24.5920 C   0  0  0  0  0  0  0  0  0  0  0  0
   -1.9710   -8.0310  -24.3820 N   0  0  0  0  0  0  0  0  0  0  0  0
   -1.3690   -5.9340  -23.5440 N   0  0  0  0  0  0  0  0  0  0  0  0
   -0.8700   -4.7170  -23.7640 C   0  0  0  0  0  3  0  0  0  0  0  0
   -0.4220   -4.2550  -24.9310 N   0  0  0  0  0  0  0  0  0  0  0  0
   -0.4250   -5.0980  -25.9770 C   0  0  0  0  0  0  0  0  0  0  0  0
   -2.4280   -8.4720  -25.1660 H   0  0  0  0  0  0  0  0  0  0  0  0
   -0.2430   -2.3170  -27.0810 N   0  0  0  0  0  0  0  0  0  0  0  0
    0.5950   -3.3430  -27.4170 C   0  0  0  0  0  0  0  0  0  0  0  0
    1.7040   -3.1470  -27.8960 O   0  0  0  0  0  0  0  0  0  0  0  0
    0.1040   -1.3740  -27.1960 H   0  0  0  0  0  0  0  0  0  0  0  0
   -1.1530   -2.4570  -26.6650 H   0  0  0  0  0  0  0  0  0  0  0  0
   -1.7700   -9.6870  -22.6300 C   0  0  0  0  0  0  0  0  0  0  0  0
   -2.2030  -10.4010  -21.5090 C   0  0  0  0  0  3  0  0  0  0  0  0
   -1.5490  -11.5740  -21.1340 C   0  0  0  0  0  3  0  0  0  0  0  0
   -0.4530  -12.0390  -21.8690 C   0  0  0  0  0  3  0  0  0  0  0  0
    0.0100  -11.3420  -22.9880 C   0  0  0  0  0  0  0  0  0  0  0  0
   -0.6750  -10.1790  -23.3650 C   0  0  0  0  0  3  0  0  0  0  0  0
    1.1000  -11.7520  -23.7650 N   0  0  0  0  0  0  0  0  0  0  0  0
    1.8370  -11.1690  -24.7900 C   0  0  0  0  0  0  0  0  0  0  0  0
    1.9660   -9.7970  -24.9530 C   0  0  0  0  0  3  0  0  0  0  0  0
    2.7470   -9.2900  -26.0010 C   0  0  0  0  0  0  0  0  0  0  0  0
    3.3580  -10.1920  -26.8730 C   0  0  0  0  0  3  0  0  0  0  0  0
    3.1940  -11.5420  -26.6330 C   0  0  0  0  0  3  0  0  0  0  0  0
    2.4660  -12.0380  -25.6110 N   0  0  0  0  0  0  0  0  0  0  0  0
    1.2850  -12.7480  -23.7460 H   0  0  0  0  0  0  0  0  0  0  0  0
    2.8980   -7.8080  -26.2000 C   0  0  0  0  0  0  0  0  0  0  0  0
    2.2590   -7.0780  -25.2430 F   0  0  0  0  0  0  0  0  0  0  0  0
    4.2000   -7.4140  -26.1620 F   0  0  0  0  0  0  0  0  0  0  0  0
    2.4060   -7.3710  -27.3910 F   0  0  0  0  0  0  0  0  0  0  0  0
  1 19  1  0  0  0  0
  2 12  1  0  0  0  0
  3  4  1  0  0  0  0
  3  2  2  0  0  0  0
  4  5  2  0  0  0  0
  5  6  1  0  0  0  0
  6  7  1  0  0  0  0
  7  8  1  0  0  0  0
  7  9  2  0  0  0  0
  8  1  1  0  0  0  0
 10  9  1  0  0  0  0
 11 10  2  0  0  0  0
 12  6  2  0  0  0  0
 12 11  1  0  0  0  0
 13  8  1  0  0  0  0
 14 18  1  0  0  0  0
 15  2  1  0  0  0  0
 15 14  1  0  0  0  0
 16 15  2  0  0  0  0
 17 14  1  0  0  0  0
 19 20  1  0  0  0  0
 20 21  2  0  0  0  0
 22 21  1  0  0  0  0
 23 22  2  0  0  0  0
 24 23  1  0  0  0  0
 24 19  2  0  0  0  0
 25 32  1  0  0  0  0
 25 23  1  0  0  0  0
 26 25  1  0  0  0  0
 27 26  1  0  0  0  0
 28 27  2  0  0  0  0
 29 30  2  0  0  0  0
 29 28  1  0  0  0  0
 30 31  1  0  0  0  0
 31 26  2  0  0  0  0
 33 35  1  0  0  0  0
 33 28  1  0  0  0  0
 33 34  1  0  0  0  0
 36 33  1  0  0  0  0
M  END
>  <minimizedAffinity>
-7.23373413

$$$$
