
 OpenBabel10152419243D

 36 39  0  0  0  0  0  0  0  0999 V2000
   10.5790  -11.7790   11.3820 C   0  0  0  0  0  2  0  0  0  0  0  0
    5.5900  -11.7870    7.8430 C   0  0  0  0  0  0  0  0  0  0  0  0
    5.5940  -13.1260    7.4250 C   0  0  0  0  0  3  0  0  0  0  0  0
    6.5990  -13.9720    7.8620 C   0  0  0  0  0  3  0  0  0  0  0  0
    7.5790  -13.4740    8.7150 C   0  0  0  0  0  3  0  0  0  0  0  0
    7.5670  -12.1200    9.1520 C   0  0  0  0  0  0  0  0  0  0  0  0
    8.5150  -11.5640   10.0380 C   0  0  0  0  0  0  0  0  0  0  0  0
    9.5210  -12.3590   10.5740 N   0  0  0  0  0  0  0  0  0  0  0  0
    8.4940  -10.2650   10.3750 N   0  0  0  0  0  0  0  0  0  0  0  0
    7.4970   -9.5290    9.8830 C   0  0  0  0  0  3  0  0  0  0  0  0
    6.5190   -9.9650    9.0870 N   0  0  0  0  0  0  0  0  0  0  0  0
    6.5600  -11.2500    8.6980 C   0  0  0  0  0  0  0  0  0  0  0  0
    9.2580  -13.3050   10.8170 H   0  0  0  0  0  0  0  0  0  0  0  0
    4.7340   -9.5830    7.4170 N   0  0  0  0  0  0  0  0  0  0  0  0
    4.5100  -10.9280    7.3270 C   0  0  0  0  0  0  0  0  0  0  0  0
    3.4550  -11.3880    6.9070 O   0  0  0  0  0  0  0  0  0  0  0  0
    4.0110   -8.9640    7.0750 H   0  0  0  0  0  0  0  0  0  0  0  0
    5.6040   -9.1870    7.7440 H   0  0  0  0  0  0  0  0  0  0  0  0
    9.9780  -10.7020   12.2560 C   0  0  0  0  0  0  0  0  0  0  0  0
   10.7790   -9.8570   13.0260 C   0  0  0  0  0  3  0  0  0  0  0  0
   10.1880   -8.9040   13.8540 C   0  0  0  0  0  3  0  0  0  0  0  0
    8.7950   -8.7950   13.9250 C   0  0  0  0  0  3  0  0  0  0  0  0
    7.9670   -9.6370   13.1790 C   0  0  0  0  0  0  0  0  0  0  0  0
    8.5790  -10.5820   12.3430 C   0  0  0  0  0  3  0  0  0  0  0  0
    6.5690   -9.5670   13.1830 N   0  0  0  0  0  0  0  0  0  0  0  0
    5.5370  -10.3860   12.7420 C   0  0  0  0  0  0  0  0  0  0  0  0
    5.6800  -11.7430   12.4880 C   0  0  0  0  0  3  0  0  0  0  0  0
    4.5750  -12.4930   12.0610 C   0  0  0  0  0  0  0  0  0  0  0  0
    3.3520  -11.8450   11.8940 C   0  0  0  0  0  3  0  0  0  0  0  0
    3.2850  -10.4980   12.1870 C   0  0  0  0  0  3  0  0  0  0  0  0
    4.3410   -9.7710   12.6100 N   0  0  0  0  0  0  0  0  0  0  0  0
    6.1850   -8.6620   13.4340 H   0  0  0  0  0  0  0  0  0  0  0  0
    4.7190  -13.9590   11.7570 C   0  0  0  0  0  0  0  0  0  0  0  0
    4.6600  -14.7430   12.8690 F   0  0  0  0  0  0  0  0  0  0  0  0
    3.7400  -14.4120   10.9280 F   0  0  0  0  0  0  0  0  0  0  0  0
    5.8980  -14.2660   11.1480 F   0  0  0  0  0  0  0  0  0  0  0  0
  1 19  1  0  0  0  0
  2 12  1  0  0  0  0
  3  2  2  0  0  0  0
  3  4  1  0  0  0  0
  4  5  2  0  0  0  0
  5  6  1  0  0  0  0
  6  7  1  0  0  0  0
  7  9  2  0  0  0  0
  7  8  1  0  0  0  0
  8 13  1  0  0  0  0
  8  1  1  0  0  0  0
 10  9  1  0  0  0  0
 11 10  2  0  0  0  0
 12 11  1  0  0  0  0
 12  6  2  0  0  0  0
 14 18  1  0  0  0  0
 15 14  1  0  0  0  0
 15  2  1  0  0  0  0
 16 15  2  0  0  0  0
 17 14  1  0  0  0  0
 19 24  2  0  0  0  0
 19 20  1  0  0  0  0
 20 21  2  0  0  0  0
 21 22  1  0  0  0  0
 23 25  1  0  0  0  0
 23 22  2  0  0  0  0
 24 23  1  0  0  0  0
 25 32  1  0  0  0  0
 26 25  1  0  0  0  0
 27 26  2  0  0  0  0
 28 27  1  0  0  0  0
 29 28  2  0  0  0  0
 29 30  1  0  0  0  0
 30 31  2  0  0  0  0
 31 26  1  0  0  0  0
 33 28  1  0  0  0  0
 33 34  1  0  0  0  0
 35 33  1  0  0  0  0
 36 33  1  0  0  0  0
M  END
>  <minimizedAffinity>
61.2936096

$$$$
