
 OpenBabel11232419203D

 35 39  0  0  1  0  0  0  0  0999 V2000
   20.4590   62.6680   20.5590 O   0  0  0  0  0  0  0  0  0  0  0  0
   20.3800   66.0670   19.0740 C   0  0  0  0  0  0  0  0  0  0  0  0
   19.8100   66.6950   20.1760 C   0  0  0  0  0  3  0  0  0  0  0  0
   19.5350   66.0680   21.3440 N   0  0  0  0  0  0  0  0  0  0  0  0
   19.8300   64.7520   21.4210 C   0  0  0  0  0  3  0  0  0  0  0  0
   20.3740   64.0160   20.3760 C   0  0  0  0  0  0  0  0  0  0  0  0
   20.6990   64.7070   19.2150 C   0  0  0  0  0  3  0  0  0  0  0  0
   24.0770   69.2650   15.8960 C   0  0  0  0  0  1  0  0  0  0  0  0
   22.7280   68.8100   15.4780 C   0  0  0  0  0  0  0  0  0  0  0  0
   22.2740   69.1090   14.2560 N   0  0  0  0  0  0  0  0  0  0  0  0
   21.0600   68.5410   14.2060 N   0  0  0  0  0  0  0  0  0  0  0  0
   20.7180   67.8670   15.3450 C   0  0  0  0  0  0  0  0  0  0  0  0
   19.5930   67.1350   15.6850 C   0  0  0  0  0  3  0  0  0  0  0  0
   19.5360   66.5530   16.9100 N   0  0  0  0  0  0  0  0  0  0  0  0
   20.5720   66.7340   17.7850 C   0  0  0  0  0  0  0  0  0  0  0  0
   21.7210   67.4650   17.4880 C   0  0  0  0  0  3  0  0  0  0  0  0
   21.7880   68.0380   16.2130 C   0  0  0  0  0  0  0  0  0  0  0  0
   20.5220   68.6470   13.3530 H   0  0  0  0  0  0  0  0  0  0  0  0
   21.1580   62.1540   21.6990 C   0  0  0  0  0  2  0  0  0  0  0  0
   22.6450   61.8740   21.3760 C   0  0  1  0  0  3  0  0  0  0  0  0
   22.8180   61.5310   19.9160 N   0  0  0  0  0  4  0  0  0  0  0  0
   22.5040   62.2740   19.2730 H   0  0  0  0  0  0  0  0  0  0  0  0
   23.7970   61.3150   19.6870 H   0  0  0  0  0  0  0  0  0  0  0  0
   22.2750   60.6890   19.6790 H   0  0  0  0  0  0  0  0  0  0  0  0
   23.5450   63.0750   21.7000 C   0  0  0  0  0  2  0  0  0  0  0  0
   23.9930   63.8860   20.5240 C   0  0  0  0  0  0  0  0  0  0  0  0
   24.5380   63.4640   19.3250 C   0  0  0  0  0  3  0  0  0  0  0  0
   24.7760   64.5670   18.5420 N   0  0  0  0  0  0  0  0  0  0  0  0
   24.3850   65.7070   19.1990 C   0  0  0  0  0  0  0  0  0  0  0  0
   24.4260   67.0420   18.7810 C   0  0  0  0  0  3  0  0  0  0  0  0
   23.9540   68.0130   19.6680 C   0  0  0  0  0  3  0  0  0  0  0  0
   23.4670   67.6610   20.9240 C   0  0  0  0  0  3  0  0  0  0  0  0
   23.4350   66.3200   21.3250 C   0  0  0  0  0  3  0  0  0  0  0  0
   23.9000   65.3190   20.4460 C   0  0  0  0  0  0  0  0  0  0  0  0
   25.1730   64.5530   17.6110 H   0  0  0  0  0  0  0  0  0  0  0  0
  1 19  1  0  0  0  0
  2  7  2  0  0  0  0
  2  3  1  0  0  0  0
  3  4  2  0  0  0  0
  4  5  1  0  0  0  0
  6  1  1  0  0  0  0
  6  5  2  0  0  0  0
  7  6  1  0  0  0  0
  9  8  1  0  0  0  0
  9 17  1  0  0  0  0
 10  9  2  0  0  0  0
 11 10  1  0  0  0  0
 11 12  1  0  0  0  0
 12 13  2  0  0  0  0
 12 17  1  0  0  0  0
 13 14  1  0  0  0  0
 14 15  2  0  0  0  0
 15  2  1  0  0  0  0
 16 15  1  0  0  0  0
 17 16  2  0  0  0  0
 18 11  1  0  0  0  0
 20 19  1  6  0  0  0
 20 25  1  0  0  0  0
 21 20  1  0  0  0  0
 22 21  1  0  0  0  0
 23 21  1  0  0  0  0
 24 21  1  0  0  0  0
 26 25  1  0  0  0  0
 27 26  2  0  0  0  0
 28 29  1  0  0  0  0
 28 27  1  0  0  0  0
 29 34  1  0  0  0  0
 30 29  2  0  0  0  0
 30 31  1  0  0  0  0
 31 32  2  0  0  0  0
 32 33  1  0  0  0  0
 34 26  1  0  0  0  0
 34 33  2  0  0  0  0
 35 28  1  0  0  0  0
M  END
>  <minimizedAffinity>
-0.546378553

$$$$

 OpenBabel11232419203D

 35 39  0  0  1  0  0  0  0  0999 V2000
   24.9190   68.2670   18.0900 O   0  0  0  0  0  0  0  0  0  0  0  0
   21.7600   67.0590   16.5660 C   0  0  0  0  0  0  0  0  0  0  0  0
   20.9790   68.1340   16.9750 C   0  0  0  0  0  3  0  0  0  0  0  0
   21.4640   69.2090   17.6410 N   0  0  0  0  0  0  0  0  0  0  0  0
   22.7850   69.2150   17.9240 C   0  0  0  0  0  3  0  0  0  0  0  0
   23.6540   68.1840   17.5910 C   0  0  0  0  0  0  0  0  0  0  0  0
   23.1320   67.1270   16.8540 C   0  0  0  0  0  3  0  0  0  0  0  0
   22.1920   61.2540   16.2310 C   0  0  0  0  0  1  0  0  0  0  0  0
   21.2260   62.1060   15.4950 C   0  0  0  0  0  0  0  0  0  0  0  0
   20.3260   61.5410   14.6820 N   0  0  0  0  0  0  0  0  0  0  0  0
   19.6170   62.5740   14.2050 N   0  0  0  0  0  0  0  0  0  0  0  0
   20.0130   63.7890   14.6930 C   0  0  0  0  0  0  0  0  0  0  0  0
   19.5350   65.0710   14.4820 C   0  0  0  0  0  3  0  0  0  0  0  0
   20.1300   66.1050   15.1280 N   0  0  0  0  0  0  0  0  0  0  0  0
   21.2030   65.8580   15.9420 C   0  0  0  0  0  0  0  0  0  0  0  0
   21.7190   64.5860   16.1810 C   0  0  0  0  0  3  0  0  0  0  0  0
   21.0830   63.5190   15.5350 C   0  0  0  0  0  0  0  0  0  0  0  0
   18.8680   62.3740   13.5520 H   0  0  0  0  0  0  0  0  0  0  0  0
   25.2100   69.2240   19.1170 C   0  0  0  0  0  2  0  0  0  0  0  0
   25.3750   68.5440   20.4970 C   0  0  1  0  0  3  0  0  0  0  0  0
   26.6570   68.9890   21.1600 N   0  0  0  0  0  4  0  0  0  0  0  0
   26.7150   70.0060   21.3150 H   0  0  0  0  0  0  0  0  0  0  0  0
   26.7990   68.5260   22.0670 H   0  0  0  0  0  0  0  0  0  0  0  0
   27.4690   68.7330   20.5780 H   0  0  0  0  0  0  0  0  0  0  0  0
   24.2080   68.8600   21.4430 C   0  0  0  0  0  2  0  0  0  0  0  0
   22.9200   68.1570   21.1430 C   0  0  0  0  0  0  0  0  0  0  0  0
   21.6240   68.6330   21.2190 C   0  0  0  0  0  3  0  0  0  0  0  0
   20.7680   67.6320   20.8290 N   0  0  0  0  0  0  0  0  0  0  0  0
   21.4790   66.5100   20.4860 C   0  0  0  0  0  0  0  0  0  0  0  0
   21.0280   65.2690   20.0210 C   0  0  0  0  0  3  0  0  0  0  0  0
   21.9890   64.2920   19.7440 C   0  0  0  0  0  3  0  0  0  0  0  0
   23.3440   64.5470   19.9320 C   0  0  0  0  0  3  0  0  0  0  0  0
   23.7770   65.7930   20.3990 C   0  0  0  0  0  3  0  0  0  0  0  0
   22.8280   66.8000   20.6800 C   0  0  0  0  0  0  0  0  0  0  0  0
   19.7600   67.7030   20.7880 H   0  0  0  0  0  0  0  0  0  0  0  0
  1 19  1  0  0  0  0
  2  7  2  0  0  0  0
  2  3  1  0  0  0  0
  3  4  2  0  0  0  0
  4  5  1  0  0  0  0
  6  5  2  0  0  0  0
  6  1  1  0  0  0  0
  7  6  1  0  0  0  0
  9 17  1  0  0  0  0
  9  8  1  0  0  0  0
 10  9  2  0  0  0  0
 11 10  1  0  0  0  0
 11 12  1  0  0  0  0
 12 17  1  0  0  0  0
 13 12  2  0  0  0  0
 13 14  1  0  0  0  0
 14 15  2  0  0  0  0
 15 16  1  0  0  0  0
 15  2  1  0  0  0  0
 17 16  2  0  0  0  0
 18 11  1  0  0  0  0
 20 19  1  6  0  0  0
 20 21  1  0  0  0  0
 20 25  1  0  0  0  0
 21 22  1  0  0  0  0
 21 23  1  0  0  0  0
 24 21  1  0  0  0  0
 26 27  2  0  0  0  0
 26 25  1  0  0  0  0
 28 27  1  0  0  0  0
 29 34  1  0  0  0  0
 29 28  1  0  0  0  0
 30 29  2  0  0  0  0
 31 32  2  0  0  0  0
 31 30  1  0  0  0  0
 32 33  1  0  0  0  0
 33 34  2  0  0  0  0
 34 26  1  0  0  0  0
 35 28  1  0  0  0  0
M  END
>  <minimizedAffinity>
1.26315737

$$$$
