
 OpenBabel11232419203D

 35 39  0  0  1  0  0  0  0  0999 V2000
   24.9190   68.2670   18.0900 O   0  0  0  0  0  0  0  0  0  0  0  0
   21.7600   67.0590   16.5660 C   0  0  0  0  0  0  0  0  0  0  0  0
   20.9790   68.1340   16.9750 C   0  0  0  0  0  3  0  0  0  0  0  0
   21.4640   69.2090   17.6410 N   0  0  0  0  0  0  0  0  0  0  0  0
   22.7850   69.2150   17.9240 C   0  0  0  0  0  3  0  0  0  0  0  0
   23.6540   68.1840   17.5910 C   0  0  0  0  0  0  0  0  0  0  0  0
   23.1320   67.1270   16.8540 C   0  0  0  0  0  3  0  0  0  0  0  0
   22.1920   61.2540   16.2310 C   0  0  0  0  0  1  0  0  0  0  0  0
   21.2260   62.1060   15.4950 C   0  0  0  0  0  0  0  0  0  0  0  0
   20.3260   61.5410   14.6820 N   0  0  0  0  0  0  0  0  0  0  0  0
   19.6170   62.5740   14.2050 N   0  0  0  0  0  0  0  0  0  0  0  0
   20.0130   63.7890   14.6930 C   0  0  0  0  0  0  0  0  0  0  0  0
   19.5350   65.0710   14.4820 C   0  0  0  0  0  3  0  0  0  0  0  0
   20.1300   66.1050   15.1280 N   0  0  0  0  0  0  0  0  0  0  0  0
   21.2030   65.8580   15.9420 C   0  0  0  0  0  0  0  0  0  0  0  0
   21.7190   64.5860   16.1810 C   0  0  0  0  0  3  0  0  0  0  0  0
   21.0830   63.5190   15.5350 C   0  0  0  0  0  0  0  0  0  0  0  0
   18.8680   62.3740   13.5520 H   0  0  0  0  0  0  0  0  0  0  0  0
   25.2100   69.2240   19.1170 C   0  0  0  0  0  2  0  0  0  0  0  0
   25.3750   68.5440   20.4970 C   0  0  1  0  0  3  0  0  0  0  0  0
   26.6570   68.9890   21.1600 N   0  0  0  0  0  4  0  0  0  0  0  0
   26.7150   70.0060   21.3150 H   0  0  0  0  0  0  0  0  0  0  0  0
   26.7990   68.5260   22.0670 H   0  0  0  0  0  0  0  0  0  0  0  0
   27.4690   68.7330   20.5780 H   0  0  0  0  0  0  0  0  0  0  0  0
   24.2080   68.8600   21.4430 C   0  0  0  0  0  2  0  0  0  0  0  0
   22.9200   68.1570   21.1430 C   0  0  0  0  0  0  0  0  0  0  0  0
   21.6240   68.6330   21.2190 C   0  0  0  0  0  3  0  0  0  0  0  0
   20.7680   67.6320   20.8290 N   0  0  0  0  0  0  0  0  0  0  0  0
   21.4790   66.5100   20.4860 C   0  0  0  0  0  0  0  0  0  0  0  0
   21.0280   65.2690   20.0210 C   0  0  0  0  0  3  0  0  0  0  0  0
   21.9890   64.2920   19.7440 C   0  0  0  0  0  3  0  0  0  0  0  0
   23.3440   64.5470   19.9320 C   0  0  0  0  0  3  0  0  0  0  0  0
   23.7770   65.7930   20.3990 C   0  0  0  0  0  3  0  0  0  0  0  0
   22.8280   66.8000   20.6800 C   0  0  0  0  0  0  0  0  0  0  0  0
   19.7600   67.7030   20.7880 H   0  0  0  0  0  0  0  0  0  0  0  0
  1 19  1  0  0  0  0
  2  7  2  0  0  0  0
  2  3  1  0  0  0  0
  3  4  2  0  0  0  0
  4  5  1  0  0  0  0
  6  5  2  0  0  0  0
  6  1  1  0  0  0  0
  7  6  1  0  0  0  0
  9 17  1  0  0  0  0
  9  8  1  0  0  0  0
 10  9  2  0  0  0  0
 11 10  1  0  0  0  0
 11 12  1  0  0  0  0
 12 17  1  0  0  0  0
 13 12  2  0  0  0  0
 13 14  1  0  0  0  0
 14 15  2  0  0  0  0
 15 16  1  0  0  0  0
 15  2  1  0  0  0  0
 17 16  2  0  0  0  0
 18 11  1  0  0  0  0
 20 19  1  6  0  0  0
 20 21  1  0  0  0  0
 20 25  1  0  0  0  0
 21 22  1  0  0  0  0
 21 23  1  0  0  0  0
 24 21  1  0  0  0  0
 26 27  2  0  0  0  0
 26 25  1  0  0  0  0
 28 27  1  0  0  0  0
 29 34  1  0  0  0  0
 29 28  1  0  0  0  0
 30 29  2  0  0  0  0
 31 32  2  0  0  0  0
 31 30  1  0  0  0  0
 32 33  1  0  0  0  0
 33 34  2  0  0  0  0
 34 26  1  0  0  0  0
 35 28  1  0  0  0  0
M  END
>  <minimizedAffinity>
1.26315737

$$$$
