
 OpenBabel11232420083D

 39 45  0  0  1  0  0  0  0  0999 V2000
    0.2700    6.4210   -6.4220 C   0  0  0  0  0  0  0  0  0  0  0  0
    1.4440    5.9050   -6.9300 N   0  0  0  0  0  0  0  0  0  0  0  0
    2.3890    6.7450   -6.5780 C   0  0  0  0  0  0  0  0  0  0  0  0
    1.8680    7.7720   -5.8400 N   0  0  0  0  0  0  0  0  0  0  0  0
    0.5100    7.5890   -5.7070 C   0  0  0  0  0  0  0  0  0  0  0  0
    2.7280    8.7610   -5.2190 C   0  0  0  0  0  2  0  0  0  0  0  0
    3.9460    8.9900   -5.9600 O   0  0  0  0  0  0  0  0  0  0  0  0
    4.5320    7.8850   -6.5300 C   0  0  0  0  0  0  0  0  0  0  0  0
    5.8900    7.9790   -6.8340 C   0  0  0  0  0  3  0  0  0  0  0  0
    6.5400    6.9070   -7.4480 C   0  0  0  0  0  3  0  0  0  0  0  0
    5.8270    5.7500   -7.7660 C   0  0  0  0  0  3  0  0  0  0  0  0
    4.4650    5.6710   -7.4770 C   0  0  0  0  0  0  0  0  0  0  0  0
    3.8120    4.5470   -7.8050 F   0  0  0  0  0  0  0  0  0  0  0  0
    3.8050    6.7350   -6.8640 C   0  0  0  0  0  0  0  0  0  0  0  0
   -0.3510    8.4580   -4.9170 C   0  0  0  0  0  0  0  0  0  0  0  0
   -0.2620    8.4650   -3.5190 C   0  0  0  0  0  3  0  0  0  0  0  0
   -1.0930    9.2960   -2.7670 C   0  0  0  0  0  3  0  0  0  0  0  0
   -2.0150   10.1240   -3.4060 C   0  0  0  0  0  3  0  0  0  0  0  0
   -2.1070   10.1250   -4.7970 C   0  0  0  0  0  3  0  0  0  0  0  0
   -1.2750    9.2960   -5.5510 C   0  0  0  0  0  3  0  0  0  0  0  0
   -3.3410    4.1910   -7.2080 C   0  0  0  0  0  0  0  0  0  0  0  0
   -2.5310    3.9500   -6.0810 C   0  0  0  0  0  3  0  0  0  0  0  0
   -1.3830    4.7050   -5.8210 C   0  0  0  0  0  3  0  0  0  0  0  0
   -0.9970    5.7480   -6.6690 C   0  0  0  0  0  0  0  0  0  0  0  0
   -1.8030    6.0310   -7.7710 C   0  0  0  0  0  3  0  0  0  0  0  0
   -2.9530    5.2710   -8.0280 C   0  0  0  0  0  3  0  0  0  0  0  0
   -4.5840    3.2850   -7.5500 C   0  0  2  0  0  0  0  0  0  0  0  0
   -5.8240    3.3120   -6.6120 C   0  0  0  0  0  2  0  0  0  0  0  0
   -6.0480    1.7990   -6.9600 C   0  0  1  0  0  0  0  0  0  0  0  0
   -4.5060    1.7590   -7.2410 C   0  0  0  0  0  2  0  0  0  0  0  0
   -4.9750    3.5410   -8.9580 N   0  0  0  0  0  4  0  0  0  0  0  0
   -5.2330    4.5220   -9.1090 H   0  0  0  0  0  0  0  0  0  0  0  0
   -5.8010    2.9610   -9.2020 H   0  0  0  0  0  0  0  0  0  0  0  0
   -4.2240    3.3100   -9.6160 H   0  0  0  0  0  0  0  0  0  0  0  0
   -6.6180    0.9510   -5.8390 C   0  0  0  0  0  3  0  0  0  0  0  0
   -7.9990    1.1390   -5.2740 C   0  0  0  0  0  2  0  0  0  0  0  0
   -7.6500   -0.1310   -5.9990 C   0  0  0  0  0  2  0  0  0  0  0  0
   -6.7920    1.6460   -8.2060 O   0  0  0  0  0  0  0  0  0  0  0  0
   -7.1790    0.7470   -8.1520 H   0  0  0  0  0  0  0  0  0  0  0  0
  1  5  2  0  0  0  0
  2  3  2  0  0  0  0
  2  1  1  0  0  0  0
  3  4  1  0  0  0  0
  4  5  1  0  0  0  0
  4  6  1  0  0  0  0
  5 15  1  0  0  0  0
  7  6  1  0  0  0  0
  8  7  1  0  0  0  0
  9  8  1  0  0  0  0
 10  9  2  0  0  0  0
 11 12  2  0  0  0  0
 11 10  1  0  0  0  0
 12 14  1  0  0  0  0
 13 12  1  0  0  0  0
 14  3  1  0  0  0  0
 14  8  2  0  0  0  0
 15 16  1  0  0  0  0
 16 17  2  0  0  0  0
 18 17  1  0  0  0  0
 19 18  2  0  0  0  0
 20 15  2  0  0  0  0
 20 19  1  0  0  0  0
 21 22  1  0  0  0  0
 22 23  2  0  0  0  0
 24  1  1  0  0  0  0
 24 23  1  0  0  0  0
 25 24  2  0  0  0  0
 26 25  1  0  0  0  0
 26 21  2  0  0  0  0
 27 31  1  6  0  0  0
 27 30  1  0  0  0  0
 27 21  1  0  0  0  0
 27 28  1  0  0  0  0
 29 38  1  6  0  0  0
 29 28  1  0  0  0  0
 29 35  1  0  0  0  0
 30 29  1  0  0  0  0
 32 31  1  0  0  0  0
 33 31  1  0  0  0  0
 34 31  1  0  0  0  0
 35 36  1  0  0  0  0
 37 35  1  0  0  0  0
 37 36  1  0  0  0  0
 38 39  1  0  0  0  0
M  END
>  <minimizedAffinity>
-12.6301451

$$$$
