
 OpenBabel11232420083D

 39 45  0  0  1  0  0  0  0  0999 V2000
    1.7080    5.8690   -7.1430 C   0  0  0  0  0  0  0  0  0  0  0  0
    1.8230    6.9930   -6.3520 N   0  0  0  0  0  0  0  0  0  0  0  0
    3.1050    7.2620   -6.2910 C   0  0  0  0  0  0  0  0  0  0  0  0
    3.8200    6.3650   -7.0360 N   0  0  0  0  0  0  0  0  0  0  0  0
    2.9540    5.4630   -7.6110 C   0  0  0  0  0  0  0  0  0  0  0  0
    5.2470    6.5270   -7.2390 C   0  0  0  0  0  2  0  0  0  0  0  0
    5.9000    7.1820   -6.1310 O   0  0  0  0  0  0  0  0  0  0  0  0
    5.2090    8.2070   -5.5320 C   0  0  0  0  0  0  0  0  0  0  0  0
    5.9590    9.1330   -4.8050 C   0  0  0  0  0  3  0  0  0  0  0  0
    5.3160   10.1800   -4.1420 C   0  0  0  0  0  3  0  0  0  0  0  0
    3.9260   10.2890   -4.1970 C   0  0  0  0  0  3  0  0  0  0  0  0
    3.1810    9.3490   -4.9080 C   0  0  0  0  0  0  0  0  0  0  0  0
    1.8470    9.4820   -4.9310 F   0  0  0  0  0  0  0  0  0  0  0  0
    3.8120    8.2990   -5.5750 C   0  0  0  0  0  0  0  0  0  0  0  0
    3.3690    4.4120   -8.5290 C   0  0  0  0  0  0  0  0  0  0  0  0
    4.2680    3.4210   -8.1140 C   0  0  0  0  0  3  0  0  0  0  0  0
    4.6670    2.4200   -9.0000 C   0  0  0  0  0  3  0  0  0  0  0  0
    4.1710    2.4020  -10.3020 C   0  0  0  0  0  3  0  0  0  0  0  0
    3.2740    3.3830  -10.7210 C   0  0  0  0  0  3  0  0  0  0  0  0
    2.8720    4.3850   -9.8370 C   0  0  0  0  0  3  0  0  0  0  0  0
   -2.2390    4.1850   -7.6110 C   0  0  0  0  0  0  0  0  0  0  0  0
   -2.0030    5.5750   -7.5990 C   0  0  0  0  0  3  0  0  0  0  0  0
   -0.7140    6.1040   -7.4830 C   0  0  0  0  0  3  0  0  0  0  0  0
    0.4040    5.2700   -7.3850 C   0  0  0  0  0  0  0  0  0  0  0  0
    0.2000    3.8910   -7.4330 C   0  0  0  0  0  3  0  0  0  0  0  0
   -1.0940    3.3640   -7.5490 C   0  0  0  0  0  3  0  0  0  0  0  0
   -3.6960    3.5880   -7.6530 C   0  0  2  0  0  0  0  0  0  0  0  0
   -4.7590    4.1080   -6.6430 C   0  0  0  0  0  2  0  0  0  0  0  0
   -5.3830    2.6680   -6.6480 C   0  0  1  0  0  0  0  0  0  0  0  0
   -3.9450    2.1770   -7.0390 C   0  0  0  0  0  2  0  0  0  0  0  0
   -4.1970    3.6770   -9.0470 N   0  0  0  0  0  4  0  0  0  0  0  0
   -4.2300    4.6480   -9.3780 H   0  0  0  0  0  0  0  0  0  0  0  0
   -5.1630    3.2990   -9.0960 H   0  0  0  0  0  0  0  0  0  0  0  0
   -3.6160    3.1430   -9.7020 H   0  0  0  0  0  0  0  0  0  0  0  0
   -5.9850    2.2160   -5.3320 C   0  0  0  0  0  3  0  0  0  0  0  0
   -7.0670    2.9730   -4.6100 C   0  0  0  0  0  2  0  0  0  0  0  0
   -7.3470    1.6010   -5.1600 C   0  0  0  0  0  2  0  0  0  0  0  0
   -6.2990    2.4910   -7.7700 O   0  0  0  0  0  0  0  0  0  0  0  0
   -6.8800    1.7500   -7.4970 H   0  0  0  0  0  0  0  0  0  0  0  0
  1  2  1  0  0  0  0
  2  3  2  0  0  0  0
  3 14  1  0  0  0  0
  4  3  1  0  0  0  0
  5  1  2  0  0  0  0
  5  4  1  0  0  0  0
  6  4  1  0  0  0  0
  6  7  1  0  0  0  0
  7  8  1  0  0  0  0
  8  9  1  0  0  0  0
  9 10  2  0  0  0  0
 11 10  1  0  0  0  0
 12 11  2  0  0  0  0
 13 12  1  0  0  0  0
 14  8  2  0  0  0  0
 14 12  1  0  0  0  0
 15 16  1  0  0  0  0
 15  5  1  0  0  0  0
 17 16  2  0  0  0  0
 18 17  1  0  0  0  0
 19 18  2  0  0  0  0
 19 20  1  0  0  0  0
 20 15  2  0  0  0  0
 21 22  2  0  0  0  0
 21 26  1  0  0  0  0
 22 23  1  0  0  0  0
 23 24  2  0  0  0  0
 24  1  1  0  0  0  0
 25 24  1  0  0  0  0
 26 25  2  0  0  0  0
 27 31  1  6  0  0  0
 27 21  1  0  0  0  0
 27 30  1  0  0  0  0
 27 28  1  0  0  0  0
 29 38  1  6  0  0  0
 29 28  1  0  0  0  0
 29 35  1  0  0  0  0
 30 29  1  0  0  0  0
 32 31  1  0  0  0  0
 33 31  1  0  0  0  0
 34 31  1  0  0  0  0
 35 37  1  0  0  0  0
 35 36  1  0  0  0  0
 37 36  1  0  0  0  0
 38 39  1  0  0  0  0
M  END
>  <minimizedAffinity>
-10.7079582

$$$$
