
 OpenBabel11232420083D

 39 45  0  0  1  0  0  0  0  0999 V2000
    1.0730    6.3860   -6.4450 C   0  0  0  0  0  0  0  0  0  0  0  0
    1.3010    7.4260   -5.5670 N   0  0  0  0  0  0  0  0  0  0  0  0
    2.5850    7.6860   -5.6410 C   0  0  0  0  0  0  0  0  0  0  0  0
    3.1890    6.8650   -6.5540 N   0  0  0  0  0  0  0  0  0  0  0  0
    2.2450    6.0260   -7.1020 C   0  0  0  0  0  0  0  0  0  0  0  0
    4.5820    7.0440   -6.9170 C   0  0  0  0  0  2  0  0  0  0  0  0
    5.3770    7.5850   -5.8400 O   0  0  0  0  0  0  0  0  0  0  0  0
    4.7800    8.5470   -5.0620 C   0  0  0  0  0  0  0  0  0  0  0  0
    5.6270    9.3950   -4.3480 C   0  0  0  0  0  3  0  0  0  0  0  0
    5.0870   10.3720   -3.5100 C   0  0  0  0  0  3  0  0  0  0  0  0
    3.7020   10.4890   -3.3800 C   0  0  0  0  0  3  0  0  0  0  0  0
    2.8620    9.6250   -4.0810 C   0  0  0  0  0  0  0  0  0  0  0  0
    1.5370    9.7620   -3.9240 F   0  0  0  0  0  0  0  0  0  0  0  0
    3.3900    8.6450   -4.9210 C   0  0  0  0  0  0  0  0  0  0  0  0
    2.5290    5.0710   -8.1640 C   0  0  0  0  0  0  0  0  0  0  0  0
    1.4860    4.3810   -8.7950 C   0  0  0  0  0  3  0  0  0  0  0  0
    1.7630    3.4640   -9.8090 C   0  0  0  0  0  3  0  0  0  0  0  0
    3.0810    3.2300  -10.1970 C   0  0  0  0  0  3  0  0  0  0  0  0
    4.1240    3.9150   -9.5750 C   0  0  0  0  0  3  0  0  0  0  0  0
    3.8490    4.8350   -8.5620 C   0  0  0  0  0  3  0  0  0  0  0  0
   -2.7600    4.4710   -6.9610 C   0  0  0  0  0  0  0  0  0  0  0  0
   -1.7950    4.0020   -6.0480 C   0  0  0  0  0  3  0  0  0  0  0  0
   -0.5720    4.6550   -5.8660 C   0  0  0  0  0  3  0  0  0  0  0  0
   -0.2590    5.8160   -6.5800 C   0  0  0  0  0  0  0  0  0  0  0  0
   -1.2130    6.3210   -7.4620 C   0  0  0  0  0  3  0  0  0  0  0  0
   -2.4390    5.6640   -7.6420 C   0  0  0  0  0  3  0  0  0  0  0  0
   -4.1010    3.6880   -7.2310 C   0  0  2  0  0  0  0  0  0  0  0  0
   -5.3470    3.9890   -6.3510 C   0  0  0  0  0  2  0  0  0  0  0  0
   -5.7540    2.4830   -6.5130 C   0  0  1  0  0  0  0  0  0  0  0  0
   -4.2230    2.2170   -6.7290 C   0  0  0  0  0  2  0  0  0  0  0  0
   -4.4260    3.8040   -8.6740 N   0  0  0  0  0  4  0  0  0  0  0  0
   -4.5540    4.7820   -8.9580 H   0  0  0  0  0  0  0  0  0  0  0  0
   -5.3130    3.3030   -8.8740 H   0  0  0  0  0  0  0  0  0  0  0  0
   -3.6960    3.3990   -9.2700 H   0  0  0  0  0  0  0  0  0  0  0  0
   -6.4500    1.8660   -5.3160 C   0  0  0  0  0  3  0  0  0  0  0  0
   -7.8380    2.2420   -4.8770 C   0  0  0  0  0  2  0  0  0  0  0  0
   -7.5590    0.8510   -5.3770 C   0  0  0  0  0  2  0  0  0  0  0  0
   -6.4840    2.2620   -7.7570 O   0  0  0  0  0  0  0  0  0  0  0  0
   -6.9830    1.4320   -7.6040 H   0  0  0  0  0  0  0  0  0  0  0  0
  1  2  1  0  0  0  0
  3  2  2  0  0  0  0
  3 14  1  0  0  0  0
  4  3  1  0  0  0  0
  5  4  1  0  0  0  0
  5  1  2  0  0  0  0
  6  4  1  0  0  0  0
  6  7  1  0  0  0  0
  7  8  1  0  0  0  0
  8 14  2  0  0  0  0
  8  9  1  0  0  0  0
  9 10  2  0  0  0  0
 10 11  1  0  0  0  0
 12 13  1  0  0  0  0
 12 11  2  0  0  0  0
 14 12  1  0  0  0  0
 15  5  1  0  0  0  0
 16 15  2  0  0  0  0
 17 16  1  0  0  0  0
 18 17  2  0  0  0  0
 18 19  1  0  0  0  0
 19 20  2  0  0  0  0
 20 15  1  0  0  0  0
 21 22  1  0  0  0  0
 22 23  2  0  0  0  0
 24  1  1  0  0  0  0
 24 23  1  0  0  0  0
 25 24  2  0  0  0  0
 26 25  1  0  0  0  0
 26 21  2  0  0  0  0
 27 31  1  6  0  0  0
 27 21  1  0  0  0  0
 27 30  1  0  0  0  0
 27 28  1  0  0  0  0
 29 38  1  6  0  0  0
 29 28  1  0  0  0  0
 29 35  1  0  0  0  0
 30 29  1  0  0  0  0
 32 31  1  0  0  0  0
 33 31  1  0  0  0  0
 34 31  1  0  0  0  0
 35 36  1  0  0  0  0
 37 35  1  0  0  0  0
 37 36  1  0  0  0  0
 38 39  1  0  0  0  0
M  END
>  <minimizedAffinity>
-10.942585

$$$$
