
 OpenBabel11232420083D

 39 45  0  0  1  0  0  0  0  0999 V2000
    0.2700    6.4210   -6.4220 C   0  0  0  0  0  0  0  0  0  0  0  0
    1.4440    5.9050   -6.9300 N   0  0  0  0  0  0  0  0  0  0  0  0
    2.3890    6.7450   -6.5780 C   0  0  0  0  0  0  0  0  0  0  0  0
    1.8680    7.7720   -5.8400 N   0  0  0  0  0  0  0  0  0  0  0  0
    0.5100    7.5890   -5.7070 C   0  0  0  0  0  0  0  0  0  0  0  0
    2.7280    8.7610   -5.2190 C   0  0  0  0  0  2  0  0  0  0  0  0
    3.9460    8.9900   -5.9600 O   0  0  0  0  0  0  0  0  0  0  0  0
    4.5320    7.8850   -6.5300 C   0  0  0  0  0  0  0  0  0  0  0  0
    5.8900    7.9790   -6.8340 C   0  0  0  0  0  3  0  0  0  0  0  0
    6.5400    6.9070   -7.4480 C   0  0  0  0  0  3  0  0  0  0  0  0
    5.8270    5.7500   -7.7660 C   0  0  0  0  0  3  0  0  0  0  0  0
    4.4650    5.6710   -7.4770 C   0  0  0  0  0  0  0  0  0  0  0  0
    3.8120    4.5470   -7.8050 F   0  0  0  0  0  0  0  0  0  0  0  0
    3.8050    6.7350   -6.8640 C   0  0  0  0  0  0  0  0  0  0  0  0
   -0.3510    8.4580   -4.9170 C   0  0  0  0  0  0  0  0  0  0  0  0
   -0.2620    8.4650   -3.5190 C   0  0  0  0  0  3  0  0  0  0  0  0
   -1.0930    9.2960   -2.7670 C   0  0  0  0  0  3  0  0  0  0  0  0
   -2.0150   10.1240   -3.4060 C   0  0  0  0  0  3  0  0  0  0  0  0
   -2.1070   10.1250   -4.7970 C   0  0  0  0  0  3  0  0  0  0  0  0
   -1.2750    9.2960   -5.5510 C   0  0  0  0  0  3  0  0  0  0  0  0
   -3.3410    4.1910   -7.2080 C   0  0  0  0  0  0  0  0  0  0  0  0
   -2.5310    3.9500   -6.0810 C   0  0  0  0  0  3  0  0  0  0  0  0
   -1.3830    4.7050   -5.8210 C   0  0  0  0  0  3  0  0  0  0  0  0
   -0.9970    5.7480   -6.6690 C   0  0  0  0  0  0  0  0  0  0  0  0
   -1.8030    6.0310   -7.7710 C   0  0  0  0  0  3  0  0  0  0  0  0
   -2.9530    5.2710   -8.0280 C   0  0  0  0  0  3  0  0  0  0  0  0
   -4.5840    3.2850   -7.5500 C   0  0  2  0  0  0  0  0  0  0  0  0
   -5.8240    3.3120   -6.6120 C   0  0  0  0  0  2  0  0  0  0  0  0
   -6.0480    1.7990   -6.9600 C   0  0  1  0  0  0  0  0  0  0  0  0
   -4.5060    1.7590   -7.2410 C   0  0  0  0  0  2  0  0  0  0  0  0
   -4.9750    3.5410   -8.9580 N   0  0  0  0  0  4  0  0  0  0  0  0
   -5.2330    4.5220   -9.1090 H   0  0  0  0  0  0  0  0  0  0  0  0
   -5.8010    2.9610   -9.2020 H   0  0  0  0  0  0  0  0  0  0  0  0
   -4.2240    3.3100   -9.6160 H   0  0  0  0  0  0  0  0  0  0  0  0
   -6.6180    0.9510   -5.8390 C   0  0  0  0  0  3  0  0  0  0  0  0
   -7.9990    1.1390   -5.2740 C   0  0  0  0  0  2  0  0  0  0  0  0
   -7.6500   -0.1310   -5.9990 C   0  0  0  0  0  2  0  0  0  0  0  0
   -6.7920    1.6460   -8.2060 O   0  0  0  0  0  0  0  0  0  0  0  0
   -7.1790    0.7470   -8.1520 H   0  0  0  0  0  0  0  0  0  0  0  0
  1  5  2  0  0  0  0
  2  3  2  0  0  0  0
  2  1  1  0  0  0  0
  3  4  1  0  0  0  0
  4  5  1  0  0  0  0
  4  6  1  0  0  0  0
  5 15  1  0  0  0  0
  7  6  1  0  0  0  0
  8  7  1  0  0  0  0
  9  8  1  0  0  0  0
 10  9  2  0  0  0  0
 11 12  2  0  0  0  0
 11 10  1  0  0  0  0
 12 14  1  0  0  0  0
 13 12  1  0  0  0  0
 14  3  1  0  0  0  0
 14  8  2  0  0  0  0
 15 16  1  0  0  0  0
 16 17  2  0  0  0  0
 18 17  1  0  0  0  0
 19 18  2  0  0  0  0
 20 15  2  0  0  0  0
 20 19  1  0  0  0  0
 21 22  1  0  0  0  0
 22 23  2  0  0  0  0
 24  1  1  0  0  0  0
 24 23  1  0  0  0  0
 25 24  2  0  0  0  0
 26 25  1  0  0  0  0
 26 21  2  0  0  0  0
 27 31  1  6  0  0  0
 27 30  1  0  0  0  0
 27 21  1  0  0  0  0
 27 28  1  0  0  0  0
 29 38  1  6  0  0  0
 29 28  1  0  0  0  0
 29 35  1  0  0  0  0
 30 29  1  0  0  0  0
 32 31  1  0  0  0  0
 33 31  1  0  0  0  0
 34 31  1  0  0  0  0
 35 36  1  0  0  0  0
 37 35  1  0  0  0  0
 37 36  1  0  0  0  0
 38 39  1  0  0  0  0
M  END
>  <minimizedAffinity>
-12.6301451

$$$$

 OpenBabel11232420083D

 39 45  0  0  1  0  0  0  0  0999 V2000
    1.0730    6.3860   -6.4450 C   0  0  0  0  0  0  0  0  0  0  0  0
    1.3010    7.4260   -5.5670 N   0  0  0  0  0  0  0  0  0  0  0  0
    2.5850    7.6860   -5.6410 C   0  0  0  0  0  0  0  0  0  0  0  0
    3.1890    6.8650   -6.5540 N   0  0  0  0  0  0  0  0  0  0  0  0
    2.2450    6.0260   -7.1020 C   0  0  0  0  0  0  0  0  0  0  0  0
    4.5820    7.0440   -6.9170 C   0  0  0  0  0  2  0  0  0  0  0  0
    5.3770    7.5850   -5.8400 O   0  0  0  0  0  0  0  0  0  0  0  0
    4.7800    8.5470   -5.0620 C   0  0  0  0  0  0  0  0  0  0  0  0
    5.6270    9.3950   -4.3480 C   0  0  0  0  0  3  0  0  0  0  0  0
    5.0870   10.3720   -3.5100 C   0  0  0  0  0  3  0  0  0  0  0  0
    3.7020   10.4890   -3.3800 C   0  0  0  0  0  3  0  0  0  0  0  0
    2.8620    9.6250   -4.0810 C   0  0  0  0  0  0  0  0  0  0  0  0
    1.5370    9.7620   -3.9240 F   0  0  0  0  0  0  0  0  0  0  0  0
    3.3900    8.6450   -4.9210 C   0  0  0  0  0  0  0  0  0  0  0  0
    2.5290    5.0710   -8.1640 C   0  0  0  0  0  0  0  0  0  0  0  0
    1.4860    4.3810   -8.7950 C   0  0  0  0  0  3  0  0  0  0  0  0
    1.7630    3.4640   -9.8090 C   0  0  0  0  0  3  0  0  0  0  0  0
    3.0810    3.2300  -10.1970 C   0  0  0  0  0  3  0  0  0  0  0  0
    4.1240    3.9150   -9.5750 C   0  0  0  0  0  3  0  0  0  0  0  0
    3.8490    4.8350   -8.5620 C   0  0  0  0  0  3  0  0  0  0  0  0
   -2.7600    4.4710   -6.9610 C   0  0  0  0  0  0  0  0  0  0  0  0
   -1.7950    4.0020   -6.0480 C   0  0  0  0  0  3  0  0  0  0  0  0
   -0.5720    4.6550   -5.8660 C   0  0  0  0  0  3  0  0  0  0  0  0
   -0.2590    5.8160   -6.5800 C   0  0  0  0  0  0  0  0  0  0  0  0
   -1.2130    6.3210   -7.4620 C   0  0  0  0  0  3  0  0  0  0  0  0
   -2.4390    5.6640   -7.6420 C   0  0  0  0  0  3  0  0  0  0  0  0
   -4.1010    3.6880   -7.2310 C   0  0  2  0  0  0  0  0  0  0  0  0
   -5.3470    3.9890   -6.3510 C   0  0  0  0  0  2  0  0  0  0  0  0
   -5.7540    2.4830   -6.5130 C   0  0  1  0  0  0  0  0  0  0  0  0
   -4.2230    2.2170   -6.7290 C   0  0  0  0  0  2  0  0  0  0  0  0
   -4.4260    3.8040   -8.6740 N   0  0  0  0  0  4  0  0  0  0  0  0
   -4.5540    4.7820   -8.9580 H   0  0  0  0  0  0  0  0  0  0  0  0
   -5.3130    3.3030   -8.8740 H   0  0  0  0  0  0  0  0  0  0  0  0
   -3.6960    3.3990   -9.2700 H   0  0  0  0  0  0  0  0  0  0  0  0
   -6.4500    1.8660   -5.3160 C   0  0  0  0  0  3  0  0  0  0  0  0
   -7.8380    2.2420   -4.8770 C   0  0  0  0  0  2  0  0  0  0  0  0
   -7.5590    0.8510   -5.3770 C   0  0  0  0  0  2  0  0  0  0  0  0
   -6.4840    2.2620   -7.7570 O   0  0  0  0  0  0  0  0  0  0  0  0
   -6.9830    1.4320   -7.6040 H   0  0  0  0  0  0  0  0  0  0  0  0
  1  2  1  0  0  0  0
  3  2  2  0  0  0  0
  3 14  1  0  0  0  0
  4  3  1  0  0  0  0
  5  4  1  0  0  0  0
  5  1  2  0  0  0  0
  6  4  1  0  0  0  0
  6  7  1  0  0  0  0
  7  8  1  0  0  0  0
  8 14  2  0  0  0  0
  8  9  1  0  0  0  0
  9 10  2  0  0  0  0
 10 11  1  0  0  0  0
 12 13  1  0  0  0  0
 12 11  2  0  0  0  0
 14 12  1  0  0  0  0
 15  5  1  0  0  0  0
 16 15  2  0  0  0  0
 17 16  1  0  0  0  0
 18 17  2  0  0  0  0
 18 19  1  0  0  0  0
 19 20  2  0  0  0  0
 20 15  1  0  0  0  0
 21 22  1  0  0  0  0
 22 23  2  0  0  0  0
 24  1  1  0  0  0  0
 24 23  1  0  0  0  0
 25 24  2  0  0  0  0
 26 25  1  0  0  0  0
 26 21  2  0  0  0  0
 27 31  1  6  0  0  0
 27 21  1  0  0  0  0
 27 30  1  0  0  0  0
 27 28  1  0  0  0  0
 29 38  1  6  0  0  0
 29 28  1  0  0  0  0
 29 35  1  0  0  0  0
 30 29  1  0  0  0  0
 32 31  1  0  0  0  0
 33 31  1  0  0  0  0
 34 31  1  0  0  0  0
 35 36  1  0  0  0  0
 37 35  1  0  0  0  0
 37 36  1  0  0  0  0
 38 39  1  0  0  0  0
M  END
>  <minimizedAffinity>
-10.942585

$$$$

 OpenBabel11232420083D

 39 45  0  0  1  0  0  0  0  0999 V2000
    2.6310    6.4930   -6.7360 C   0  0  0  0  0  0  0  0  0  0  0  0
    2.2590    7.3600   -5.7300 N   0  0  0  0  0  0  0  0  0  0  0  0
    3.3560    7.9790   -5.3620 C   0  0  0  0  0  0  0  0  0  0  0  0
    4.4190    7.5580   -6.1130 N   0  0  0  0  0  0  0  0  0  0  0  0
    3.9880    6.6130   -7.0170 C   0  0  0  0  0  0  0  0  0  0  0  0
    5.7190    8.1880   -5.9910 C   0  0  0  0  0  2  0  0  0  0  0  0
    5.9690    8.7060   -4.6660 O   0  0  0  0  0  0  0  0  0  0  0  0
    4.9020    9.2890   -4.0260 C   0  0  0  0  0  0  0  0  0  0  0  0
    5.1970   10.1810   -2.9950 C   0  0  0  0  0  3  0  0  0  0  0  0
    4.1610   10.7820   -2.2790 C   0  0  0  0  0  3  0  0  0  0  0  0
    2.8340   10.4780   -2.5880 C   0  0  0  0  0  3  0  0  0  0  0  0
    2.5470    9.5700   -3.6050 C   0  0  0  0  0  0  0  0  0  0  0  0
    1.2610    9.2960   -3.8670 F   0  0  0  0  0  0  0  0  0  0  0  0
    3.5740    8.9630   -4.3280 C   0  0  0  0  0  0  0  0  0  0  0  0
    4.8460    6.0050   -8.0240 C   0  0  0  0  0  0  0  0  0  0  0  0
    5.2700    6.7450   -9.1360 C   0  0  0  0  0  3  0  0  0  0  0  0
    6.0880    6.1560  -10.1010 C   0  0  0  0  0  3  0  0  0  0  0  0
    6.4860    4.8280   -9.9610 C   0  0  0  0  0  3  0  0  0  0  0  0
    6.0710    4.0870   -8.8560 C   0  0  0  0  0  3  0  0  0  0  0  0
    5.2540    4.6740   -7.8890 C   0  0  0  0  0  3  0  0  0  0  0  0
   -0.3330    3.7720   -8.2980 C   0  0  0  0  0  0  0  0  0  0  0  0
   -0.6650    4.8590   -7.4650 C   0  0  0  0  0  3  0  0  0  0  0  0
    0.3030    5.7530   -6.9960 C   0  0  0  0  0  3  0  0  0  0  0  0
    1.6490    5.6110   -7.3480 C   0  0  0  0  0  0  0  0  0  0  0  0
    1.9970    4.5650   -8.2030 C   0  0  0  0  0  3  0  0  0  0  0  0
    1.0240    3.6710   -8.6710 C   0  0  0  0  0  3  0  0  0  0  0  0
   -1.4080    2.7140   -8.7540 C   0  0  2  0  0  0  0  0  0  0  0  0
   -2.8450    3.1940   -9.1030 C   0  0  0  0  0  2  0  0  0  0  0  0
   -3.3740    1.8220   -8.5550 C   0  0  1  0  0  0  0  0  0  0  0  0
   -2.0760    1.8120   -7.6730 C   0  0  0  0  0  2  0  0  0  0  0  0
   -0.8300    1.9100   -9.8600 N   0  0  0  0  0  4  0  0  0  0  0  0
   -0.5830    2.4940  -10.6660 H   0  0  0  0  0  0  0  0  0  0  0  0
   -1.5270    1.2110  -10.1850 H   0  0  0  0  0  0  0  0  0  0  0  0
    0.0120    1.4020   -9.5710 H   0  0  0  0  0  0  0  0  0  0  0  0
   -4.7290    1.8720   -7.8760 C   0  0  0  0  0  3  0  0  0  0  0  0
   -6.0270    2.0220   -8.6210 C   0  0  0  0  0  2  0  0  0  0  0  0
   -5.7390    0.7580   -7.8580 C   0  0  0  0  0  2  0  0  0  0  0  0
   -3.3000    0.7800   -9.5730 O   0  0  0  0  0  0  0  0  0  0  0  0
   -3.9480    0.1050   -9.2810 H   0  0  0  0  0  0  0  0  0  0  0  0
  1  2  1  0  0  0  0
  2  3  2  0  0  0  0
  3 14  1  0  0  0  0
  4  6  1  0  0  0  0
  4  3  1  0  0  0  0
  5  1  2  0  0  0  0
  5  4  1  0  0  0  0
  6  7  1  0  0  0  0
  7  8  1  0  0  0  0
  8  9  1  0  0  0  0
  9 10  2  0  0  0  0
 11 10  1  0  0  0  0
 12 11  2  0  0  0  0
 13 12  1  0  0  0  0
 14  8  2  0  0  0  0
 14 12  1  0  0  0  0
 15 20  1  0  0  0  0
 15  5  1  0  0  0  0
 16 15  2  0  0  0  0
 17 18  2  0  0  0  0
 17 16  1  0  0  0  0
 18 19  1  0  0  0  0
 19 20  2  0  0  0  0
 21 22  1  0  0  0  0
 22 23  2  0  0  0  0
 24 23  1  0  0  0  0
 24  1  1  0  0  0  0
 25 24  2  0  0  0  0
 26 21  2  0  0  0  0
 26 25  1  0  0  0  0
 27 31  1  6  0  0  0
 27 21  1  0  0  0  0
 27 30  1  0  0  0  0
 28 27  1  0  0  0  0
 28 29  1  0  0  0  0
 29 38  1  6  0  0  0
 29 35  1  0  0  0  0
 29 30  1  0  0  0  0
 31 34  1  0  0  0  0
 32 31  1  0  0  0  0
 33 31  1  0  0  0  0
 35 37  1  0  0  0  0
 36 35  1  0  0  0  0
 36 37  1  0  0  0  0
 38 39  1  0  0  0  0
M  END
>  <minimizedAffinity>
-10.8493881

$$$$

 OpenBabel11232420083D

 39 45  0  0  1  0  0  0  0  0999 V2000
    1.7080    5.8690   -7.1430 C   0  0  0  0  0  0  0  0  0  0  0  0
    1.8230    6.9930   -6.3520 N   0  0  0  0  0  0  0  0  0  0  0  0
    3.1050    7.2620   -6.2910 C   0  0  0  0  0  0  0  0  0  0  0  0
    3.8200    6.3650   -7.0360 N   0  0  0  0  0  0  0  0  0  0  0  0
    2.9540    5.4630   -7.6110 C   0  0  0  0  0  0  0  0  0  0  0  0
    5.2470    6.5270   -7.2390 C   0  0  0  0  0  2  0  0  0  0  0  0
    5.9000    7.1820   -6.1310 O   0  0  0  0  0  0  0  0  0  0  0  0
    5.2090    8.2070   -5.5320 C   0  0  0  0  0  0  0  0  0  0  0  0
    5.9590    9.1330   -4.8050 C   0  0  0  0  0  3  0  0  0  0  0  0
    5.3160   10.1800   -4.1420 C   0  0  0  0  0  3  0  0  0  0  0  0
    3.9260   10.2890   -4.1970 C   0  0  0  0  0  3  0  0  0  0  0  0
    3.1810    9.3490   -4.9080 C   0  0  0  0  0  0  0  0  0  0  0  0
    1.8470    9.4820   -4.9310 F   0  0  0  0  0  0  0  0  0  0  0  0
    3.8120    8.2990   -5.5750 C   0  0  0  0  0  0  0  0  0  0  0  0
    3.3690    4.4120   -8.5290 C   0  0  0  0  0  0  0  0  0  0  0  0
    4.2680    3.4210   -8.1140 C   0  0  0  0  0  3  0  0  0  0  0  0
    4.6670    2.4200   -9.0000 C   0  0  0  0  0  3  0  0  0  0  0  0
    4.1710    2.4020  -10.3020 C   0  0  0  0  0  3  0  0  0  0  0  0
    3.2740    3.3830  -10.7210 C   0  0  0  0  0  3  0  0  0  0  0  0
    2.8720    4.3850   -9.8370 C   0  0  0  0  0  3  0  0  0  0  0  0
   -2.2390    4.1850   -7.6110 C   0  0  0  0  0  0  0  0  0  0  0  0
   -2.0030    5.5750   -7.5990 C   0  0  0  0  0  3  0  0  0  0  0  0
   -0.7140    6.1040   -7.4830 C   0  0  0  0  0  3  0  0  0  0  0  0
    0.4040    5.2700   -7.3850 C   0  0  0  0  0  0  0  0  0  0  0  0
    0.2000    3.8910   -7.4330 C   0  0  0  0  0  3  0  0  0  0  0  0
   -1.0940    3.3640   -7.5490 C   0  0  0  0  0  3  0  0  0  0  0  0
   -3.6960    3.5880   -7.6530 C   0  0  2  0  0  0  0  0  0  0  0  0
   -4.7590    4.1080   -6.6430 C   0  0  0  0  0  2  0  0  0  0  0  0
   -5.3830    2.6680   -6.6480 C   0  0  1  0  0  0  0  0  0  0  0  0
   -3.9450    2.1770   -7.0390 C   0  0  0  0  0  2  0  0  0  0  0  0
   -4.1970    3.6770   -9.0470 N   0  0  0  0  0  4  0  0  0  0  0  0
   -4.2300    4.6480   -9.3780 H   0  0  0  0  0  0  0  0  0  0  0  0
   -5.1630    3.2990   -9.0960 H   0  0  0  0  0  0  0  0  0  0  0  0
   -3.6160    3.1430   -9.7020 H   0  0  0  0  0  0  0  0  0  0  0  0
   -5.9850    2.2160   -5.3320 C   0  0  0  0  0  3  0  0  0  0  0  0
   -7.0670    2.9730   -4.6100 C   0  0  0  0  0  2  0  0  0  0  0  0
   -7.3470    1.6010   -5.1600 C   0  0  0  0  0  2  0  0  0  0  0  0
   -6.2990    2.4910   -7.7700 O   0  0  0  0  0  0  0  0  0  0  0  0
   -6.8800    1.7500   -7.4970 H   0  0  0  0  0  0  0  0  0  0  0  0
  1  2  1  0  0  0  0
  2  3  2  0  0  0  0
  3 14  1  0  0  0  0
  4  3  1  0  0  0  0
  5  1  2  0  0  0  0
  5  4  1  0  0  0  0
  6  4  1  0  0  0  0
  6  7  1  0  0  0  0
  7  8  1  0  0  0  0
  8  9  1  0  0  0  0
  9 10  2  0  0  0  0
 11 10  1  0  0  0  0
 12 11  2  0  0  0  0
 13 12  1  0  0  0  0
 14  8  2  0  0  0  0
 14 12  1  0  0  0  0
 15 16  1  0  0  0  0
 15  5  1  0  0  0  0
 17 16  2  0  0  0  0
 18 17  1  0  0  0  0
 19 18  2  0  0  0  0
 19 20  1  0  0  0  0
 20 15  2  0  0  0  0
 21 22  2  0  0  0  0
 21 26  1  0  0  0  0
 22 23  1  0  0  0  0
 23 24  2  0  0  0  0
 24  1  1  0  0  0  0
 25 24  1  0  0  0  0
 26 25  2  0  0  0  0
 27 31  1  6  0  0  0
 27 21  1  0  0  0  0
 27 30  1  0  0  0  0
 27 28  1  0  0  0  0
 29 38  1  6  0  0  0
 29 28  1  0  0  0  0
 29 35  1  0  0  0  0
 30 29  1  0  0  0  0
 32 31  1  0  0  0  0
 33 31  1  0  0  0  0
 34 31  1  0  0  0  0
 35 37  1  0  0  0  0
 35 36  1  0  0  0  0
 37 36  1  0  0  0  0
 38 39  1  0  0  0  0
M  END
>  <minimizedAffinity>
-10.7079582

$$$$
