
 OpenBabel11232418563D

 42 48  0  0  1  0  0  0  0  0999 V2000
    7.3130   -4.6170   11.3860 C   0  0  0  0  0  0  0  0  0  0  0  0
    7.0420   -5.0840   10.1100 N   0  0  0  0  0  0  0  0  0  0  0  0
    6.8060   -4.0160    9.3840 C   0  0  0  0  0  0  0  0  0  0  0  0
    6.8670   -2.8870   10.1450 N   0  0  0  0  0  0  0  0  0  0  0  0
    7.2470   -3.2280   11.4230 C   0  0  0  0  0  0  0  0  0  0  0  0
    6.6940   -1.5660    9.5670 C   0  0  0  0  0  2  0  0  0  0  0  0
    5.9160   -1.5730    8.3500 O   0  0  0  0  0  0  0  0  0  0  0  0
    6.1100   -2.6400    7.5090 C   0  0  0  0  0  0  0  0  0  0  0  0
    5.8130   -2.4590    6.1630 C   0  0  0  0  0  3  0  0  0  0  0  0
    5.9900   -3.5180    5.2660 C   0  0  0  0  0  3  0  0  0  0  0  0
    6.4420   -4.7700    5.7120 C   0  0  0  0  0  0  0  0  0  0  0  0
    6.6950   -4.9520    7.0790 C   0  0  0  0  0  3  0  0  0  0  0  0
    6.5330   -3.8900    7.9710 C   0  0  0  0  0  0  0  0  0  0  0  0
    6.6550   -5.8670    4.7850 C   0  0  0  0  0  0  0  0  0  0  0  0
    6.2670   -6.0250    3.4350 C   0  0  0  0  0  3  0  0  0  0  0  0
    6.6150   -7.2120    2.9300 N   0  0  0  0  0  0  0  0  0  0  0  0
    7.2340   -7.8190    3.9560 N   0  0  0  0  0  0  0  0  0  0  0  0
    7.2770   -7.0600    5.0900 C   0  0  0  0  0  3  0  0  0  0  0  0
    7.5940   -8.7580    3.8140 H   0  0  0  0  0  0  0  0  0  0  0  0
    8.3760   -7.5440   14.4040 C   0  0  0  0  0  0  0  0  0  0  0  0
    7.4460   -7.8030   13.3730 C   0  0  0  0  0  3  0  0  0  0  0  0
    7.1020   -6.8390   12.4160 C   0  0  0  0  0  3  0  0  0  0  0  0
    7.6490   -5.5520   12.4540 C   0  0  0  0  0  0  0  0  0  0  0  0
    8.5280   -5.2540   13.4930 C   0  0  0  0  0  3  0  0  0  0  0  0
    8.8780   -6.2280   14.4430 C   0  0  0  0  0  3  0  0  0  0  0  0
   11.7950   -9.2110   17.1940 C   0  0  0  0  0  1  0  0  0  0  0  0
   10.8300   -8.5210   16.2420 C   0  0  1  0  0  0  0  0  0  0  0  0
   10.1690   -9.4740   15.2120 C   0  0  0  0  0  2  0  0  0  0  0  0
    8.8380   -8.6900   15.4200 C   0  0  1  0  0  0  0  0  0  0  0  0
    9.4060   -8.2550   16.8030 C   0  0  0  0  0  2  0  0  0  0  0  0
    7.7050   -9.6420   15.5500 N   0  0  0  0  0  4  0  0  0  0  0  0
    6.8830   -9.1960   15.9770 H   0  0  0  0  0  0  0  0  0  0  0  0
    7.4050   -9.9670   14.6200 H   0  0  0  0  0  0  0  0  0  0  0  0
    7.9310  -10.4710   16.1100 H   0  0  0  0  0  0  0  0  0  0  0  0
   11.4690   -7.3800   15.6420 O   0  0  0  0  0  0  0  0  0  0  0  0
   11.8500   -6.8510   16.3690 H   0  0  0  0  0  0  0  0  0  0  0  0
    7.5020   -2.2360   12.4570 C   0  0  0  0  0  0  0  0  0  0  0  0
    6.6630   -2.1380   13.5710 C   0  0  0  0  0  3  0  0  0  0  0  0
    6.9000   -1.1600   14.5390 C   0  0  0  0  0  3  0  0  0  0  0  0
    7.9760   -0.2830   14.4000 C   0  0  0  0  0  3  0  0  0  0  0  0
    8.8160   -0.3770   13.2930 C   0  0  0  0  0  3  0  0  0  0  0  0
    8.5780   -1.3480   12.3200 C   0  0  0  0  0  3  0  0  0  0  0  0
  1  5  2  0  0  0  0
  1 23  1  0  0  0  0
  2  1  1  0  0  0  0
  3  2  2  0  0  0  0
  3  4  1  0  0  0  0
  4  5  1  0  0  0  0
  5 37  1  0  0  0  0
  6  4  1  0  0  0  0
  7  6  1  0  0  0  0
  8 13  1  0  0  0  0
  8  7  1  0  0  0  0
  9  8  2  0  0  0  0
 10 11  2  0  0  0  0
 10  9  1  0  0  0  0
 11 12  1  0  0  0  0
 12 13  2  0  0  0  0
 13  3  1  0  0  0  0
 14 18  2  0  0  0  0
 14 11  1  0  0  0  0
 15 14  1  0  0  0  0
 16 15  2  0  0  0  0
 16 17  1  0  0  0  0
 17 18  1  0  0  0  0
 19 17  1  0  0  0  0
 20 25  1  0  0  0  0
 20 29  1  0  0  0  0
 21 20  2  0  0  0  0
 22 23  2  0  0  0  0
 22 21  1  0  0  0  0
 23 24  1  0  0  0  0
 24 25  2  0  0  0  0
 27 30  1  0  0  0  0
 27 26  1  1  0  0  0
 28 29  1  0  0  0  0
 28 27  1  0  0  0  0
 29 31  1  1  0  0  0
 29 30  1  0  0  0  0
 31 32  1  0  0  0  0
 31 34  1  0  0  0  0
 33 31  1  0  0  0  0
 35 27  1  0  0  0  0
 35 36  1  0  0  0  0
 37 38  1  0  0  0  0
 38 39  2  0  0  0  0
 40 39  1  0  0  0  0
 41 40  2  0  0  0  0
 42 37  2  0  0  0  0
 42 41  1  0  0  0  0
M  END
>  <minimizedAffinity>
-13.890604

$$$$
