
 OpenBabel11232418563D

 42 48  0  0  1  0  0  0  0  0999 V2000
    7.7730   -7.0390   11.2630 C   0  0  0  0  0  0  0  0  0  0  0  0
    7.6770   -7.7260   10.0640 N   0  0  0  0  0  0  0  0  0  0  0  0
    7.2520   -6.8490    9.1850 C   0  0  0  0  0  0  0  0  0  0  0  0
    7.0260   -5.6400    9.7740 N   0  0  0  0  0  0  0  0  0  0  0  0
    7.4040   -5.7080   11.0960 C   0  0  0  0  0  0  0  0  0  0  0  0
    6.6000   -4.4840    9.0060 C   0  0  0  0  0  2  0  0  0  0  0  0
    5.9070   -4.8320    7.7880 O   0  0  0  0  0  0  0  0  0  0  0  0
    6.3720   -5.9350    7.1160 C   0  0  0  0  0  0  0  0  0  0  0  0
    6.1140   -6.0110    5.7520 C   0  0  0  0  0  3  0  0  0  0  0  0
    6.5630   -7.1170    5.0230 C   0  0  0  0  0  3  0  0  0  0  0  0
    7.2530   -8.1640    5.6560 C   0  0  0  0  0  0  0  0  0  0  0  0
    7.4680   -8.0940    7.0390 C   0  0  0  0  0  3  0  0  0  0  0  0
    7.0320   -6.9830    7.7640 C   0  0  0  0  0  0  0  0  0  0  0  0
    7.7470   -9.3030    4.9040 C   0  0  0  0  0  0  0  0  0  0  0  0
    7.8940   -9.4980    3.5110 C   0  0  0  0  0  3  0  0  0  0  0  0
    8.3490  -10.7160    3.2030 N   0  0  0  0  0  0  0  0  0  0  0  0
    8.5010  -11.3050    4.3990 N   0  0  0  0  0  0  0  0  0  0  0  0
    8.1480  -10.5050    5.4480 C   0  0  0  0  0  3  0  0  0  0  0  0
    8.8410  -12.2620    4.4260 H   0  0  0  0  0  0  0  0  0  0  0  0
    9.0940   -9.2530   14.7510 C   0  0  0  0  0  0  0  0  0  0  0  0
    7.7400   -9.1700   14.3580 C   0  0  0  0  0  3  0  0  0  0  0  0
    7.3290   -8.4360   13.2370 C   0  0  0  0  0  3  0  0  0  0  0  0
    8.2480   -7.7200   12.4630 C   0  0  0  0  0  0  0  0  0  0  0  0
    9.5830   -7.7410   12.8600 C   0  0  0  0  0  3  0  0  0  0  0  0
    9.9910   -8.4890   13.9780 C   0  0  0  0  0  3  0  0  0  0  0  0
   11.9070   -9.7470   18.5050 C   0  0  0  0  0  1  0  0  0  0  0  0
   11.0970   -9.4020   17.2650 C   0  0  1  0  0  0  0  0  0  0  0  0
   11.0570  -10.5300   16.2020 C   0  0  0  0  0  2  0  0  0  0  0  0
    9.5560  -10.1840   15.9660 C   0  0  1  0  0  0  0  0  0  0  0  0
    9.5590   -9.5700   17.3970 C   0  0  0  0  0  2  0  0  0  0  0  0
    8.7540  -11.4320   15.8900 N   0  0  0  0  0  4  0  0  0  0  0  0
    7.7530  -11.2490   16.0350 H   0  0  0  0  0  0  0  0  0  0  0  0
    8.8360  -11.8520   14.9530 H   0  0  0  0  0  0  0  0  0  0  0  0
    9.0390  -12.1430   16.5740 H   0  0  0  0  0  0  0  0  0  0  0  0
   11.5260   -8.1330   16.7400 O   0  0  0  0  0  0  0  0  0  0  0  0
   11.5170   -7.4990   17.4830 H   0  0  0  0  0  0  0  0  0  0  0  0
    7.3830   -4.5520   11.9790 C   0  0  0  0  0  0  0  0  0  0  0  0
    8.5630   -3.8730   12.2920 C   0  0  0  0  0  3  0  0  0  0  0  0
    8.5320   -2.7850   13.1660 C   0  0  0  0  0  3  0  0  0  0  0  0
    7.3230   -2.3700   13.7260 C   0  0  0  0  0  3  0  0  0  0  0  0
    6.1430   -3.0430   13.4160 C   0  0  0  0  0  3  0  0  0  0  0  0
    6.1720   -4.1340   12.5480 C   0  0  0  0  0  3  0  0  0  0  0  0
  1 23  1  0  0  0  0
  2  1  1  0  0  0  0
  3  4  1  0  0  0  0
  3  2  2  0  0  0  0
  4  5  1  0  0  0  0
  5  1  2  0  0  0  0
  5 37  1  0  0  0  0
  6  4  1  0  0  0  0
  7  6  1  0  0  0  0
  8 13  1  0  0  0  0
  8  7  1  0  0  0  0
  9  8  2  0  0  0  0
 10 11  2  0  0  0  0
 10  9  1  0  0  0  0
 11 12  1  0  0  0  0
 12 13  2  0  0  0  0
 13  3  1  0  0  0  0
 14 18  2  0  0  0  0
 14 11  1  0  0  0  0
 15 14  1  0  0  0  0
 16 15  2  0  0  0  0
 16 17  1  0  0  0  0
 17 19  1  0  0  0  0
 17 18  1  0  0  0  0
 20 29  1  0  0  0  0
 21 20  1  0  0  0  0
 22 21  2  0  0  0  0
 23 24  2  0  0  0  0
 23 22  1  0  0  0  0
 24 25  1  0  0  0  0
 25 20  2  0  0  0  0
 27 30  1  0  0  0  0
 27 26  1  1  0  0  0
 28 27  1  0  0  0  0
 29 31  1  6  0  0  0
 29 28  1  0  0  0  0
 29 30  1  0  0  0  0
 31 32  1  0  0  0  0
 31 34  1  0  0  0  0
 33 31  1  0  0  0  0
 35 27  1  0  0  0  0
 35 36  1  0  0  0  0
 37 38  2  0  0  0  0
 37 42  1  0  0  0  0
 38 39  1  0  0  0  0
 39 40  2  0  0  0  0
 41 40  1  0  0  0  0
 42 41  2  0  0  0  0
M  END
>  <minimizedAffinity>
-12.2964172

$$$$
