
 OpenBabel11232418563D

 42 48  0  0  1  0  0  0  0  0999 V2000
    7.3940   -4.3370   11.5120 C   0  0  0  0  0  0  0  0  0  0  0  0
    7.1130   -4.8750   10.2660 N   0  0  0  0  0  0  0  0  0  0  0  0
    6.8470   -3.8520    9.4890 C   0  0  0  0  0  0  0  0  0  0  0  0
    6.8980   -2.6820   10.1890 N   0  0  0  0  0  0  0  0  0  0  0  0
    7.3030   -2.9490   11.4770 C   0  0  0  0  0  0  0  0  0  0  0  0
    6.6920   -1.3970    9.5450 C   0  0  0  0  0  2  0  0  0  0  0  0
    5.8980   -1.4820    8.3420 O   0  0  0  0  0  0  0  0  0  0  0  0
    6.0990   -2.5890    7.5560 C   0  0  0  0  0  0  0  0  0  0  0  0
    5.7800   -2.4830    6.2070 C   0  0  0  0  0  3  0  0  0  0  0  0
    5.9630   -3.5850    5.3640 C   0  0  0  0  0  3  0  0  0  0  0  0
    6.4440   -4.8040    5.8680 C   0  0  0  0  0  0  0  0  0  0  0  0
    6.7200   -4.9090    7.2380 C   0  0  0  0  0  3  0  0  0  0  0  0
    6.5510   -3.8050    8.0760 C   0  0  0  0  0  0  0  0  0  0  0  0
    6.6640   -5.9450    4.9960 C   0  0  0  0  0  0  0  0  0  0  0  0
    6.7780   -7.3230    5.2880 C   0  0  0  0  0  3  0  0  0  0  0  0
    7.0250   -8.0640    4.2050 N   0  0  0  0  0  0  0  0  0  0  0  0
    7.0650   -7.1630    3.2110 N   0  0  0  0  0  0  0  0  0  0  0  0
    6.8620   -5.8800    3.6330 C   0  0  0  0  0  3  0  0  0  0  0  0
    7.2470   -7.4920    2.2680 H   0  0  0  0  0  0  0  0  0  0  0  0
    8.5150   -7.0960   14.6650 C   0  0  0  0  0  0  0  0  0  0  0  0
    7.4330   -7.3260   13.7870 C   0  0  0  0  0  3  0  0  0  0  0  0
    7.0750   -6.4160   12.7840 C   0  0  0  0  0  3  0  0  0  0  0  0
    7.7620   -5.2090   12.6220 C   0  0  0  0  0  0  0  0  0  0  0  0
    8.8000   -4.9320   13.5090 C   0  0  0  0  0  3  0  0  0  0  0  0
    9.1630   -5.8540   14.5050 C   0  0  0  0  0  3  0  0  0  0  0  0
   10.7160  -11.2020   15.4050 C   0  0  0  0  0  1  0  0  0  0  0  0
   10.0450   -9.9120   14.9600 C   0  0  1  0  0  0  0  0  0  0  0  0
    8.6250   -9.7030   15.5480 C   0  0  0  0  0  2  0  0  0  0  0  0
    8.9770   -8.1950   15.7290 C   0  0  1  0  0  0  0  0  0  0  0  0
   10.4730   -8.6310   15.7280 C   0  0  0  0  0  2  0  0  0  0  0  0
    8.5280   -7.7270   17.0660 N   0  0  0  0  0  4  0  0  0  0  0  0
    8.9950   -6.8530   17.3370 H   0  0  0  0  0  0  0  0  0  0  0  0
    7.5190   -7.5210   17.0500 H   0  0  0  0  0  0  0  0  0  0  0  0
    8.6930   -8.4100   17.8140 H   0  0  0  0  0  0  0  0  0  0  0  0
   10.0940   -9.8050   13.5260 O   0  0  0  0  0  0  0  0  0  0  0  0
   11.0220   -9.9510   13.2620 H   0  0  0  0  0  0  0  0  0  0  0  0
    7.5540   -1.9000   12.4530 C   0  0  0  0  0  0  0  0  0  0  0  0
    8.6140   -1.0050   12.2810 C   0  0  0  0  0  3  0  0  0  0  0  0
    8.8630   -0.0230   13.2420 C   0  0  0  0  0  3  0  0  0  0  0  0
    8.0530    0.0700   14.3740 C   0  0  0  0  0  3  0  0  0  0  0  0
    6.9940   -0.8190   14.5510 C   0  0  0  0  0  3  0  0  0  0  0  0
    6.7470   -1.8050   13.5950 C   0  0  0  0  0  3  0  0  0  0  0  0
  1 23  1  0  0  0  0
  2  1  1  0  0  0  0
  3  4  1  0  0  0  0
  3  2  2  0  0  0  0
  4  5  1  0  0  0  0
  5  1  2  0  0  0  0
  5 37  1  0  0  0  0
  6  4  1  0  0  0  0
  7  6  1  0  0  0  0
  8 13  1  0  0  0  0
  8  7  1  0  0  0  0
  9  8  2  0  0  0  0
 10 11  2  0  0  0  0
 10  9  1  0  0  0  0
 11 12  1  0  0  0  0
 12 13  2  0  0  0  0
 13  3  1  0  0  0  0
 14 15  1  0  0  0  0
 14 11  1  0  0  0  0
 16 15  2  0  0  0  0
 17 18  1  0  0  0  0
 17 16  1  0  0  0  0
 18 14  2  0  0  0  0
 19 17  1  0  0  0  0
 20 29  1  0  0  0  0
 21 20  2  0  0  0  0
 22 21  1  0  0  0  0
 23 22  2  0  0  0  0
 23 24  1  0  0  0  0
 24 25  2  0  0  0  0
 25 20  1  0  0  0  0
 27 26  1  1  0  0  0
 27 28  1  0  0  0  0
 27 30  1  0  0  0  0
 28 29  1  0  0  0  0
 29 31  1  1  0  0  0
 30 29  1  0  0  0  0
 31 32  1  0  0  0  0
 31 34  1  0  0  0  0
 33 31  1  0  0  0  0
 35 27  1  0  0  0  0
 36 35  1  0  0  0  0
 37 42  1  0  0  0  0
 38 37  2  0  0  0  0
 38 39  1  0  0  0  0
 39 40  2  0  0  0  0
 40 41  1  0  0  0  0
 42 41  2  0  0  0  0
M  END
>  <minimizedAffinity>
-13.755765

$$$$
