
 OpenBabel11232418563D

 42 48  0  0  1  0  0  0  0  0999 V2000
    7.4850   -6.9300   11.2020 C   0  0  0  0  0  0  0  0  0  0  0  0
    7.5940   -8.2720   11.5290 N   0  0  0  0  0  0  0  0  0  0  0  0
    7.8300   -8.3060   12.8200 C   0  0  0  0  0  0  0  0  0  0  0  0
    7.9240   -7.0440   13.3300 N   0  0  0  0  0  0  0  0  0  0  0  0
    7.6510   -6.1360   12.3330 C   0  0  0  0  0  0  0  0  0  0  0  0
    8.1300   -6.8080   14.7470 C   0  0  0  0  0  2  0  0  0  0  0  0
    8.7790   -7.9080   15.4220 O   0  0  0  0  0  0  0  0  0  0  0  0
    8.4280   -9.1680   15.0080 C   0  0  0  0  0  0  0  0  0  0  0  0
    8.6000  -10.2110   15.9120 C   0  0  0  0  0  3  0  0  0  0  0  0
    8.2610  -11.5160   15.5370 C   0  0  0  0  0  3  0  0  0  0  0  0
    7.7700  -11.7890   14.2490 C   0  0  0  0  0  0  0  0  0  0  0  0
    7.6430  -10.7350   13.3340 C   0  0  0  0  0  3  0  0  0  0  0  0
    7.9680   -9.4310   13.7150 C   0  0  0  0  0  0  0  0  0  0  0  0
    7.3890  -13.1350   13.8600 C   0  0  0  0  0  0  0  0  0  0  0  0
    6.9170  -13.6420   12.6270 C   0  0  0  0  0  3  0  0  0  0  0  0
    6.6290  -14.9460   12.6790 N   0  0  0  0  0  0  0  0  0  0  0  0
    6.9210  -15.2810   13.9460 N   0  0  0  0  0  0  0  0  0  0  0  0
    7.3720  -14.2320   14.6950 C   0  0  0  0  0  3  0  0  0  0  0  0
    6.7780  -16.2440   14.2350 H   0  0  0  0  0  0  0  0  0  0  0  0
    6.4910   -5.9230    7.1020 C   0  0  0  0  0  0  0  0  0  0  0  0
    7.0840   -7.1500    7.4730 C   0  0  0  0  0  3  0  0  0  0  0  0
    7.4140   -7.4520    8.8010 C   0  0  0  0  0  3  0  0  0  0  0  0
    7.1950   -6.5310    9.8300 C   0  0  0  0  0  0  0  0  0  0  0  0
    6.6600   -5.2910    9.4840 C   0  0  0  0  0  3  0  0  0  0  0  0
    6.3200   -4.9980    8.1520 C   0  0  0  0  0  3  0  0  0  0  0  0
    7.7690   -5.4070    2.5910 C   0  0  0  0  0  1  0  0  0  0  0  0
    7.5640   -5.5950    4.0860 C   0  0  1  0  0  0  0  0  0  0  0  0
    6.6680   -4.5120    4.7420 C   0  0  0  0  0  2  0  0  0  0  0  0
    6.0210   -5.6410    5.6000 C   0  0  1  0  0  0  0  0  0  0  0  0
    6.4830   -6.6340    4.4920 C   0  0  0  0  0  2  0  0  0  0  0  0
    4.5450   -5.4740    5.6280 N   0  0  0  0  0  4  0  0  0  0  0  0
    4.0720   -6.3380    5.9180 H   0  0  0  0  0  0  0  0  0  0  0  0
    4.2820   -4.7560    6.3180 H   0  0  0  0  0  0  0  0  0  0  0  0
    4.1490   -5.1940    4.7230 H   0  0  0  0  0  0  0  0  0  0  0  0
    8.8370   -5.7590    4.7370 O   0  0  0  0  0  0  0  0  0  0  0  0
    9.3180   -6.4560    4.2500 H   0  0  0  0  0  0  0  0  0  0  0  0
    7.5720   -4.7040   12.5760 C   0  0  0  0  0  0  0  0  0  0  0  0
    8.7130   -3.9020   12.4870 C   0  0  0  0  0  3  0  0  0  0  0  0
    8.6290   -2.5350   12.7550 C   0  0  0  0  0  3  0  0  0  0  0  0
    7.4050   -1.9640   13.1070 C   0  0  0  0  0  3  0  0  0  0  0  0
    6.2640   -2.7580   13.1950 C   0  0  0  0  0  3  0  0  0  0  0  0
    6.3460   -4.1260   12.9340 C   0  0  0  0  0  3  0  0  0  0  0  0
  1  2  1  0  0  0  0
  1  5  2  0  0  0  0
  2  3  2  0  0  0  0
  3  4  1  0  0  0  0
  3 13  1  0  0  0  0
  4  6  1  0  0  0  0
  5 37  1  0  0  0  0
  5  4  1  0  0  0  0
  6  7  1  0  0  0  0
  8  7  1  0  0  0  0
  8  9  1  0  0  0  0
 10  9  2  0  0  0  0
 11 10  1  0  0  0  0
 12 13  1  0  0  0  0
 12 11  2  0  0  0  0
 13  8  2  0  0  0  0
 14 11  1  0  0  0  0
 14 18  2  0  0  0  0
 15 16  2  0  0  0  0
 15 14  1  0  0  0  0
 16 17  1  0  0  0  0
 17 19  1  0  0  0  0
 17 18  1  0  0  0  0
 20 21  2  0  0  0  0
 20 25  1  0  0  0  0
 21 22  1  0  0  0  0
 22 23  2  0  0  0  0
 23  1  1  0  0  0  0
 24 23  1  0  0  0  0
 25 24  2  0  0  0  0
 27 26  1  6  0  0  0
 27 30  1  0  0  0  0
 27 35  1  0  0  0  0
 27 28  1  0  0  0  0
 28 29  1  0  0  0  0
 29 31  1  6  0  0  0
 29 20  1  0  0  0  0
 30 29  1  0  0  0  0
 31 32  1  0  0  0  0
 31 33  1  0  0  0  0
 34 31  1  0  0  0  0
 36 35  1  0  0  0  0
 37 42  1  0  0  0  0
 38 37  2  0  0  0  0
 38 39  1  0  0  0  0
 39 40  2  0  0  0  0
 40 41  1  0  0  0  0
 42 41  2  0  0  0  0
M  END
>  <minimizedAffinity>
-13.0668106

$$$$
