
 OpenBabel11232418563D

 42 48  0  0  1  0  0  0  0  0999 V2000
    7.5940   -5.9960   10.3270 C   0  0  0  0  0  0  0  0  0  0  0  0
    7.5090   -4.6130   10.3300 N   0  0  0  0  0  0  0  0  0  0  0  0
    7.7460   -4.2450   11.5680 C   0  0  0  0  0  0  0  0  0  0  0  0
    7.9330   -5.3320   12.3710 N   0  0  0  0  0  0  0  0  0  0  0  0
    7.9000   -6.4700   11.5980 C   0  0  0  0  0  0  0  0  0  0  0  0
    8.2620   -5.1940   13.7780 C   0  0  0  0  0  2  0  0  0  0  0  0
    7.8150   -3.9440   14.3490 O   0  0  0  0  0  0  0  0  0  0  0  0
    7.9020   -2.8390   13.5400 C   0  0  0  0  0  0  0  0  0  0  0  0
    7.9860   -1.5970   14.1590 C   0  0  0  0  0  3  0  0  0  0  0  0
    8.0720   -0.4390   13.3780 C   0  0  0  0  0  3  0  0  0  0  0  0
    8.0520   -0.5140   11.9750 C   0  0  0  0  0  0  0  0  0  0  0  0
    7.9230   -1.7690   11.3660 C   0  0  0  0  0  3  0  0  0  0  0  0
    7.8520   -2.9260   12.1460 C   0  0  0  0  0  0  0  0  0  0  0  0
    8.1680    0.6790   11.1560 C   0  0  0  0  0  0  0  0  0  0  0  0
    9.2790    1.2290   10.4760 C   0  0  0  0  0  3  0  0  0  0  0  0
    8.9920    2.3780    9.8580 N   0  0  0  0  0  0  0  0  0  0  0  0
    7.6920    2.5670   10.1360 N   0  0  0  0  0  0  0  0  0  0  0  0
    7.1550    1.5830   10.9150 C   0  0  0  0  0  3  0  0  0  0  0  0
    7.2360    3.3970    9.7690 H   0  0  0  0  0  0  0  0  0  0  0  0
    7.2280   -8.1180    6.5620 C   0  0  0  0  0  0  0  0  0  0  0  0
    7.3370   -6.7120    6.6470 C   0  0  0  0  0  3  0  0  0  0  0  0
    7.4370   -6.0420    7.8740 C   0  0  0  0  0  3  0  0  0  0  0  0
    7.4060   -6.7390    9.0860 C   0  0  0  0  0  0  0  0  0  0  0  0
    7.2460   -8.1220    9.0320 C   0  0  0  0  0  3  0  0  0  0  0  0
    7.1580   -8.7900    7.7990 C   0  0  0  0  0  3  0  0  0  0  0  0
    8.7720   -8.1720    2.1050 C   0  0  0  0  0  1  0  0  0  0  0  0
    8.3790   -7.9700    3.5600 C   0  0  1  0  0  0  0  0  0  0  0  0
    6.8600   -8.1290    3.8310 C   0  0  0  0  0  2  0  0  0  0  0  0
    7.2260   -8.8720    5.1520 C   0  0  1  0  0  0  0  0  0  0  0  0
    8.6000   -9.1930    4.4930 C   0  0  0  0  0  2  0  0  0  0  0  0
    6.3780  -10.0820    5.3050 N   0  0  0  0  0  4  0  0  0  0  0  0
    6.7800  -10.7430    5.9820 H   0  0  0  0  0  0  0  0  0  0  0  0
    5.4510   -9.8230    5.6710 H   0  0  0  0  0  0  0  0  0  0  0  0
    6.2320  -10.5920    4.4260 H   0  0  0  0  0  0  0  0  0  0  0  0
    8.9220   -6.7300    4.0460 O   0  0  0  0  0  0  0  0  0  0  0  0
    9.8740   -6.7310    3.8260 H   0  0  0  0  0  0  0  0  0  0  0  0
    8.1660   -7.7940   12.1400 C   0  0  0  0  0  0  0  0  0  0  0  0
    7.1470   -8.5350   12.7440 C   0  0  0  0  0  3  0  0  0  0  0  0
    7.4240   -9.7900   13.2890 C   0  0  0  0  0  3  0  0  0  0  0  0
    8.7170  -10.3100   13.2280 C   0  0  0  0  0  3  0  0  0  0  0  0
    9.7370   -9.5770   12.6260 C   0  0  0  0  0  3  0  0  0  0  0  0
    9.4640   -8.3190   12.0870 C   0  0  0  0  0  3  0  0  0  0  0  0
  1  2  1  0  0  0  0
  1  5  2  0  0  0  0
  2  3  2  0  0  0  0
  3 13  1  0  0  0  0
  3  4  1  0  0  0  0
  4  6  1  0  0  0  0
  5 37  1  0  0  0  0
  5  4  1  0  0  0  0
  6  7  1  0  0  0  0
  8  9  1  0  0  0  0
  8  7  1  0  0  0  0
 10  9  2  0  0  0  0
 11 10  1  0  0  0  0
 12 11  2  0  0  0  0
 12 13  1  0  0  0  0
 13  8  2  0  0  0  0
 14 11  1  0  0  0  0
 15 14  1  0  0  0  0
 16 17  1  0  0  0  0
 16 15  2  0  0  0  0
 17 18  1  0  0  0  0
 18 14  2  0  0  0  0
 19 17  1  0  0  0  0
 20 21  2  0  0  0  0
 20 25  1  0  0  0  0
 21 22  1  0  0  0  0
 22 23  2  0  0  0  0
 23  1  1  0  0  0  0
 24 23  1  0  0  0  0
 25 24  2  0  0  0  0
 27 26  1  6  0  0  0
 27 28  1  0  0  0  0
 27 35  1  0  0  0  0
 27 30  1  0  0  0  0
 28 29  1  0  0  0  0
 29 31  1  1  0  0  0
 29 20  1  0  0  0  0
 30 29  1  0  0  0  0
 31 33  1  0  0  0  0
 31 32  1  0  0  0  0
 34 31  1  0  0  0  0
 36 35  1  0  0  0  0
 37 38  1  0  0  0  0
 38 39  2  0  0  0  0
 40 39  1  0  0  0  0
 41 40  2  0  0  0  0
 42 37  2  0  0  0  0
 42 41  1  0  0  0  0
M  END
>  <minimizedAffinity>
-10.9117851

$$$$
