
 OpenBabel11232420403D

 40 45  0  0  1  0  0  0  0  0999 V2000
  -21.9710   18.2580   14.6580 C   0  0  0  0  0  0  0  0  0  0  0  0
  -22.7080   17.0800   14.7080 C   0  0  0  0  0  3  0  0  0  0  0  0
  -22.6640   16.1170   13.7610 N   0  0  0  0  0  0  0  0  0  0  0  0
  -21.8610   16.3370   12.6970 C   0  0  0  0  0  3  0  0  0  0  0  0
  -21.0810   17.4760   12.5390 C   0  0  0  0  0  0  0  0  0  0  0  0
  -21.1520   18.4520   13.5470 C   0  0  0  0  0  3  0  0  0  0  0  0
  -20.1920   17.6600   11.3910 C   0  0  0  0  0  0  0  0  0  0  0  0
  -19.3880   16.5860   10.9330 C   0  0  0  0  0  3  0  0  0  0  0  0
  -18.4860   16.7480    9.8770 C   0  0  0  0  0  3  0  0  0  0  0  0
  -18.4130   17.9950    9.2940 C   0  0  0  0  0  0  0  0  0  0  0  0
  -19.1960   19.0660    9.7150 C   0  0  0  0  0  0  0  0  0  0  0  0
  -20.0960   18.9110   10.7580 C   0  0  0  0  0  3  0  0  0  0  0  0
  -18.9080   20.2720    8.8500 C   0  0  2  0  0  3  0  0  0  0  0  0
  -17.8160   19.7150    7.9020 C   0  0  0  0  0  0  0  0  0  0  0  0
  -17.2390   20.3050    7.0020 O   0  0  0  0  0  0  0  0  0  0  0  0
  -17.6050   18.3810    8.2400 N   0  0  0  0  0  0  0  0  0  0  0  0
  -16.9410   17.7990    7.7490 H   0  0  0  0  0  0  0  0  0  0  0  0
  -18.3990   21.4890    9.5470 C   0  0  0  0  0  0  0  0  0  0  0  0
  -18.7360   22.8250    9.4380 C   0  0  0  0  0  3  0  0  0  0  0  0
  -17.9490   23.5230   10.3840 C   0  0  0  0  0  3  0  0  0  0  0  0
  -17.1850   22.5730   11.0180 C   0  0  0  0  0  3  0  0  0  0  0  0
  -17.4510   21.3370   10.5230 O   0  0  0  0  0  0  0  0  0  0  0  0
  -22.0670   19.0740   15.7510 O   0  0  0  0  0  0  0  0  0  0  0  0
  -22.5010   18.5120   16.9960 C   0  0  0  0  0  2  0  0  0  0  0  0
  -21.3380   18.5140   18.0100 C   0  0  1  0  0  3  0  0  0  0  0  0
  -21.4920   19.6720   18.9590 N   0  0  0  0  0  4  0  0  0  0  0  0
  -22.2940   19.5730   19.5940 H   0  0  0  0  0  0  0  0  0  0  0  0
  -21.6500   20.5330   18.4100 H   0  0  0  0  0  0  0  0  0  0  0  0
  -20.6460   19.8230   19.5240 H   0  0  0  0  0  0  0  0  0  0  0  0
  -21.2390   17.2110   18.8180 C   0  0  0  0  0  2  0  0  0  0  0  0
  -21.2810   15.9980   17.9520 C   0  0  0  0  0  0  0  0  0  0  0  0
  -22.1830   14.9580   18.0690 C   0  0  0  0  0  3  0  0  0  0  0  0
  -21.9030   14.0320   17.1000 N   0  0  0  0  0  0  0  0  0  0  0  0
  -20.8220   14.4390   16.3570 C   0  0  0  0  0  0  0  0  0  0  0  0
  -20.1830   13.8060   15.2850 C   0  0  0  0  0  3  0  0  0  0  0  0
  -19.1000   14.4590   14.6960 C   0  0  0  0  0  3  0  0  0  0  0  0
  -18.6820   15.7060   15.1530 C   0  0  0  0  0  3  0  0  0  0  0  0
  -19.3360   16.3310   16.2220 C   0  0  0  0  0  3  0  0  0  0  0  0
  -20.4210   15.6820   16.8510 C   0  0  0  0  0  0  0  0  0  0  0  0
  -22.4150   13.1730   16.9390 H   0  0  0  0  0  0  0  0  0  0  0  0
  1  2  1  0  0  0  0
  1 23  1  0  0  0  0
  3  2  2  0  0  0  0
  4  3  1  0  0  0  0
  5  4  2  0  0  0  0
  5  6  1  0  0  0  0
  6  1  2  0  0  0  0
  7  5  1  0  0  0  0
  8  7  1  0  0  0  0
  9  8  2  0  0  0  0
 10 11  2  0  0  0  0
 10  9  1  0  0  0  0
 11 12  1  0  0  0  0
 12  7  2  0  0  0  0
 13 18  1  1  0  0  0
 13 11  1  0  0  0  0
 14 16  1  0  0  0  0
 14 13  1  0  0  0  0
 15 14  2  0  0  0  0
 16 10  1  0  0  0  0
 17 16  1  0  0  0  0
 18 22  1  0  0  0  0
 19 18  2  0  0  0  0
 19 20  1  0  0  0  0
 20 21  2  0  0  0  0
 22 21  1  0  0  0  0
 23 24  1  0  0  0  0
 25 24  1  6  0  0  0
 25 30  1  0  0  0  0
 25 26  1  0  0  0  0
 26 29  1  0  0  0  0
 26 27  1  0  0  0  0
 28 26  1  0  0  0  0
 31 32  2  0  0  0  0
 31 30  1  0  0  0  0
 33 32  1  0  0  0  0
 34 39  1  0  0  0  0
 34 33  1  0  0  0  0
 35 34  2  0  0  0  0
 36 37  2  0  0  0  0
 36 35  1  0  0  0  0
 37 38  1  0  0  0  0
 38 39  2  0  0  0  0
 39 31  1  0  0  0  0
 40 33  1  0  0  0  0
M  END
>  <minimizedAffinity>
-10.3421907

$$$$
