
 OpenBabel11232420403D

 40 45  0  0  1  0  0  0  0  0999 V2000
  -19.9270   22.1600   11.6580 C   0  0  0  0  0  0  0  0  0  0  0  0
  -21.2290   22.6120   11.8430 C   0  0  0  0  0  3  0  0  0  0  0  0
  -22.2440   21.8390   12.2900 N   0  0  0  0  0  0  0  0  0  0  0  0
  -21.9620   20.5440   12.5510 C   0  0  0  0  0  3  0  0  0  0  0  0
  -20.7000   19.9810   12.4010 C   0  0  0  0  0  0  0  0  0  0  0  0
  -19.6710   20.8190   11.9390 C   0  0  0  0  0  3  0  0  0  0  0  0
  -20.4240   18.5830   12.7340 C   0  0  0  0  0  0  0  0  0  0  0  0
  -19.9820   17.6850   11.7310 C   0  0  0  0  0  3  0  0  0  0  0  0
  -19.7680   16.3310   12.0060 C   0  0  0  0  0  3  0  0  0  0  0  0
  -19.9990   15.9040   13.2960 C   0  0  0  0  0  0  0  0  0  0  0  0
  -20.4240   16.7640   14.3050 C   0  0  0  0  0  0  0  0  0  0  0  0
  -20.6340   18.1090   14.0410 C   0  0  0  0  0  3  0  0  0  0  0  0
  -20.5440   15.9980   15.6030 C   0  0  2  0  0  3  0  0  0  0  0  0
  -20.1520   14.5690   15.1520 C   0  0  0  0  0  0  0  0  0  0  0  0
  -20.0920   13.5600   15.8390 O   0  0  0  0  0  0  0  0  0  0  0  0
  -19.8480   14.6230   13.7950 N   0  0  0  0  0  0  0  0  0  0  0  0
  -19.5510   13.8090   13.2760 H   0  0  0  0  0  0  0  0  0  0  0  0
  -21.8910   15.9750   16.2430 C   0  0  0  0  0  0  0  0  0  0  0  0
  -23.1670   15.9460   15.7120 C   0  0  0  0  0  3  0  0  0  0  0  0
  -24.0630   15.8920   16.8040 C   0  0  0  0  0  3  0  0  0  0  0  0
  -23.2840   15.8840   17.9360 C   0  0  0  0  0  3  0  0  0  0  0  0
  -21.9670   15.9300   17.6090 O   0  0  0  0  0  0  0  0  0  0  0  0
  -19.0100   23.1050   11.2920 O   0  0  0  0  0  0  0  0  0  0  0  0
  -19.1170   23.7060    9.9950 C   0  0  0  0  0  2  0  0  0  0  0  0
  -18.2390   22.9410    8.9840 C   0  0  1  0  0  3  0  0  0  0  0  0
  -17.0300   22.3780    9.6830 N   0  0  0  0  0  4  0  0  0  0  0  0
  -17.2570   21.6240   10.3430 H   0  0  0  0  0  0  0  0  0  0  0  0
  -16.5830   23.1300   10.2310 H   0  0  0  0  0  0  0  0  0  0  0  0
  -16.3280   22.0280    9.0180 H   0  0  0  0  0  0  0  0  0  0  0  0
  -18.9870   21.8010    8.2760 C   0  0  0  0  0  2  0  0  0  0  0  0
  -18.1370   20.5900    8.0890 C   0  0  0  0  0  0  0  0  0  0  0  0
  -18.2840   19.3930    8.7620 C   0  0  0  0  0  3  0  0  0  0  0  0
  -17.3190   18.5270    8.3200 N   0  0  0  0  0  0  0  0  0  0  0  0
  -16.5310   19.1410    7.3770 C   0  0  0  0  0  0  0  0  0  0  0  0
  -15.4270   18.6460    6.6740 C   0  0  0  0  0  3  0  0  0  0  0  0
  -14.8120   19.4920    5.7500 C   0  0  0  0  0  3  0  0  0  0  0  0
  -15.2930   20.7790    5.5290 C   0  0  0  0  0  3  0  0  0  0  0  0
  -16.4050   21.2580    6.2340 C   0  0  0  0  0  3  0  0  0  0  0  0
  -17.0320   20.4300    7.1900 C   0  0  0  0  0  0  0  0  0  0  0  0
  -17.1990   17.5700    8.6280 H   0  0  0  0  0  0  0  0  0  0  0  0
  1  2  2  0  0  0  0
  1  6  1  0  0  0  0
  2  3  1  0  0  0  0
  3  4  2  0  0  0  0
  5  4  1  0  0  0  0
  5  7  1  0  0  0  0
  6  5  2  0  0  0  0
  7 12  1  0  0  0  0
  8  9  1  0  0  0  0
  8  7  2  0  0  0  0
  9 10  2  0  0  0  0
 10 16  1  0  0  0  0
 10 11  1  0  0  0  0
 11 13  1  0  0  0  0
 12 11  2  0  0  0  0
 13 18  1  6  0  0  0
 14 13  1  0  0  0  0
 14 15  2  0  0  0  0
 16 14  1  0  0  0  0
 17 16  1  0  0  0  0
 18 22  1  0  0  0  0
 19 18  2  0  0  0  0
 19 20  1  0  0  0  0
 20 21  2  0  0  0  0
 22 21  1  0  0  0  0
 23  1  1  0  0  0  0
 24 23  1  0  0  0  0
 25 30  1  1  0  0  0
 25 26  1  0  0  0  0
 25 24  1  0  0  0  0
 26 28  1  0  0  0  0
 26 27  1  0  0  0  0
 29 26  1  0  0  0  0
 31 30  1  0  0  0  0
 31 32  2  0  0  0  0
 33 40  1  0  0  0  0
 33 32  1  0  0  0  0
 34 33  1  0  0  0  0
 35 34  2  0  0  0  0
 36 35  1  0  0  0  0
 37 36  2  0  0  0  0
 37 38  1  0  0  0  0
 38 39  2  0  0  0  0
 39 34  1  0  0  0  0
 39 31  1  0  0  0  0
M  END
>  <minimizedAffinity>
-10.5543633

$$$$
