
 OpenBabel11232420403D

 40 45  0  0  1  0  0  0  0  0999 V2000
  -19.0120   18.6260    9.6230 C   0  0  0  0  0  0  0  0  0  0  0  0
  -18.6080   17.2970    9.5630 C   0  0  0  0  0  3  0  0  0  0  0  0
  -18.9650   16.3540   10.4640 N   0  0  0  0  0  0  0  0  0  0  0  0
  -19.7500   16.7500   11.4900 C   0  0  0  0  0  3  0  0  0  0  0  0
  -20.2120   18.0500   11.6540 C   0  0  0  0  0  0  0  0  0  0  0  0
  -19.8220   18.9990   10.6940 C   0  0  0  0  0  3  0  0  0  0  0  0
  -21.0950   18.4310   12.7570 C   0  0  0  0  0  0  0  0  0  0  0  0
  -21.5370   19.7720   12.8870 C   0  0  0  0  0  3  0  0  0  0  0  0
  -22.3320   20.1770   13.9630 C   0  0  0  0  0  3  0  0  0  0  0  0
  -22.6750   19.2190   14.8920 C   0  0  0  0  0  0  0  0  0  0  0  0
  -22.2650   17.8930   14.7870 C   0  0  0  0  0  0  0  0  0  0  0  0
  -21.4800   17.4820   13.7200 C   0  0  0  0  0  3  0  0  0  0  0  0
  -22.8390   17.0950   15.9350 C   0  0  2  0  0  3  0  0  0  0  0  0
  -23.6060   18.1910   16.7160 C   0  0  0  0  0  0  0  0  0  0  0  0
  -24.2520   18.0600   17.7440 O   0  0  0  0  0  0  0  0  0  0  0  0
  -23.4520   19.3880   16.0230 N   0  0  0  0  0  0  0  0  0  0  0  0
  -23.8760   20.2510   16.3350 H   0  0  0  0  0  0  0  0  0  0  0  0
  -21.8600   16.4220   16.8370 C   0  0  0  0  0  0  0  0  0  0  0  0
  -20.5660   16.7460   17.2030 C   0  0  0  0  0  3  0  0  0  0  0  0
  -20.1430   15.7590   18.1230 C   0  0  0  0  0  3  0  0  0  0  0  0
  -21.2020   14.8960   18.2700 C   0  0  0  0  0  3  0  0  0  0  0  0
  -22.2490   15.2900   17.5000 O   0  0  0  0  0  0  0  0  0  0  0  0
  -18.6340   19.4160    8.5740 O   0  0  0  0  0  0  0  0  0  0  0  0
  -17.3290   20.0080    8.5900 C   0  0  0  0  0  2  0  0  0  0  0  0
  -17.4390   21.5240    8.8560 C   0  0  1  0  0  3  0  0  0  0  0  0
  -16.3770   22.2560    8.0800 N   0  0  0  0  0  4  0  0  0  0  0  0
  -16.5270   22.2310    7.0640 H   0  0  0  0  0  0  0  0  0  0  0  0
  -15.4650   21.8040    8.2580 H   0  0  0  0  0  0  0  0  0  0  0  0
  -16.2920   23.2370    8.3740 H   0  0  0  0  0  0  0  0  0  0  0  0
  -18.8150   22.1020    8.4930 C   0  0  0  0  0  2  0  0  0  0  0  0
  -19.3570   22.9960    9.5560 C   0  0  0  0  0  0  0  0  0  0  0  0
  -20.3480   22.6630   10.4590 C   0  0  0  0  0  3  0  0  0  0  0  0
  -20.5730   23.7410   11.2730 N   0  0  0  0  0  0  0  0  0  0  0  0
  -19.7560   24.7840   10.9080 C   0  0  0  0  0  0  0  0  0  0  0  0
  -19.6560   26.0720   11.4460 C   0  0  0  0  0  3  0  0  0  0  0  0
  -18.7170   26.9400   10.8860 C   0  0  0  0  0  3  0  0  0  0  0  0
  -17.9000   26.5280    9.8370 C   0  0  0  0  0  3  0  0  0  0  0  0
  -18.0050   25.2320    9.3150 C   0  0  0  0  0  3  0  0  0  0  0  0
  -18.9620   24.3420    9.8490 C   0  0  0  0  0  0  0  0  0  0  0  0
  -21.2340   23.7760   12.0380 H   0  0  0  0  0  0  0  0  0  0  0  0
  1  6  1  0  0  0  0
  2  1  2  0  0  0  0
  2  3  1  0  0  0  0
  3  4  2  0  0  0  0
  4  5  1  0  0  0  0
  5  7  1  0  0  0  0
  6  5  2  0  0  0  0
  7  8  2  0  0  0  0
  7 12  1  0  0  0  0
  8  9  1  0  0  0  0
  9 10  2  0  0  0  0
 10 16  1  0  0  0  0
 11 10  1  0  0  0  0
 11 13  1  0  0  0  0
 12 11  2  0  0  0  0
 13 14  1  0  0  0  0
 13 18  1  1  0  0  0
 14 15  2  0  0  0  0
 16 17  1  0  0  0  0
 16 14  1  0  0  0  0
 18 19  2  0  0  0  0
 18 22  1  0  0  0  0
 19 20  1  0  0  0  0
 20 21  2  0  0  0  0
 22 21  1  0  0  0  0
 23 24  1  0  0  0  0
 23  1  1  0  0  0  0
 25 24  1  6  0  0  0
 25 30  1  0  0  0  0
 26 28  1  0  0  0  0
 26 29  1  0  0  0  0
 26 25  1  0  0  0  0
 27 26  1  0  0  0  0
 30 31  1  0  0  0  0
 31 39  1  0  0  0  0
 31 32  2  0  0  0  0
 32 33  1  0  0  0  0
 33 40  1  0  0  0  0
 34 33  1  0  0  0  0
 34 35  1  0  0  0  0
 36 35  2  0  0  0  0
 37 36  1  0  0  0  0
 38 37  2  0  0  0  0
 38 39  1  0  0  0  0
 39 34  2  0  0  0  0
M  END
>  <minimizedAffinity>
-10.6117821

$$$$
