
 OpenBabel11232420403D

 40 45  0  0  1  0  0  0  0  0999 V2000
  -21.3080   19.5620   12.8890 C   0  0  0  0  0  0  0  0  0  0  0  0
  -22.4850   20.2930   13.0120 C   0  0  0  0  0  3  0  0  0  0  0  0
  -22.6240   21.5800   12.6240 N   0  0  0  0  0  0  0  0  0  0  0  0
  -21.5350   22.1850   12.1010 C   0  0  0  0  0  3  0  0  0  0  0  0
  -20.3070   21.5560   11.9310 C   0  0  0  0  0  0  0  0  0  0  0  0
  -20.2050   20.2170   12.3430 C   0  0  0  0  0  3  0  0  0  0  0  0
  -19.1620   22.2340   11.3220 C   0  0  0  0  0  0  0  0  0  0  0  0
  -17.8910   21.6050   11.2980 C   0  0  0  0  0  3  0  0  0  0  0  0
  -16.7670   22.2520   10.7760 C   0  0  0  0  0  3  0  0  0  0  0  0
  -16.9430   23.5250   10.2790 C   0  0  0  0  0  0  0  0  0  0  0  0
  -18.1790   24.1650   10.2800 C   0  0  0  0  0  0  0  0  0  0  0  0
  -19.3000   23.5280   10.7910 C   0  0  0  0  0  3  0  0  0  0  0  0
  -18.0440   25.5240    9.6330 C   0  0  2  0  0  3  0  0  0  0  0  0
  -16.5310   25.5570    9.3030 C   0  0  0  0  0  0  0  0  0  0  0  0
  -15.9040   26.4560    8.7650 O   0  0  0  0  0  0  0  0  0  0  0  0
  -15.9840   24.3450    9.7140 N   0  0  0  0  0  0  0  0  0  0  0  0
  -15.0050   24.1250    9.5900 H   0  0  0  0  0  0  0  0  0  0  0  0
  -18.4030   26.7030   10.4740 C   0  0  0  0  0  0  0  0  0  0  0  0
  -18.3790   26.9050   11.8420 C   0  0  0  0  0  3  0  0  0  0  0  0
  -18.7910   28.2400   12.0640 C   0  0  0  0  0  3  0  0  0  0  0  0
  -19.0370   28.7750   10.8230 C   0  0  0  0  0  3  0  0  0  0  0  0
  -18.8010   27.8560    9.8520 O   0  0  0  0  0  0  0  0  0  0  0  0
  -21.3780   18.2450   13.2450 O   0  0  0  0  0  0  0  0  0  0  0  0
  -20.2670   17.3900   12.9480 C   0  0  0  0  0  2  0  0  0  0  0  0
  -20.5740   16.5410   11.6960 C   0  0  1  0  0  3  0  0  0  0  0  0
  -21.8430   15.7590   11.9090 N   0  0  0  0  0  4  0  0  0  0  0  0
  -22.6820   16.3500   11.9460 H   0  0  0  0  0  0  0  0  0  0  0  0
  -21.7820   15.2690   12.8160 H   0  0  0  0  0  0  0  0  0  0  0  0
  -21.9800   15.0430   11.1840 H   0  0  0  0  0  0  0  0  0  0  0  0
  -20.7090   17.3810   10.4160 C   0  0  0  0  0  2  0  0  0  0  0  0
  -19.4080   17.5540    9.7080 C   0  0  0  0  0  0  0  0  0  0  0  0
  -18.3930   16.6190    9.6490 C   0  0  0  0  0  3  0  0  0  0  0  0
  -17.3650   17.1420    8.9120 N   0  0  0  0  0  0  0  0  0  0  0  0
  -17.6820   18.4130    8.4980 C   0  0  0  0  0  0  0  0  0  0  0  0
  -16.9300   19.3210    7.7420 C   0  0  0  0  0  3  0  0  0  0  0  0
  -17.5090   20.5570    7.4480 C   0  0  0  0  0  3  0  0  0  0  0  0
  -18.7950   20.8660    7.8820 C   0  0  0  0  0  3  0  0  0  0  0  0
  -19.5380   19.9430    8.6300 C   0  0  0  0  0  3  0  0  0  0  0  0
  -18.9680   18.6940    8.9600 C   0  0  0  0  0  0  0  0  0  0  0  0
  -16.4970   16.6700    8.6900 H   0  0  0  0  0  0  0  0  0  0  0  0
  1  2  1  0  0  0  0
  1 23  1  0  0  0  0
  3  2  2  0  0  0  0
  4  3  1  0  0  0  0
  5  4  2  0  0  0  0
  5  6  1  0  0  0  0
  6  1  2  0  0  0  0
  7  5  1  0  0  0  0
  8  7  1  0  0  0  0
  9  8  2  0  0  0  0
 10 11  2  0  0  0  0
 10  9  1  0  0  0  0
 11 12  1  0  0  0  0
 12  7  2  0  0  0  0
 13 11  1  0  0  0  0
 13 18  1  1  0  0  0
 14 13  1  0  0  0  0
 14 16  1  0  0  0  0
 15 14  2  0  0  0  0
 16 10  1  0  0  0  0
 17 16  1  0  0  0  0
 18 19  2  0  0  0  0
 19 20  1  0  0  0  0
 21 20  2  0  0  0  0
 22 18  1  0  0  0  0
 22 21  1  0  0  0  0
 24 23  1  0  0  0  0
 25 30  1  6  0  0  0
 25 26  1  0  0  0  0
 25 24  1  0  0  0  0
 26 27  1  0  0  0  0
 26 28  1  0  0  0  0
 29 26  1  0  0  0  0
 31 30  1  0  0  0  0
 32 31  2  0  0  0  0
 33 32  1  0  0  0  0
 34 33  1  0  0  0  0
 34 39  1  0  0  0  0
 35 34  2  0  0  0  0
 36 35  1  0  0  0  0
 36 37  2  0  0  0  0
 37 38  1  0  0  0  0
 38 39  2  0  0  0  0
 39 31  1  0  0  0  0
 40 33  1  0  0  0  0
M  END
>  <minimizedAffinity>
-10.9249115

$$$$
