
 OpenBabel11232420403D

 40 45  0  0  1  0  0  0  0  0999 V2000
  -19.1080   22.4500   11.3250 C   0  0  0  0  0  0  0  0  0  0  0  0
  -20.4620   22.5960   11.6080 C   0  0  0  0  0  3  0  0  0  0  0  0
  -21.0700   23.7850   11.8150 N   0  0  0  0  0  0  0  0  0  0  0  0
  -20.2950   24.8910   11.7580 C   0  0  0  0  0  3  0  0  0  0  0  0
  -18.9320   24.8670   11.4850 C   0  0  0  0  0  0  0  0  0  0  0  0
  -18.3390   23.6120   11.2710 C   0  0  0  0  0  3  0  0  0  0  0  0
  -18.1340   26.0900   11.3910 C   0  0  0  0  0  0  0  0  0  0  0  0
  -16.8550   26.0620   10.7810 C   0  0  0  0  0  3  0  0  0  0  0  0
  -16.0460   27.2010   10.7290 C   0  0  0  0  0  3  0  0  0  0  0  0
  -16.5440   28.3570   11.2900 C   0  0  0  0  0  0  0  0  0  0  0  0
  -17.8000   28.4180   11.8880 C   0  0  0  0  0  0  0  0  0  0  0  0
  -18.6110   27.2940   11.9390 C   0  0  0  0  0  3  0  0  0  0  0  0
  -18.0630   29.8280   12.3660 C   0  0  2  0  0  3  0  0  0  0  0  0
  -16.7420   30.5360   11.9730 C   0  0  0  0  0  0  0  0  0  0  0  0
  -16.4430   31.7070   12.1470 O   0  0  0  0  0  0  0  0  0  0  0  0
  -15.9290   29.5940   11.3490 N   0  0  0  0  0  0  0  0  0  0  0  0
  -15.0130   29.8250   10.9900 H   0  0  0  0  0  0  0  0  0  0  0  0
  -18.3150   30.0020   13.8260 C   0  0  0  0  0  0  0  0  0  0  0  0
  -17.4800   29.9170   14.9250 C   0  0  0  0  0  3  0  0  0  0  0  0
  -18.2670   30.2220   16.0600 C   0  0  0  0  0  3  0  0  0  0  0  0
  -19.5310   30.4810   15.5890 C   0  0  0  0  0  3  0  0  0  0  0  0
  -19.5720   30.3550   14.2380 O   0  0  0  0  0  0  0  0  0  0  0  0
  -18.6850   21.1800   11.0480 O   0  0  0  0  0  0  0  0  0  0  0  0
  -19.6660   20.1550   10.8450 C   0  0  0  0  0  2  0  0  0  0  0  0
  -19.1120   19.0760    9.8910 C   0  0  1  0  0  3  0  0  0  0  0  0
  -19.9910   17.8540    9.9390 N   0  0  0  0  0  4  0  0  0  0  0  0
  -20.9210   18.0070    9.5310 H   0  0  0  0  0  0  0  0  0  0  0  0
  -20.1380   17.5900   10.9270 H   0  0  0  0  0  0  0  0  0  0  0  0
  -19.5570   17.0490    9.4700 H   0  0  0  0  0  0  0  0  0  0  0  0
  -18.9990   19.5570    8.4360 C   0  0  0  0  0  2  0  0  0  0  0  0
  -17.6520   19.2990    7.8530 C   0  0  0  0  0  0  0  0  0  0  0  0
  -16.7850   18.2980    8.2440 C   0  0  0  0  0  3  0  0  0  0  0  0
  -15.6520   18.3830    7.4790 N   0  0  0  0  0  0  0  0  0  0  0  0
  -15.7550   19.4350    6.6010 C   0  0  0  0  0  0  0  0  0  0  0  0
  -14.8380   19.8990    5.6510 C   0  0  0  0  0  3  0  0  0  0  0  0
  -15.2110   20.9940    4.8700 C   0  0  0  0  0  3  0  0  0  0  0  0
  -16.4590   21.5920    5.0250 C   0  0  0  0  0  3  0  0  0  0  0  0
  -17.3690   21.1100    5.9750 C   0  0  0  0  0  3  0  0  0  0  0  0
  -17.0080   20.0170    6.7930 C   0  0  0  0  0  0  0  0  0  0  0  0
  -14.8530   17.7630    7.5360 H   0  0  0  0  0  0  0  0  0  0  0  0
  1  2  1  0  0  0  0
  2  3  2  0  0  0  0
  4  3  1  0  0  0  0
  5  4  2  0  0  0  0
  6  1  2  0  0  0  0
  6  5  1  0  0  0  0
  7  5  1  0  0  0  0
  7 12  1  0  0  0  0
  8  7  2  0  0  0  0
  9  8  1  0  0  0  0
  9 10  2  0  0  0  0
 10 16  1  0  0  0  0
 10 11  1  0  0  0  0
 11 12  2  0  0  0  0
 11 13  1  0  0  0  0
 13 18  1  1  0  0  0
 14 15  2  0  0  0  0
 14 13  1  0  0  0  0
 16 14  1  0  0  0  0
 17 16  1  0  0  0  0
 18 22  1  0  0  0  0
 18 19  2  0  0  0  0
 19 20  1  0  0  0  0
 21 20  2  0  0  0  0
 22 21  1  0  0  0  0
 23  1  1  0  0  0  0
 24 23  1  0  0  0  0
 25 30  1  6  0  0  0
 25 26  1  0  0  0  0
 25 24  1  0  0  0  0
 26 28  1  0  0  0  0
 27 26  1  0  0  0  0
 29 26  1  0  0  0  0
 31 32  2  0  0  0  0
 31 30  1  0  0  0  0
 33 40  1  0  0  0  0
 33 32  1  0  0  0  0
 34 39  1  0  0  0  0
 34 33  1  0  0  0  0
 35 34  2  0  0  0  0
 36 37  2  0  0  0  0
 36 35  1  0  0  0  0
 37 38  1  0  0  0  0
 38 39  2  0  0  0  0
 39 31  1  0  0  0  0
M  END
>  <minimizedAffinity>
-10.6403828

$$$$
