
 OpenBabel11232420403D

 40 45  0  0  1  0  0  0  0  0999 V2000
  -18.4740   23.9450   10.6970 C   0  0  0  0  0  0  0  0  0  0  0  0
  -17.0990   23.9920   10.4940 C   0  0  0  0  0  3  0  0  0  0  0  0
  -16.3760   25.1330   10.4550 N   0  0  0  0  0  0  0  0  0  0  0  0
  -17.0510   26.2940   10.6070 C   0  0  0  0  0  3  0  0  0  0  0  0
  -18.4240   26.3700   10.8130 C   0  0  0  0  0  0  0  0  0  0  0  0
  -19.1380   25.1610   10.8510 C   0  0  0  0  0  3  0  0  0  0  0  0
  -19.1120   27.6450   11.0140 C   0  0  0  0  0  0  0  0  0  0  0  0
  -19.3270   28.5200    9.9200 C   0  0  0  0  0  3  0  0  0  0  0  0
  -19.9290   29.7710   10.0920 C   0  0  0  0  0  3  0  0  0  0  0  0
  -20.3120   30.1170   11.3690 C   0  0  0  0  0  0  0  0  0  0  0  0
  -20.1230   29.2760   12.4620 C   0  0  0  0  0  0  0  0  0  0  0  0
  -19.5320   28.0320   12.2990 C   0  0  0  0  0  3  0  0  0  0  0  0
  -20.6850   29.9290   13.7040 C   0  0  2  0  0  3  0  0  0  0  0  0
  -21.1850   31.2820   13.1390 C   0  0  0  0  0  0  0  0  0  0  0  0
  -21.7280   32.1900   13.7490 O   0  0  0  0  0  0  0  0  0  0  0  0
  -20.9260   31.2890   11.7720 N   0  0  0  0  0  0  0  0  0  0  0  0
  -21.1760   32.0680   11.1790 H   0  0  0  0  0  0  0  0  0  0  0  0
  -19.7280   30.1710   14.8230 C   0  0  0  0  0  0  0  0  0  0  0  0
  -18.3460   30.1830   14.8720 C   0  0  0  0  0  3  0  0  0  0  0  0
  -17.9870   30.5140   16.1990 C   0  0  0  0  0  3  0  0  0  0  0  0
  -19.1670   30.6900   16.8800 C   0  0  0  0  0  3  0  0  0  0  0  0
  -20.2280   30.4890   16.0570 O   0  0  0  0  0  0  0  0  0  0  0  0
  -19.0240   22.6980   10.8030 O   0  0  0  0  0  0  0  0  0  0  0  0
  -19.3110   21.9660    9.6050 C   0  0  0  0  0  2  0  0  0  0  0  0
  -18.8720   20.4950    9.7680 C   0  0  1  0  0  3  0  0  0  0  0  0
  -19.6930   19.8340   10.8430 N   0  0  0  0  0  4  0  0  0  0  0  0
  -20.6790   19.7090   10.5810 H   0  0  0  0  0  0  0  0  0  0  0  0
  -19.6810   20.4330   11.6850 H   0  0  0  0  0  0  0  0  0  0  0  0
  -19.3090   18.9200   11.1140 H   0  0  0  0  0  0  0  0  0  0  0  0
  -18.9950   19.6820    8.4700 C   0  0  0  0  0  2  0  0  0  0  0  0
  -17.6670   19.3400    7.8830 C   0  0  0  0  0  0  0  0  0  0  0  0
  -16.8730   18.2740    8.2570 C   0  0  0  0  0  3  0  0  0  0  0  0
  -15.7360   18.2920    7.4940 N   0  0  0  0  0  0  0  0  0  0  0  0
  -15.7640   19.3640    6.6340 C   0  0  0  0  0  0  0  0  0  0  0  0
  -14.8160   19.7790    5.6920 C   0  0  0  0  0  3  0  0  0  0  0  0
  -15.1100   20.9110    4.9300 C   0  0  0  0  0  3  0  0  0  0  0  0
  -16.3130   21.5910    5.0950 C   0  0  0  0  0  3  0  0  0  0  0  0
  -17.2560   21.1580    6.0360 C   0  0  0  0  0  3  0  0  0  0  0  0
  -16.9740   20.0290    6.8350 C   0  0  0  0  0  0  0  0  0  0  0  0
  -14.9830   17.6180    7.5410 H   0  0  0  0  0  0  0  0  0  0  0  0
  1 23  1  0  0  0  0
  1  6  1  0  0  0  0
  2  1  2  0  0  0  0
  3  2  1  0  0  0  0
  3  4  2  0  0  0  0
  4  5  1  0  0  0  0
  5  6  2  0  0  0  0
  5  7  1  0  0  0  0
  7 12  1  0  0  0  0
  8  9  1  0  0  0  0
  8  7  2  0  0  0  0
  9 10  2  0  0  0  0
 10 16  1  0  0  0  0
 10 11  1  0  0  0  0
 11 13  1  0  0  0  0
 12 11  2  0  0  0  0
 13 18  1  1  0  0  0
 14 13  1  0  0  0  0
 14 15  2  0  0  0  0
 16 14  1  0  0  0  0
 17 16  1  0  0  0  0
 18 19  2  0  0  0  0
 18 22  1  0  0  0  0
 19 20  1  0  0  0  0
 20 21  2  0  0  0  0
 22 21  1  0  0  0  0
 24 23  1  0  0  0  0
 25 24  1  6  0  0  0
 25 30  1  0  0  0  0
 25 26  1  0  0  0  0
 26 29  1  0  0  0  0
 26 28  1  0  0  0  0
 27 26  1  0  0  0  0
 31 32  2  0  0  0  0
 31 30  1  0  0  0  0
 33 40  1  0  0  0  0
 33 32  1  0  0  0  0
 34 39  1  0  0  0  0
 34 33  1  0  0  0  0
 35 34  2  0  0  0  0
 36 37  2  0  0  0  0
 36 35  1  0  0  0  0
 37 38  1  0  0  0  0
 38 39  2  0  0  0  0
 39 31  1  0  0  0  0
M  END
>  <minimizedAffinity>
-10.4991188

$$$$
