
 OpenBabel11232420403D

 40 45  0  0  1  0  0  0  0  0999 V2000
  -20.2580   15.4180   13.5770 C   0  0  0  0  0  0  0  0  0  0  0  0
  -21.4990   14.7970   13.4880 C   0  0  0  0  0  3  0  0  0  0  0  0
  -22.6540   15.4440   13.2150 N   0  0  0  0  0  0  0  0  0  0  0  0
  -22.5830   16.7810   13.0380 C   0  0  0  0  0  3  0  0  0  0  0  0
  -21.4000   17.5090   13.1050 C   0  0  0  0  0  0  0  0  0  0  0  0
  -20.2210   16.7990   13.3870 C   0  0  0  0  0  3  0  0  0  0  0  0
  -21.3570   18.9520   12.8660 C   0  0  0  0  0  0  0  0  0  0  0  0
  -22.5090   19.7460   13.0910 C   0  0  0  0  0  3  0  0  0  0  0  0
  -22.5160   21.1170   12.8160 C   0  0  0  0  0  3  0  0  0  0  0  0
  -21.3540   21.6680   12.3200 C   0  0  0  0  0  0  0  0  0  0  0  0
  -20.2040   20.9160   12.0970 C   0  0  0  0  0  0  0  0  0  0  0  0
  -20.1880   19.5570   12.3730 C   0  0  0  0  0  3  0  0  0  0  0  0
  -19.1010   21.8190   11.5920 C   0  0  2  0  0  3  0  0  0  0  0  0
  -19.8260   23.1860   11.5360 C   0  0  0  0  0  0  0  0  0  0  0  0
  -19.3650   24.2610   11.1850 O   0  0  0  0  0  0  0  0  0  0  0  0
  -21.1290   22.9910   11.9850 N   0  0  0  0  0  0  0  0  0  0  0  0
  -21.7960   23.7470   12.0500 H   0  0  0  0  0  0  0  0  0  0  0  0
  -18.5310   21.4930   10.2530 C   0  0  0  0  0  0  0  0  0  0  0  0
  -17.2270   21.3750    9.8060 C   0  0  0  0  0  3  0  0  0  0  0  0
  -17.2950   21.0040    8.4430 C   0  0  0  0  0  3  0  0  0  0  0  0
  -18.6310   20.9110    8.1400 C   0  0  0  0  0  3  0  0  0  0  0  0
  -19.3900   21.2010    9.2280 O   0  0  0  0  0  0  0  0  0  0  0  0
  -19.1850   14.5930   13.7650 O   0  0  0  0  0  0  0  0  0  0  0  0
  -18.4350   14.7030   14.9810 C   0  0  0  0  0  2  0  0  0  0  0  0
  -18.9940   13.7250   16.0360 C   0  0  1  0  0  3  0  0  0  0  0  0
  -17.9180   12.7590   16.4570 N   0  0  0  0  0  4  0  0  0  0  0  0
  -17.1620   13.2030   16.9930 H   0  0  0  0  0  0  0  0  0  0  0  0
  -17.4870   12.3540   15.6100 H   0  0  0  0  0  0  0  0  0  0  0  0
  -18.2950   11.9790   17.0090 H   0  0  0  0  0  0  0  0  0  0  0  0
  -19.5490   14.4330   17.2820 C   0  0  0  0  0  2  0  0  0  0  0  0
  -20.9630   14.8710   17.1070 C   0  0  0  0  0  0  0  0  0  0  0  0
  -22.0660   14.0390   17.0920 C   0  0  0  0  0  3  0  0  0  0  0  0
  -23.1850   14.8070   16.9090 N   0  0  0  0  0  0  0  0  0  0  0  0
  -22.8340   16.1300   16.7890 C   0  0  0  0  0  0  0  0  0  0  0  0
  -23.6410   17.2530   16.5770 C   0  0  0  0  0  3  0  0  0  0  0  0
  -23.0140   18.4990   16.5090 C   0  0  0  0  0  3  0  0  0  0  0  0
  -21.6360   18.6160   16.6610 C   0  0  0  0  0  3  0  0  0  0  0  0
  -20.8420   17.4820   16.8810 C   0  0  0  0  0  3  0  0  0  0  0  0
  -21.4480   16.2080   16.9330 C   0  0  0  0  0  0  0  0  0  0  0  0
  -24.1370   14.4640   16.8740 H   0  0  0  0  0  0  0  0  0  0  0  0
  1 23  1  0  0  0  0
  2  1  1  0  0  0  0
  3  2  2  0  0  0  0
  4  5  2  0  0  0  0
  4  3  1  0  0  0  0
  5  6  1  0  0  0  0
  6  1  2  0  0  0  0
  7  8  1  0  0  0  0
  7  5  1  0  0  0  0
  9  8  2  0  0  0  0
 10  9  1  0  0  0  0
 11 10  2  0  0  0  0
 11 12  1  0  0  0  0
 12  7  2  0  0  0  0
 13 18  1  6  0  0  0
 13 11  1  0  0  0  0
 14 13  1  0  0  0  0
 14 16  1  0  0  0  0
 15 14  2  0  0  0  0
 16 17  1  0  0  0  0
 16 10  1  0  0  0  0
 19 18  2  0  0  0  0
 20 19  1  0  0  0  0
 21 20  2  0  0  0  0
 21 22  1  0  0  0  0
 22 18  1  0  0  0  0
 23 24  1  0  0  0  0
 25 24  1  6  0  0  0
 25 26  1  0  0  0  0
 25 30  1  0  0  0  0
 26 27  1  0  0  0  0
 26 29  1  0  0  0  0
 28 26  1  0  0  0  0
 31 30  1  0  0  0  0
 32 31  2  0  0  0  0
 33 32  1  0  0  0  0
 34 33  1  0  0  0  0
 34 39  1  0  0  0  0
 35 34  2  0  0  0  0
 36 35  1  0  0  0  0
 36 37  2  0  0  0  0
 37 38  1  0  0  0  0
 38 39  2  0  0  0  0
 39 31  1  0  0  0  0
 40 33  1  0  0  0  0
M  END
>  <minimizedAffinity>
-10.6787472

$$$$
