
 OpenBabel10152418203D

 35 38  0  0  0  0  0  0  0  0999 V2000
    4.3500   -9.5950  -26.7360 C   0  0  0  0  0  2  0  0  0  0  0  0
   -0.7370   -9.9130  -23.3480 C   0  0  0  0  0  0  0  0  0  0  0  0
   -1.0780  -11.2580  -23.5560 C   0  0  0  0  0  3  0  0  0  0  0  0
   -0.2910  -12.0390  -24.3840 C   0  0  0  0  0  3  0  0  0  0  0  0
    0.8300  -11.4720  -24.9820 C   0  0  0  0  0  3  0  0  0  0  0  0
    1.1890  -10.1130  -24.7590 C   0  0  0  0  0  0  0  0  0  0  0  0
    2.3320   -9.4920  -25.3070 C   0  0  0  0  0  0  0  0  0  0  0  0
    3.2140  -10.2260  -26.0930 N   0  0  0  0  0  0  0  0  0  0  0  0
    2.5970   -8.1910  -25.1120 N   0  0  0  0  0  0  0  0  0  0  0  0
    1.7590   -7.5180  -24.3220 C   0  0  0  0  0  3  0  0  0  0  0  0
    0.6870   -8.0190  -23.7060 N   0  0  0  0  0  0  0  0  0  0  0  0
    0.3810   -9.3070  -23.9370 C   0  0  0  0  0  0  0  0  0  0  0  0
    3.3550  -11.1870  -25.8120 H   0  0  0  0  0  0  0  0  0  0  0  0
   -1.0140   -8.5100  -21.4180 N   0  0  0  0  0  0  0  0  0  0  0  0
   -1.6260   -9.1230  -22.4770 C   0  0  0  0  0  0  0  0  0  0  0  0
   -2.8350   -9.0740  -22.6500 O   0  0  0  0  0  0  0  0  0  0  0  0
   -1.5950   -7.9620  -20.7980 H   0  0  0  0  0  0  0  0  0  0  0  0
   -0.0150   -8.5230  -21.2700 H   0  0  0  0  0  0  0  0  0  0  0  0
    3.8600   -8.9580  -28.0180 C   0  0  0  0  0  0  0  0  0  0  0  0
    3.8890   -9.6540  -29.2290 C   0  0  0  0  0  3  0  0  0  0  0  0
    3.5470   -9.0020  -30.4120 C   0  0  0  0  0  3  0  0  0  0  0  0
    3.1790   -7.6520  -30.3990 C   0  0  0  0  0  3  0  0  0  0  0  0
    3.1150   -6.9440  -29.1990 C   0  0  0  0  0  0  0  0  0  0  0  0
    3.4730   -7.6060  -28.0170 C   0  0  0  0  0  3  0  0  0  0  0  0
    2.7930   -5.5800  -29.0730 N   0  0  0  0  0  0  0  0  0  0  0  0
    1.6950   -4.9050  -28.6020 C   0  0  0  0  0  0  0  0  0  0  0  0
    1.5710   -3.7030  -28.8410 O   0  0  0  0  0  0  0  0  0  0  0  0
    3.4710   -4.9280  -29.4530 H   0  0  0  0  0  0  0  0  0  0  0  0
    0.6700   -5.5490  -27.7670 C   0  0  0  0  0  0  0  0  0  0  0  0
    0.0360   -4.7880  -26.7790 C   0  0  0  0  0  3  0  0  0  0  0  0
   -0.9160   -5.3840  -25.9500 C   0  0  0  0  0  3  0  0  0  0  0  0
   -1.2120   -6.7390  -26.1000 C   0  0  0  0  0  0  0  0  0  0  0  0
   -2.3890   -7.4720  -25.0800 Cl  0  0  0  0  0  0  0  0  0  0  0  0
   -0.5570   -7.5090  -27.0650 C   0  0  0  0  0  3  0  0  0  0  0  0
    0.3960   -6.9160  -27.8960 C   0  0  0  0  0  3  0  0  0  0  0  0
  1  8  1  0  0  0  0
  2 15  1  0  0  0  0
  3  2  1  0  0  0  0
  4  3  2  0  0  0  0
  5  6  2  0  0  0  0
  5  4  1  0  0  0  0
  6 12  1  0  0  0  0
  7  9  2  0  0  0  0
  7  6  1  0  0  0  0
  8 13  1  0  0  0  0
  8  7  1  0  0  0  0
  9 10  1  0  0  0  0
 10 11  2  0  0  0  0
 12 11  1  0  0  0  0
 12  2  2  0  0  0  0
 14 18  1  0  0  0  0
 14 17  1  0  0  0  0
 15 14  1  0  0  0  0
 16 15  2  0  0  0  0
 19 24  1  0  0  0  0
 19  1  1  0  0  0  0
 20 19  2  0  0  0  0
 21 22  2  0  0  0  0
 21 20  1  0  0  0  0
 22 23  1  0  0  0  0
 23 25  1  0  0  0  0
 23 24  2  0  0  0  0
 25 26  1  0  0  0  0
 26 29  1  0  0  0  0
 27 26  2  0  0  0  0
 28 25  1  0  0  0  0
 29 30  1  0  0  0  0
 30 31  2  0  0  0  0
 32 31  1  0  0  0  0
 32 33  1  0  0  0  0
 34 32  2  0  0  0  0
 35 29  2  0  0  0  0
 35 34  1  0  0  0  0
M  END
>  <minimizedAffinity>
-7.56250286

$$$$
