
 OpenBabel10152418203D

 35 38  0  0  0  0  0  0  0  0999 V2000
    0.3120   -5.8600  -24.4800 C   0  0  0  0  0  2  0  0  0  0  0  0
    3.7950   -7.9920  -29.0390 C   0  0  0  0  0  0  0  0  0  0  0  0
    4.5520   -8.9430  -28.3370 C   0  0  0  0  0  3  0  0  0  0  0  0
    4.3510   -9.1010  -26.9770 C   0  0  0  0  0  3  0  0  0  0  0  0
    3.3920   -8.3190  -26.3400 C   0  0  0  0  0  3  0  0  0  0  0  0
    2.6110   -7.3670  -27.0530 C   0  0  0  0  0  0  0  0  0  0  0  0
    1.6000   -6.5720  -26.4710 C   0  0  0  0  0  0  0  0  0  0  0  0
    1.2870   -6.7190  -25.1240 N   0  0  0  0  0  0  0  0  0  0  0  0
    0.9290   -5.6480  -27.1740 N   0  0  0  0  0  0  0  0  0  0  0  0
    1.2180   -5.5520  -28.4730 C   0  0  0  0  0  3  0  0  0  0  0  0
    2.1090   -6.2930  -29.1360 N   0  0  0  0  0  0  0  0  0  0  0  0
    2.8250   -7.1850  -28.4300 C   0  0  0  0  0  0  0  0  0  0  0  0
    1.3350   -7.6630  -24.7650 H   0  0  0  0  0  0  0  0  0  0  0  0
    4.9430   -6.8500  -30.8140 N   0  0  0  0  0  0  0  0  0  0  0  0
    4.0700   -7.8490  -30.4810 C   0  0  0  0  0  0  0  0  0  0  0  0
    3.5060   -8.5310  -31.3230 O   0  0  0  0  0  0  0  0  0  0  0  0
    5.1520   -6.7230  -31.7950 H   0  0  0  0  0  0  0  0  0  0  0  0
    5.4320   -6.2890  -30.1310 H   0  0  0  0  0  0  0  0  0  0  0  0
   -0.7010   -6.7480  -23.7920 C   0  0  0  0  0  0  0  0  0  0  0  0
   -1.0290   -6.5640  -22.4460 C   0  0  0  0  0  3  0  0  0  0  0  0
   -1.8710   -7.4700  -21.8070 C   0  0  0  0  0  3  0  0  0  0  0  0
   -2.3900   -8.5700  -22.5000 C   0  0  0  0  0  3  0  0  0  0  0  0
   -2.1000   -8.7600  -23.8500 C   0  0  0  0  0  0  0  0  0  0  0  0
   -1.2420   -7.8490  -24.4800 C   0  0  0  0  0  3  0  0  0  0  0  0
   -2.5360   -9.8440  -24.6330 N   0  0  0  0  0  0  0  0  0  0  0  0
   -1.8880  -10.7950  -25.3820 C   0  0  0  0  0  0  0  0  0  0  0  0
   -2.5270  -11.4820  -26.1780 O   0  0  0  0  0  0  0  0  0  0  0  0
   -3.5410   -9.9410  -24.7360 H   0  0  0  0  0  0  0  0  0  0  0  0
   -0.4500  -11.0700  -25.2360 C   0  0  0  0  0  0  0  0  0  0  0  0
    0.3220  -11.2290  -26.3910 C   0  0  0  0  0  3  0  0  0  0  0  0
    1.6820  -11.5240  -26.2800 C   0  0  0  0  0  3  0  0  0  0  0  0
    2.2550  -11.6790  -25.0170 C   0  0  0  0  0  0  0  0  0  0  0  0
    3.9320  -12.0390  -24.8810 Cl  0  0  0  0  0  0  0  0  0  0  0  0
    1.4790  -11.5520  -23.8620 C   0  0  0  0  0  3  0  0  0  0  0  0
    0.1180  -11.2560  -23.9700 C   0  0  0  0  0  3  0  0  0  0  0  0
  1 19  1  0  0  0  0
  2 12  2  0  0  0  0
  2  3  1  0  0  0  0
  3  4  2  0  0  0  0
  4  5  1  0  0  0  0
  6  7  1  0  0  0  0
  6  5  2  0  0  0  0
  7  8  1  0  0  0  0
  8 13  1  0  0  0  0
  8  1  1  0  0  0  0
  9  7  2  0  0  0  0
 10  9  1  0  0  0  0
 11 10  2  0  0  0  0
 11 12  1  0  0  0  0
 12  6  1  0  0  0  0
 14 15  1  0  0  0  0
 14 18  1  0  0  0  0
 15  2  1  0  0  0  0
 16 15  2  0  0  0  0
 17 14  1  0  0  0  0
 19 20  1  0  0  0  0
 20 21  2  0  0  0  0
 22 21  1  0  0  0  0
 23 22  2  0  0  0  0
 24 23  1  0  0  0  0
 24 19  2  0  0  0  0
 25 23  1  0  0  0  0
 26 29  1  0  0  0  0
 26 25  1  0  0  0  0
 27 26  2  0  0  0  0
 28 25  1  0  0  0  0
 29 35  1  0  0  0  0
 30 31  1  0  0  0  0
 30 29  2  0  0  0  0
 31 32  2  0  0  0  0
 32 33  1  0  0  0  0
 32 34  1  0  0  0  0
 35 34  2  0  0  0  0
M  END
>  <minimizedAffinity>
-9.00462627

$$$$
