
 OpenBabel10152418203D

 35 38  0  0  0  0  0  0  0  0999 V2000
    2.2570  -10.4150  -26.8170 C   0  0  0  0  0  2  0  0  0  0  0  0
   -1.9110  -10.1600  -22.3430 C   0  0  0  0  0  0  0  0  0  0  0  0
   -2.6950   -9.0920  -22.8070 C   0  0  0  0  0  3  0  0  0  0  0  0
   -2.3430   -8.4520  -23.9830 C   0  0  0  0  0  3  0  0  0  0  0  0
   -1.2240   -8.8930  -24.6840 C   0  0  0  0  0  3  0  0  0  0  0  0
   -0.4380   -9.9870  -24.2240 C   0  0  0  0  0  0  0  0  0  0  0  0
    0.6840  -10.5020  -24.9070 C   0  0  0  0  0  0  0  0  0  0  0  0
    1.0620   -9.9620  -26.1320 N   0  0  0  0  0  0  0  0  0  0  0  0
    1.4260  -11.5010  -24.4050 N   0  0  0  0  0  0  0  0  0  0  0  0
    1.0200  -12.0300  -23.2500 C   0  0  0  0  0  3  0  0  0  0  0  0
   -0.0570  -11.6620  -22.5520 N   0  0  0  0  0  0  0  0  0  0  0  0
   -0.7770  -10.6280  -23.0190 C   0  0  0  0  0  0  0  0  0  0  0  0
    0.3050   -9.6680  -26.7340 H   0  0  0  0  0  0  0  0  0  0  0  0
   -2.0160  -10.0750  -19.9440 N   0  0  0  0  0  0  0  0  0  0  0  0
   -2.3200  -10.7870  -21.0720 C   0  0  0  0  0  0  0  0  0  0  0  0
   -2.8320  -11.8950  -21.0260 O   0  0  0  0  0  0  0  0  0  0  0  0
   -2.2800  -10.4770  -19.0550 H   0  0  0  0  0  0  0  0  0  0  0  0
   -1.6100   -9.1500  -19.9640 H   0  0  0  0  0  0  0  0  0  0  0  0
    2.9800   -9.1940  -27.3410 C   0  0  0  0  0  0  0  0  0  0  0  0
    4.3570   -9.0350  -27.1640 C   0  0  0  0  0  3  0  0  0  0  0  0
    4.9730   -7.8470  -27.5480 C   0  0  0  0  0  3  0  0  0  0  0  0
    4.2240   -6.8050  -28.1070 C   0  0  0  0  0  3  0  0  0  0  0  0
    2.8540   -6.9500  -28.3200 C   0  0  0  0  0  0  0  0  0  0  0  0
    2.2420   -8.1450  -27.9190 C   0  0  0  0  0  3  0  0  0  0  0  0
    2.0000   -5.9610  -28.8400 N   0  0  0  0  0  0  0  0  0  0  0  0
    0.8730   -5.3360  -28.3670 C   0  0  0  0  0  0  0  0  0  0  0  0
    0.1700   -4.6830  -29.1380 O   0  0  0  0  0  0  0  0  0  0  0  0
    2.1950   -5.6610  -29.7900 H   0  0  0  0  0  0  0  0  0  0  0  0
    0.4890   -5.3690  -26.9470 C   0  0  0  0  0  0  0  0  0  0  0  0
    1.0240   -6.3730  -26.1330 C   0  0  0  0  0  3  0  0  0  0  0  0
    0.6500   -6.4470  -24.7900 C   0  0  0  0  0  3  0  0  0  0  0  0
   -0.2690   -5.5310  -24.2760 C   0  0  0  0  0  0  0  0  0  0  0  0
   -0.7260   -5.6200  -22.6200 Cl  0  0  0  0  0  0  0  0  0  0  0  0
   -0.8280   -4.5470  -25.0960 C   0  0  0  0  0  3  0  0  0  0  0  0
   -0.4560   -4.4700  -26.4400 C   0  0  0  0  0  3  0  0  0  0  0  0
  1  8  1  0  0  0  0
  2 15  1  0  0  0  0
  3  2  1  0  0  0  0
  4  3  2  0  0  0  0
  5  6  2  0  0  0  0
  5  4  1  0  0  0  0
  6 12  1  0  0  0  0
  7  9  2  0  0  0  0
  7  6  1  0  0  0  0
  8  7  1  0  0  0  0
  9 10  1  0  0  0  0
 10 11  2  0  0  0  0
 12 11  1  0  0  0  0
 12  2  2  0  0  0  0
 13  8  1  0  0  0  0
 14 17  1  0  0  0  0
 15 16  2  0  0  0  0
 15 14  1  0  0  0  0
 18 14  1  0  0  0  0
 19 20  1  0  0  0  0
 19  1  1  0  0  0  0
 21 20  2  0  0  0  0
 22 21  1  0  0  0  0
 23 22  2  0  0  0  0
 23 24  1  0  0  0  0
 24 19  2  0  0  0  0
 25 26  1  0  0  0  0
 25 23  1  0  0  0  0
 26 29  1  0  0  0  0
 27 26  2  0  0  0  0
 28 25  1  0  0  0  0
 29 35  2  0  0  0  0
 29 30  1  0  0  0  0
 30 31  2  0  0  0  0
 31 32  1  0  0  0  0
 32 33  1  0  0  0  0
 34 32  2  0  0  0  0
 35 34  1  0  0  0  0
M  END
>  <minimizedAffinity>
-7.4254365

$$$$
