
 OpenBabel11232420513D

 41 46  0  0  1  0  0  0  0  0999 V2000
  -20.4350   15.8120   14.2040 C   0  0  0  0  0  0  0  0  0  0  0  0
  -19.8020   15.7870   12.9690 N   0  0  0  0  0  0  0  0  0  0  0  0
  -19.9300   16.9950   12.4710 C   0  0  0  0  0  0  0  0  0  0  0  0
  -20.6280   17.7980   13.3230 N   0  0  0  0  0  0  0  0  0  0  0  0
  -20.9470   17.0820   14.4550 C   0  0  0  0  0  0  0  0  0  0  0  0
  -20.8000   19.2160   13.0670 C   0  0  0  0  0  2  0  0  0  0  0  0
  -20.7200   19.5660   11.6670 O   0  0  0  0  0  0  0  0  0  0  0  0
  -19.8490   18.8420   10.8930 C   0  0  0  0  0  0  0  0  0  0  0  0
  -19.4350   19.4280    9.6960 C   0  0  0  0  0  3  0  0  0  0  0  0
  -18.5700   18.7290    8.8440 C   0  0  0  0  0  0  0  0  0  0  0  0
  -18.1590   17.4310    9.1880 C   0  0  0  0  0  3  0  0  0  0  0  0
  -18.5920   16.8410   10.3770 C   0  0  0  0  0  3  0  0  0  0  0  0
  -19.4370   17.5480   11.2320 C   0  0  0  0  0  0  0  0  0  0  0  0
  -20.3060   12.3000   16.7810 C   0  0  0  0  0  0  0  0  0  0  0  0
  -19.1660   12.8470   16.1530 C   0  0  0  0  0  3  0  0  0  0  0  0
  -19.2310   13.9770   15.3250 C   0  0  0  0  0  3  0  0  0  0  0  0
  -20.4450   14.6170   15.0490 C   0  0  0  0  0  0  0  0  0  0  0  0
  -21.5930   14.0580   15.6060 C   0  0  0  0  0  3  0  0  0  0  0  0
  -21.5200   12.9370   16.4510 C   0  0  0  0  0  3  0  0  0  0  0  0
  -19.0440   10.5200   21.0010 C   0  0  0  0  0  1  0  0  0  0  0  0
  -19.3400   11.3270   19.7460 C   0  0  1  0  0  0  0  0  0  0  0  0
  -18.8770   10.6370   18.4360 C   0  0  0  0  0  2  0  0  0  0  0  0
  -20.2320   11.0470   17.7830 C   0  0  1  0  0  0  0  0  0  0  0  0
  -20.7960   11.2280   19.2200 C   0  0  0  0  0  2  0  0  0  0  0  0
  -20.8300    9.8670   17.1010 N   0  0  0  0  0  4  0  0  0  0  0  0
  -21.8450    9.9720   16.9830 H   0  0  0  0  0  0  0  0  0  0  0  0
  -20.4260    9.7550   16.1600 H   0  0  0  0  0  0  0  0  0  0  0  0
  -20.6750    8.9870   17.6080 H   0  0  0  0  0  0  0  0  0  0  0  0
  -18.8410   12.6680   19.9010 O   0  0  0  0  0  0  0  0  0  0  0  0
  -19.1870   13.0020   20.7510 H   0  0  0  0  0  0  0  0  0  0  0  0
  -21.6240   17.6880   15.5930 C   0  0  0  0  0  0  0  0  0  0  0  0
  -20.8840   18.1730   16.6770 C   0  0  0  0  0  3  0  0  0  0  0  0
  -21.5360   18.7410   17.7720 C   0  0  0  0  0  3  0  0  0  0  0  0
  -22.9280   18.8270   17.7880 C   0  0  0  0  0  3  0  0  0  0  0  0
  -23.6700   18.3440   16.7110 C   0  0  0  0  0  3  0  0  0  0  0  0
  -23.0210   17.7730   15.6160 C   0  0  0  0  0  3  0  0  0  0  0  0
  -18.0770   19.2980    7.5610 C   0  0  0  0  0  0  0  0  0  0  0  0
  -18.3420   20.6110    7.2930 N   0  0  0  0  0  0  0  0  0  0  0  0
  -17.4260   18.6230    6.7730 O   0  0  0  0  0  0  0  0  0  0  0  0
  -17.9900   20.9790    6.4190 H   0  0  0  0  0  0  0  0  0  0  0  0
  -18.7990   21.2510    7.9250 H   0  0  0  0  0  0  0  0  0  0  0  0
  1  5  2  0  0  0  0
  1 17  1  0  0  0  0
  2  1  1  0  0  0  0
  3  2  2  0  0  0  0
  3  4  1  0  0  0  0
  4  5  1  0  0  0  0
  5 31  1  0  0  0  0
  6  4  1  0  0  0  0
  7  6  1  0  0  0  0
  8 13  1  0  0  0  0
  8  7  1  0  0  0  0
  9  8  2  0  0  0  0
 10 11  2  0  0  0  0
 10  9  1  0  0  0  0
 11 12  1  0  0  0  0
 12 13  2  0  0  0  0
 13  3  1  0  0  0  0
 14 23  1  0  0  0  0
 15 14  2  0  0  0  0
 16 15  1  0  0  0  0
 17 16  2  0  0  0  0
 17 18  1  0  0  0  0
 18 19  2  0  0  0  0
 19 14  1  0  0  0  0
 21 29  1  0  0  0  0
 21 20  1  1  0  0  0
 22 21  1  0  0  0  0
 23 25  1  6  0  0  0
 23 22  1  0  0  0  0
 23 24  1  0  0  0  0
 24 21  1  0  0  0  0
 25 28  1  0  0  0  0
 26 25  1  0  0  0  0
 27 25  1  0  0  0  0
 29 30  1  0  0  0  0
 31 36  2  0  0  0  0
 31 32  1  0  0  0  0
 32 33  2  0  0  0  0
 33 34  1  0  0  0  0
 35 34  2  0  0  0  0
 36 35  1  0  0  0  0
 37 10  1  0  0  0  0
 38 37  1  0  0  0  0
 38 41  1  0  0  0  0
 39 37  2  0  0  0  0
 40 38  1  0  0  0  0
M  END
>  <minimizedAffinity>
-10.657012

$$$$
