
 OpenBabel11232420513D

 41 46  0  0  1  0  0  0  0  0999 V2000
  -19.2710   21.0010   10.6800 C   0  0  0  0  0  0  0  0  0  0  0  0
  -19.9610   20.4830   11.7680 N   0  0  0  0  0  0  0  0  0  0  0  0
  -20.0880   19.1970   11.5380 C   0  0  0  0  0  0  0  0  0  0  0  0
  -19.5230   18.8600   10.3450 N   0  0  0  0  0  0  0  0  0  0  0  0
  -18.9670   19.9860    9.7770 C   0  0  0  0  0  0  0  0  0  0  0  0
  -19.4170   17.4790    9.9130 C   0  0  0  0  0  2  0  0  0  0  0  0
  -20.4150   16.6120   10.4950 O   0  0  0  0  0  0  0  0  0  0  0  0
  -20.8060   16.8880   11.7810 C   0  0  0  0  0  0  0  0  0  0  0  0
  -21.4030   15.8470   12.4940 C   0  0  0  0  0  3  0  0  0  0  0  0
  -21.8530   16.0710   13.8020 C   0  0  0  0  0  0  0  0  0  0  0  0
  -21.7320   17.3510   14.3650 C   0  0  0  0  0  3  0  0  0  0  0  0
  -21.1530   18.3940   13.6400 C   0  0  0  0  0  3  0  0  0  0  0  0
  -20.6880   18.1620   12.3470 C   0  0  0  0  0  0  0  0  0  0  0  0
  -18.4220   25.2730   10.5570 C   0  0  0  0  0  0  0  0  0  0  0  0
  -19.5600   24.6890    9.9600 C   0  0  0  0  0  3  0  0  0  0  0  0
  -19.8120   23.3090   10.0100 C   0  0  0  0  0  3  0  0  0  0  0  0
  -18.9280   22.4230   10.6360 C   0  0  0  0  0  0  0  0  0  0  0  0
  -17.7660   22.9690   11.1780 C   0  0  0  0  0  3  0  0  0  0  0  0
  -17.5280   24.3540   11.1420 C   0  0  0  0  0  3  0  0  0  0  0  0
  -19.9840   29.6660   11.4720 C   0  0  0  0  0  1  0  0  0  0  0  0
  -19.7350   28.1790   11.2680 C   0  0  1  0  0  0  0  0  0  0  0  0
  -19.1640   27.8280    9.8690 C   0  0  0  0  0  2  0  0  0  0  0  0
  -18.1590   26.8580   10.5620 C   0  0  1  0  0  0  0  0  0  0  0  0
  -18.4180   27.6360   11.8830 C   0  0  0  0  0  2  0  0  0  0  0  0
  -16.7890   27.1060   10.0380 N   0  0  0  0  0  4  0  0  0  0  0  0
  -16.0670   26.7780   10.6910 H   0  0  0  0  0  0  0  0  0  0  0  0
  -16.6470   26.5980    9.1520 H   0  0  0  0  0  0  0  0  0  0  0  0
  -16.6000   28.0990    9.8540 H   0  0  0  0  0  0  0  0  0  0  0  0
  -20.9170   27.4360   11.6130 O   0  0  0  0  0  0  0  0  0  0  0  0
  -21.1910   27.7360   12.5020 H   0  0  0  0  0  0  0  0  0  0  0  0
  -18.2140   19.9380    8.5320 C   0  0  0  0  0  0  0  0  0  0  0  0
  -18.4500   20.8820    7.5270 C   0  0  0  0  0  3  0  0  0  0  0  0
  -17.7360   20.8250    6.3300 C   0  0  0  0  0  3  0  0  0  0  0  0
  -16.7840   19.8250    6.1330 C   0  0  0  0  0  3  0  0  0  0  0  0
  -16.5460   18.8800    7.1300 C   0  0  0  0  0  3  0  0  0  0  0  0
  -17.2600   18.9340    8.3270 C   0  0  0  0  0  3  0  0  0  0  0  0
  -22.4850   15.0050   14.6250 C   0  0  0  0  0  0  0  0  0  0  0  0
  -21.7910   13.8440   14.8200 N   0  0  0  0  0  0  0  0  0  0  0  0
  -23.5840   15.1660   15.1400 O   0  0  0  0  0  0  0  0  0  0  0  0
  -22.2360   13.1360   15.3900 H   0  0  0  0  0  0  0  0  0  0  0  0
  -20.8510   13.6700   14.4980 H   0  0  0  0  0  0  0  0  0  0  0  0
  1  2  1  0  0  0  0
  3  2  2  0  0  0  0
  3 13  1  0  0  0  0
  4  3  1  0  0  0  0
  5  4  1  0  0  0  0
  5  1  2  0  0  0  0
  6  4  1  0  0  0  0
  6  7  1  0  0  0  0
  7  8  1  0  0  0  0
  8 13  2  0  0  0  0
  8  9  1  0  0  0  0
  9 10  2  0  0  0  0
 10 11  1  0  0  0  0
 10 37  1  0  0  0  0
 12 11  2  0  0  0  0
 13 12  1  0  0  0  0
 14 23  1  0  0  0  0
 14 19  1  0  0  0  0
 15 16  1  0  0  0  0
 15 14  2  0  0  0  0
 16 17  2  0  0  0  0
 17  1  1  0  0  0  0
 17 18  1  0  0  0  0
 19 18  2  0  0  0  0
 21 20  1  1  0  0  0
 21 29  1  0  0  0  0
 21 24  1  0  0  0  0
 22 23  1  0  0  0  0
 22 21  1  0  0  0  0
 23 25  1  6  0  0  0
 23 24  1  0  0  0  0
 25 26  1  0  0  0  0
 27 25  1  0  0  0  0
 28 25  1  0  0  0  0
 29 30  1  0  0  0  0
 31  5  1  0  0  0  0
 32 31  2  0  0  0  0
 33 32  1  0  0  0  0
 34 33  2  0  0  0  0
 34 35  1  0  0  0  0
 35 36  2  0  0  0  0
 36 31  1  0  0  0  0
 37 38  1  0  0  0  0
 37 39  2  0  0  0  0
 38 40  1  0  0  0  0
 41 38  1  0  0  0  0
M  END
>  <minimizedAffinity>
-12.7585278

$$$$
