
 OpenBabel11232420513D

 41 46  0  0  1  0  0  0  0  0999 V2000
  -18.3210   30.2220   13.1500 C   0  0  0  0  0  0  0  0  0  0  0  0
  -18.3130   30.2820   14.5360 N   0  0  0  0  0  0  0  0  0  0  0  0
  -18.4380   31.5520   14.8450 C   0  0  0  0  0  0  0  0  0  0  0  0
  -18.5150   32.3180   13.7220 N   0  0  0  0  0  0  0  0  0  0  0  0
  -18.4690   31.5000   12.6150 C   0  0  0  0  0  0  0  0  0  0  0  0
  -18.7830   33.7430   13.7860 C   0  0  0  0  0  2  0  0  0  0  0  0
  -18.3840   34.3510   15.0340 O   0  0  0  0  0  0  0  0  0  0  0  0
  -18.5130   33.5890   16.1680 C   0  0  0  0  0  0  0  0  0  0  0  0
  -18.5620   34.2740   17.3830 C   0  0  0  0  0  3  0  0  0  0  0  0
  -18.6620   33.5530   18.5810 C   0  0  0  0  0  0  0  0  0  0  0  0
  -18.6730   32.1500   18.5460 C   0  0  0  0  0  3  0  0  0  0  0  0
  -18.6020   31.4700   17.3280 C   0  0  0  0  0  3  0  0  0  0  0  0
  -18.5240   32.1900   16.1380 C   0  0  0  0  0  0  0  0  0  0  0  0
  -17.8880   26.3670   11.1640 C   0  0  0  0  0  0  0  0  0  0  0  0
  -16.8700   27.3440   11.1970 C   0  0  0  0  0  3  0  0  0  0  0  0
  -17.0330   28.5810   11.8400 C   0  0  0  0  0  3  0  0  0  0  0  0
  -18.2340   28.9300   12.4680 C   0  0  0  0  0  0  0  0  0  0  0  0
  -19.2740   28.0070   12.3960 C   0  0  0  0  0  3  0  0  0  0  0  0
  -19.1000   26.7620   11.7670 C   0  0  0  0  0  3  0  0  0  0  0  0
  -19.7700   22.5870    8.9890 C   0  0  0  0  0  1  0  0  0  0  0  0
  -19.4290   23.8920    9.6930 C   0  0  1  0  0  0  0  0  0  0  0  0
  -18.5460   23.7080   10.9540 C   0  0  0  0  0  2  0  0  0  0  0  0
  -17.6880   24.9240   10.4880 C   0  0  1  0  0  0  0  0  0  0  0  0
  -18.2660   24.7010    9.0610 C   0  0  0  0  0  2  0  0  0  0  0  0
  -16.2450   24.5700   10.5590 N   0  0  0  0  0  4  0  0  0  0  0  0
  -15.6780   25.1620    9.9410 H   0  0  0  0  0  0  0  0  0  0  0  0
  -15.8900   24.7040   11.5170 H   0  0  0  0  0  0  0  0  0  0  0  0
  -16.0560   23.5940   10.2970 H   0  0  0  0  0  0  0  0  0  0  0  0
  -20.6310   24.6440    9.9320 O   0  0  0  0  0  0  0  0  0  0  0  0
  -21.1090   24.6950    9.0810 H   0  0  0  0  0  0  0  0  0  0  0  0
  -18.6130   32.0140   11.2600 C   0  0  0  0  0  0  0  0  0  0  0  0
  -19.5010   31.4070   10.3660 C   0  0  0  0  0  3  0  0  0  0  0  0
  -19.6270   31.8950    9.0650 C   0  0  0  0  0  3  0  0  0  0  0  0
  -18.8670   32.9900    8.6530 C   0  0  0  0  0  3  0  0  0  0  0  0
  -17.9790   33.5970    9.5400 C   0  0  0  0  0  3  0  0  0  0  0  0
  -17.8500   33.1110   10.8410 C   0  0  0  0  0  3  0  0  0  0  0  0
  -18.7340   34.2170   19.9110 C   0  0  0  0  0  0  0  0  0  0  0  0
  -17.6650   34.0920   20.7530 N   0  0  0  0  0  0  0  0  0  0  0  0
  -19.7090   34.8820   20.2380 O   0  0  0  0  0  0  0  0  0  0  0  0
  -17.7330   34.5590   21.6490 H   0  0  0  0  0  0  0  0  0  0  0  0
  -16.7980   33.6310   20.5250 H   0  0  0  0  0  0  0  0  0  0  0  0
  1  2  1  0  0  0  0
  2  3  2  0  0  0  0
  3 13  1  0  0  0  0
  4  6  1  0  0  0  0
  4  3  1  0  0  0  0
  5  1  2  0  0  0  0
  5  4  1  0  0  0  0
  6  7  1  0  0  0  0
  7  8  1  0  0  0  0
  8  9  1  0  0  0  0
  9 10  2  0  0  0  0
 10 37  1  0  0  0  0
 11 10  1  0  0  0  0
 12 11  2  0  0  0  0
 13  8  2  0  0  0  0
 13 12  1  0  0  0  0
 14 15  2  0  0  0  0
 14 19  1  0  0  0  0
 15 16  1  0  0  0  0
 16 17  2  0  0  0  0
 17  1  1  0  0  0  0
 18 17  1  0  0  0  0
 19 18  2  0  0  0  0
 21 20  1  6  0  0  0
 21 29  1  0  0  0  0
 21 22  1  0  0  0  0
 23 25  1  1  0  0  0
 23 22  1  0  0  0  0
 23 14  1  0  0  0  0
 24 21  1  0  0  0  0
 24 23  1  0  0  0  0
 25 27  1  0  0  0  0
 26 25  1  0  0  0  0
 28 25  1  0  0  0  0
 30 29  1  0  0  0  0
 31  5  1  0  0  0  0
 32 31  2  0  0  0  0
 33 32  1  0  0  0  0
 34 33  2  0  0  0  0
 34 35  1  0  0  0  0
 35 36  2  0  0  0  0
 36 31  1  0  0  0  0
 37 39  2  0  0  0  0
 37 38  1  0  0  0  0
 38 40  1  0  0  0  0
 41 38  1  0  0  0  0
M  END
>  <minimizedAffinity>
-10.7975187

$$$$
