
 OpenBabel11232420513D

 41 46  0  0  1  0  0  0  0  0999 V2000
  -20.6340   17.0780   14.6090 C   0  0  0  0  0  0  0  0  0  0  0  0
  -20.0490   17.7290   13.5320 N   0  0  0  0  0  0  0  0  0  0  0  0
  -20.7270   18.8410   13.3690 C   0  0  0  0  0  0  0  0  0  0  0  0
  -21.7330   18.9340   14.2830 N   0  0  0  0  0  0  0  0  0  0  0  0
  -21.6900   17.8340   15.1120 C   0  0  0  0  0  0  0  0  0  0  0  0
  -22.5520   20.1260   14.3990 C   0  0  0  0  0  2  0  0  0  0  0  0
  -22.6290   20.8960   13.1790 O   0  0  0  0  0  0  0  0  0  0  0  0
  -21.5090   20.9230   12.3880 C   0  0  0  0  0  0  0  0  0  0  0  0
  -21.4060   21.9770   11.4780 C   0  0  0  0  0  3  0  0  0  0  0  0
  -20.3010   22.0450   10.6180 C   0  0  0  0  0  0  0  0  0  0  0  0
  -19.3300   21.0330   10.6570 C   0  0  0  0  0  3  0  0  0  0  0  0
  -19.4480   19.9700   11.5550 C   0  0  0  0  0  3  0  0  0  0  0  0
  -20.5380   19.9160   12.4230 C   0  0  0  0  0  0  0  0  0  0  0  0
  -18.8820   13.3790   16.1050 C   0  0  0  0  0  0  0  0  0  0  0  0
  -18.1190   14.5090   15.7390 C   0  0  0  0  0  3  0  0  0  0  0  0
  -18.7050   15.6890   15.2560 C   0  0  0  0  0  3  0  0  0  0  0  0
  -20.0890   15.8050   15.0840 C   0  0  0  0  0  0  0  0  0  0  0  0
  -20.8570   14.6820   15.3790 C   0  0  0  0  0  3  0  0  0  0  0  0
  -20.2680   13.5080   15.8810 C   0  0  0  0  0  3  0  0  0  0  0  0
  -19.2820    9.5380   18.8720 C   0  0  0  0  0  1  0  0  0  0  0  0
  -19.4140   10.8220   18.0670 C   0  0  1  0  0  0  0  0  0  0  0  0
  -18.2300   11.8050   18.2600 C   0  0  0  0  0  2  0  0  0  0  0  0
  -18.2260   12.0480   16.7200 C   0  0  1  0  0  0  0  0  0  0  0  0
  -19.0110   10.7140   16.5730 C   0  0  0  0  0  2  0  0  0  0  0  0
  -16.8370   11.9280   16.2020 N   0  0  0  0  0  4  0  0  0  0  0  0
  -16.8230   11.7150   15.1980 H   0  0  0  0  0  0  0  0  0  0  0  0
  -16.3300   12.8160   16.3300 H   0  0  0  0  0  0  0  0  0  0  0  0
  -16.2920   11.1950   16.6730 H   0  0  0  0  0  0  0  0  0  0  0  0
  -20.7030   11.4150   18.3060 O   0  0  0  0  0  0  0  0  0  0  0  0
  -21.3690   10.7150   18.1620 H   0  0  0  0  0  0  0  0  0  0  0  0
  -22.5870   17.6810   16.2480 C   0  0  0  0  0  0  0  0  0  0  0  0
  -22.3280   18.3530   17.4470 C   0  0  0  0  0  3  0  0  0  0  0  0
  -23.1830   18.1930   18.5390 C   0  0  0  0  0  3  0  0  0  0  0  0
  -24.2990   17.3640   18.4350 C   0  0  0  0  0  3  0  0  0  0  0  0
  -24.5620   16.6910   17.2420 C   0  0  0  0  0  3  0  0  0  0  0  0
  -23.7080   16.8470   16.1510 C   0  0  0  0  0  3  0  0  0  0  0  0
  -20.1200   23.1470    9.6350 C   0  0  0  0  0  0  0  0  0  0  0  0
  -20.6110   24.3820    9.9520 N   0  0  0  0  0  0  0  0  0  0  0  0
  -19.5230   22.9670    8.5810 O   0  0  0  0  0  0  0  0  0  0  0  0
  -20.4690   25.1180    9.2710 H   0  0  0  0  0  0  0  0  0  0  0  0
  -21.0400   24.6270   10.8300 H   0  0  0  0  0  0  0  0  0  0  0  0
  1 17  1  0  0  0  0
  1  5  2  0  0  0  0
  2  1  1  0  0  0  0
  3  2  2  0  0  0  0
  3  4  1  0  0  0  0
  4  6  1  0  0  0  0
  4  5  1  0  0  0  0
  5 31  1  0  0  0  0
  7  6  1  0  0  0  0
  8 13  1  0  0  0  0
  8  7  1  0  0  0  0
  9  8  2  0  0  0  0
 10 11  2  0  0  0  0
 10  9  1  0  0  0  0
 11 12  1  0  0  0  0
 12 13  2  0  0  0  0
 13  3  1  0  0  0  0
 14 23  1  0  0  0  0
 15 14  2  0  0  0  0
 16 15  1  0  0  0  0
 17 16  2  0  0  0  0
 17 18  1  0  0  0  0
 18 19  2  0  0  0  0
 19 14  1  0  0  0  0
 21 22  1  0  0  0  0
 21 29  1  0  0  0  0
 21 20  1  1  0  0  0
 23 25  1  6  0  0  0
 23 22  1  0  0  0  0
 24 23  1  0  0  0  0
 24 21  1  0  0  0  0
 25 27  1  0  0  0  0
 25 28  1  0  0  0  0
 26 25  1  0  0  0  0
 30 29  1  0  0  0  0
 31 32  1  0  0  0  0
 32 33  2  0  0  0  0
 34 33  1  0  0  0  0
 35 34  2  0  0  0  0
 36 31  2  0  0  0  0
 36 35  1  0  0  0  0
 37 38  1  0  0  0  0
 37 10  1  0  0  0  0
 38 41  1  0  0  0  0
 39 37  2  0  0  0  0
 40 38  1  0  0  0  0
M  END
>  <minimizedAffinity>
-11.1581726

$$$$
