
 OpenBabel11232420513D

 41 46  0  0  1  0  0  0  0  0999 V2000
  -19.8800   22.8020   11.4260 C   0  0  0  0  0  0  0  0  0  0  0  0
  -20.1690   24.0360   11.9930 N   0  0  0  0  0  0  0  0  0  0  0  0
  -19.5200   24.9250   11.2780 C   0  0  0  0  0  0  0  0  0  0  0  0
  -18.8150   24.3220   10.2800 N   0  0  0  0  0  0  0  0  0  0  0  0
  -19.0400   22.9640   10.3270 C   0  0  0  0  0  0  0  0  0  0  0  0
  -18.1120   25.0910    9.2700 C   0  0  0  0  0  2  0  0  0  0  0  0
  -17.7310   26.4140    9.7100 O   0  0  0  0  0  0  0  0  0  0  0  0
  -18.5860   27.0540   10.5710 C   0  0  0  0  0  0  0  0  0  0  0  0
  -18.4750   28.4430   10.6490 C   0  0  0  0  0  3  0  0  0  0  0  0
  -19.2980   29.1560   11.5320 C   0  0  0  0  0  0  0  0  0  0  0  0
  -20.1980   28.4590   12.3540 C   0  0  0  0  0  3  0  0  0  0  0  0
  -20.2900   27.0670   12.2870 C   0  0  0  0  0  3  0  0  0  0  0  0
  -19.4840   26.3640   11.3920 C   0  0  0  0  0  0  0  0  0  0  0  0
  -21.5100   19.1270   13.1060 C   0  0  0  0  0  0  0  0  0  0  0  0
  -20.2090   19.2270   12.5700 C   0  0  0  0  0  3  0  0  0  0  0  0
  -19.7050   20.4200   12.0300 C   0  0  0  0  0  3  0  0  0  0  0  0
  -20.4810   21.5840   11.9700 C   0  0  0  0  0  0  0  0  0  0  0  0
  -21.7910   21.4940   12.4360 C   0  0  0  0  0  3  0  0  0  0  0  0
  -22.2840   20.3000   12.9930 C   0  0  0  0  0  3  0  0  0  0  0  0
  -22.0450   14.4080   12.9790 C   0  0  0  0  0  1  0  0  0  0  0  0
  -21.7430   15.8850   12.7770 C   0  0  1  0  0  0  0  0  0  0  0  0
  -22.9750   16.8070   12.9720 C   0  0  0  0  0  2  0  0  0  0  0  0
  -22.0720   17.7840   13.7850 C   0  0  1  0  0  0  0  0  0  0  0  0
  -21.0840   16.6000   13.9860 C   0  0  0  0  0  2  0  0  0  0  0  0
  -22.7560   18.1510   15.0540 N   0  0  0  0  0  4  0  0  0  0  0  0
  -22.0880   18.4730   15.7650 H   0  0  0  0  0  0  0  0  0  0  0  0
  -23.4200   18.9220   14.8920 H   0  0  0  0  0  0  0  0  0  0  0  0
  -23.2850   17.3740   15.4670 H   0  0  0  0  0  0  0  0  0  0  0  0
  -21.0710   16.0760   11.5200 O   0  0  0  0  0  0  0  0  0  0  0  0
  -20.3210   15.4500   11.5000 H   0  0  0  0  0  0  0  0  0  0  0  0
  -18.4890   22.0500    9.3370 C   0  0  0  0  0  0  0  0  0  0  0  0
  -19.2460   21.6810    8.2190 C   0  0  0  0  0  3  0  0  0  0  0  0
  -18.7200   20.7940    7.2790 C   0  0  0  0  0  3  0  0  0  0  0  0
  -17.4380   20.2740    7.4520 C   0  0  0  0  0  3  0  0  0  0  0  0
  -16.6800   20.6370    8.5640 C   0  0  0  0  0  3  0  0  0  0  0  0
  -17.2040   21.5210    9.5070 C   0  0  0  0  0  3  0  0  0  0  0  0
  -19.2450   30.6370   11.6570 C   0  0  0  0  0  0  0  0  0  0  0  0
  -20.4230   31.3290   11.6330 N   0  0  0  0  0  0  0  0  0  0  0  0
  -18.1810   31.2250   11.8070 O   0  0  0  0  0  0  0  0  0  0  0  0
  -20.3630   32.3350   11.7270 H   0  0  0  0  0  0  0  0  0  0  0  0
  -21.3400   30.9120   11.5940 H   0  0  0  0  0  0  0  0  0  0  0  0
  1 17  1  0  0  0  0
  1  2  1  0  0  0  0
  3 13  1  0  0  0  0
  3  2  2  0  0  0  0
  4  5  1  0  0  0  0
  4  3  1  0  0  0  0
  5  1  2  0  0  0  0
  6  7  1  0  0  0  0
  6  4  1  0  0  0  0
  7  8  1  0  0  0  0
  8  9  2  0  0  0  0
  8 13  1  0  0  0  0
  9 10  1  0  0  0  0
 10 37  1  0  0  0  0
 10 11  2  0  0  0  0
 12 11  1  0  0  0  0
 13 12  2  0  0  0  0
 14 23  1  0  0  0  0
 15 14  2  0  0  0  0
 16 15  1  0  0  0  0
 17 16  2  0  0  0  0
 17 18  1  0  0  0  0
 18 19  2  0  0  0  0
 19 14  1  0  0  0  0
 21 22  1  0  0  0  0
 21 20  1  1  0  0  0
 21 24  1  0  0  0  0
 22 23  1  0  0  0  0
 23 24  1  0  0  0  0
 23 25  1  1  0  0  0
 25 28  1  0  0  0  0
 25 26  1  0  0  0  0
 27 25  1  0  0  0  0
 29 21  1  0  0  0  0
 30 29  1  0  0  0  0
 31 36  1  0  0  0  0
 31  5  1  0  0  0  0
 32 31  2  0  0  0  0
 33 34  2  0  0  0  0
 33 32  1  0  0  0  0
 34 35  1  0  0  0  0
 35 36  2  0  0  0  0
 37 39  2  0  0  0  0
 38 37  1  0  0  0  0
 38 40  1  0  0  0  0
 41 38  1  0  0  0  0
M  END
>  <minimizedAffinity>
-12.3328657

$$$$
