
 OpenBabel11232420513D

 41 46  0  0  1  0  0  0  0  0999 V2000
  -18.7100   30.3260   13.0370 C   0  0  0  0  0  0  0  0  0  0  0  0
  -19.5110   30.6780   14.1150 N   0  0  0  0  0  0  0  0  0  0  0  0
  -19.1260   31.8790   14.4780 C   0  0  0  0  0  0  0  0  0  0  0  0
  -18.1030   32.3170   13.6920 N   0  0  0  0  0  0  0  0  0  0  0  0
  -17.8240   31.3600   12.7410 C   0  0  0  0  0  0  0  0  0  0  0  0
  -17.5770   33.6650   13.8030 C   0  0  0  0  0  2  0  0  0  0  0  0
  -17.7750   34.2580   15.1050 O   0  0  0  0  0  0  0  0  0  0  0  0
  -18.9280   33.9270   15.7720 C   0  0  0  0  0  0  0  0  0  0  0  0
  -19.3420   34.7960   16.7830 C   0  0  0  0  0  3  0  0  0  0  0  0
  -20.4950   34.4990   17.5220 C   0  0  0  0  0  0  0  0  0  0  0  0
  -21.1980   33.3120   17.2630 C   0  0  0  0  0  3  0  0  0  0  0  0
  -20.7670   32.4360   16.2650 C   0  0  0  0  0  3  0  0  0  0  0  0
  -19.6320   32.7440   15.5170 C   0  0  0  0  0  0  0  0  0  0  0  0
  -19.1720   26.4330   11.1370 C   0  0  0  0  0  0  0  0  0  0  0  0
  -17.9450   26.9080   11.6480 C   0  0  0  0  0  3  0  0  0  0  0  0
  -17.8190   28.1680   12.2540 C   0  0  0  0  0  3  0  0  0  0  0  0
  -18.9060   29.0430   12.3620 C   0  0  0  0  0  0  0  0  0  0  0  0
  -20.1130   28.6220   11.8090 C   0  0  0  0  0  3  0  0  0  0  0  0
  -20.2380   27.3510   11.2200 C   0  0  0  0  0  3  0  0  0  0  0  0
  -17.2030   22.3460    9.7250 C   0  0  0  0  0  1  0  0  0  0  0  0
  -17.5730   23.7280   10.2420 C   0  0  1  0  0  0  0  0  0  0  0  0
  -18.4800   24.5340    9.2750 C   0  0  0  0  0  2  0  0  0  0  0  0
  -19.3410   24.9670   10.5010 C   0  0  1  0  0  0  0  0  0  0  0  0
  -18.7320   23.7620   11.2720 C   0  0  0  0  0  2  0  0  0  0  0  0
  -20.7810   24.7530   10.1950 N   0  0  0  0  0  4  0  0  0  0  0  0
  -21.3420   24.6690   11.0510 H   0  0  0  0  0  0  0  0  0  0  0  0
  -21.1570   25.5530    9.6650 H   0  0  0  0  0  0  0  0  0  0  0  0
  -20.9540   23.9090    9.6370 H   0  0  0  0  0  0  0  0  0  0  0  0
  -16.3840   24.4320   10.6420 O   0  0  0  0  0  0  0  0  0  0  0  0
  -15.8900   23.8380   11.2400 H   0  0  0  0  0  0  0  0  0  0  0  0
  -16.8320   31.5670   11.6960 C   0  0  0  0  0  0  0  0  0  0  0  0
  -15.5480   31.0280   11.8260 C   0  0  0  0  0  3  0  0  0  0  0  0
  -14.5950   31.2400   10.8280 C   0  0  0  0  0  3  0  0  0  0  0  0
  -14.9220   31.9900    9.6990 C   0  0  0  0  0  3  0  0  0  0  0  0
  -16.2010   32.5300    9.5650 C   0  0  0  0  0  3  0  0  0  0  0  0
  -17.1540   32.3220   10.5610 C   0  0  0  0  0  3  0  0  0  0  0  0
  -21.0030   35.3870   18.6030 C   0  0  0  0  0  0  0  0  0  0  0  0
  -21.5320   36.5960   18.2490 N   0  0  0  0  0  0  0  0  0  0  0  0
  -20.9780   35.0390   19.7770 O   0  0  0  0  0  0  0  0  0  0  0  0
  -21.8780   37.1800   19.0000 H   0  0  0  0  0  0  0  0  0  0  0  0
  -21.6610   36.9180   17.3020 H   0  0  0  0  0  0  0  0  0  0  0  0
  1  2  1  0  0  0  0
  2  3  2  0  0  0  0
  3 13  1  0  0  0  0
  4  6  1  0  0  0  0
  4  3  1  0  0  0  0
  5  1  2  0  0  0  0
  5  4  1  0  0  0  0
  6  7  1  0  0  0  0
  7  8  1  0  0  0  0
  8  9  1  0  0  0  0
  9 10  2  0  0  0  0
 10 37  1  0  0  0  0
 11 10  1  0  0  0  0
 12 11  2  0  0  0  0
 13  8  2  0  0  0  0
 13 12  1  0  0  0  0
 14 19  2  0  0  0  0
 14 15  1  0  0  0  0
 15 16  2  0  0  0  0
 16 17  1  0  0  0  0
 17  1  1  0  0  0  0
 18 17  2  0  0  0  0
 19 18  1  0  0  0  0
 21 20  1  6  0  0  0
 21 29  1  0  0  0  0
 21 24  1  0  0  0  0
 22 21  1  0  0  0  0
 22 23  1  0  0  0  0
 23 25  1  6  0  0  0
 23 14  1  0  0  0  0
 23 24  1  0  0  0  0
 25 26  1  0  0  0  0
 27 25  1  0  0  0  0
 28 25  1  0  0  0  0
 29 30  1  0  0  0  0
 31 32  1  0  0  0  0
 31  5  1  0  0  0  0
 33 32  2  0  0  0  0
 34 33  1  0  0  0  0
 35 34  2  0  0  0  0
 35 36  1  0  0  0  0
 36 31  2  0  0  0  0
 37 39  2  0  0  0  0
 38 37  1  0  0  0  0
 38 40  1  0  0  0  0
 41 38  1  0  0  0  0
M  END
>  <minimizedAffinity>
-10.7071371

$$$$
