
 OpenBabel11232420513D

 41 46  0  0  1  0  0  0  0  0999 V2000
  -19.3470   21.6610   10.8890 C   0  0  0  0  0  0  0  0  0  0  0  0
  -19.8290   22.7650   11.5770 N   0  0  0  0  0  0  0  0  0  0  0  0
  -19.3740   23.8180   10.9390 C   0  0  0  0  0  0  0  0  0  0  0  0
  -18.6080   23.4460    9.8760 N   0  0  0  0  0  0  0  0  0  0  0  0
  -18.5870   22.0710    9.7960 C   0  0  0  0  0  0  0  0  0  0  0  0
  -18.0890   24.4170    8.9310 C   0  0  0  0  0  2  0  0  0  0  0  0
  -17.9330   25.7410    9.4890 O   0  0  0  0  0  0  0  0  0  0  0  0
  -18.8580   26.1360   10.4230 C   0  0  0  0  0  0  0  0  0  0  0  0
  -18.9930   27.5100   10.6330 C   0  0  0  0  0  3  0  0  0  0  0  0
  -19.8980   27.9780   11.5940 C   0  0  0  0  0  0  0  0  0  0  0  0
  -20.6300   27.0590   12.3620 C   0  0  0  0  0  3  0  0  0  0  0  0
  -20.4760   25.6850   12.1620 C   0  0  0  0  0  3  0  0  0  0  0  0
  -19.5900   25.2240   11.1900 C   0  0  0  0  0  0  0  0  0  0  0  0
  -20.5380   17.7070   12.2800 C   0  0  0  0  0  0  0  0  0  0  0  0
  -20.6320   18.8710   13.0720 C   0  0  0  0  0  3  0  0  0  0  0  0
  -20.2390   20.1340   12.6040 C   0  0  0  0  0  3  0  0  0  0  0  0
  -19.7020   20.3090   11.3240 C   0  0  0  0  0  0  0  0  0  0  0  0
  -19.5420   19.1660   10.5450 C   0  0  0  0  0  3  0  0  0  0  0  0
  -19.9550   17.9050   11.0110 C   0  0  0  0  0  3  0  0  0  0  0  0
  -20.4000   14.2350   15.5200 C   0  0  0  0  0  1  0  0  0  0  0  0
  -20.2560   15.4720   14.6450 C   0  0  1  0  0  0  0  0  0  0  0  0
  -20.0200   15.1520   13.1460 C   0  0  0  0  0  2  0  0  0  0  0  0
  -21.0450   16.2680   12.7820 C   0  0  1  0  0  0  0  0  0  0  0  0
  -21.5890   16.1520   14.2350 C   0  0  0  0  0  2  0  0  0  0  0  0
  -22.0190   15.7420   11.7880 N   0  0  0  0  0  4  0  0  0  0  0  0
  -22.8940   16.2780   11.7930 H   0  0  0  0  0  0  0  0  0  0  0  0
  -21.6290   15.8080   10.8360 H   0  0  0  0  0  0  0  0  0  0  0  0
  -22.2670   14.7580   11.9480 H   0  0  0  0  0  0  0  0  0  0  0  0
  -19.2730   16.3560   15.2110 O   0  0  0  0  0  0  0  0  0  0  0  0
  -19.5130   16.4860   16.1490 H   0  0  0  0  0  0  0  0  0  0  0  0
  -17.9180   21.3650    8.7120 C   0  0  0  0  0  0  0  0  0  0  0  0
  -18.5530   21.2050    7.4760 C   0  0  0  0  0  3  0  0  0  0  0  0
  -17.9140   20.5160    6.4440 C   0  0  0  0  0  3  0  0  0  0  0  0
  -16.6400   19.9860    6.6440 C   0  0  0  0  0  3  0  0  0  0  0  0
  -16.0030   20.1410    7.8740 C   0  0  0  0  0  3  0  0  0  0  0  0
  -16.6400   20.8270    8.9080 C   0  0  0  0  0  3  0  0  0  0  0  0
  -20.1040   29.4280   11.8600 C   0  0  0  0  0  0  0  0  0  0  0  0
  -19.2360   30.3170   11.2930 N   0  0  0  0  0  0  0  0  0  0  0  0
  -21.0400   29.8230   12.5430 O   0  0  0  0  0  0  0  0  0  0  0  0
  -19.4000   31.2980   11.4800 H   0  0  0  0  0  0  0  0  0  0  0  0
  -18.4920   30.0760   10.6560 H   0  0  0  0  0  0  0  0  0  0  0  0
  1 17  1  0  0  0  0
  1  2  1  0  0  0  0
  3 13  1  0  0  0  0
  3  2  2  0  0  0  0
  4  3  1  0  0  0  0
  5  4  1  0  0  0  0
  5  1  2  0  0  0  0
  6  7  1  0  0  0  0
  6  4  1  0  0  0  0
  7  8  1  0  0  0  0
  8  9  2  0  0  0  0
  8 13  1  0  0  0  0
  9 10  1  0  0  0  0
 10 37  1  0  0  0  0
 10 11  2  0  0  0  0
 12 11  1  0  0  0  0
 13 12  2  0  0  0  0
 14 23  1  0  0  0  0
 14 15  1  0  0  0  0
 16 15  2  0  0  0  0
 17 16  1  0  0  0  0
 18 19  1  0  0  0  0
 18 17  2  0  0  0  0
 19 14  2  0  0  0  0
 21 29  1  0  0  0  0
 21 20  1  1  0  0  0
 22 21  1  0  0  0  0
 23 25  1  6  0  0  0
 23 22  1  0  0  0  0
 23 24  1  0  0  0  0
 24 21  1  0  0  0  0
 25 26  1  0  0  0  0
 25 28  1  0  0  0  0
 27 25  1  0  0  0  0
 29 30  1  0  0  0  0
 31 36  1  0  0  0  0
 31  5  1  0  0  0  0
 32 31  2  0  0  0  0
 33 34  2  0  0  0  0
 33 32  1  0  0  0  0
 34 35  1  0  0  0  0
 35 36  2  0  0  0  0
 37 39  2  0  0  0  0
 38 40  1  0  0  0  0
 38 37  1  0  0  0  0
 41 38  1  0  0  0  0
M  END
>  <minimizedAffinity>
-11.8931341

$$$$
