
 OpenBabel11232420533D

 38 42  0  0  1  0  0  0  0  0999 V2000
  -19.7360   29.0010   12.7230 C   0  0  0  0  0  0  0  0  0  0  0  0
  -20.1870   27.8290   12.3240 N   0  0  0  0  0  0  0  0  0  0  0  0
  -19.1720   27.2120   11.6370 C   0  0  0  0  0  0  0  0  0  0  0  0
  -18.0850   28.0540   11.5660 C   0  0  0  0  0  3  0  0  0  0  0  0
  -18.4580   29.1920   12.2360 N   0  0  0  0  0  0  0  0  0  0  0  0
  -19.2870   25.8710   11.0880 C   0  0  0  0  0  0  0  0  0  0  0  0
  -18.5950   25.4780    9.9300 C   0  0  0  0  0  3  0  0  0  0  0  0
  -18.7200   24.1760    9.4360 C   0  0  0  0  0  3  0  0  0  0  0  0
  -19.5350   23.2620   10.0950 C   0  0  0  0  0  0  0  0  0  0  0  0
  -19.6400   22.0210    9.5990 F   0  0  0  0  0  0  0  0  0  0  0  0
  -20.2260   23.6330   11.2440 C   0  0  0  0  0  0  0  0  0  0  0  0
  -21.2370   22.5060   12.0640 Cl  0  0  0  0  0  0  0  0  0  0  0  0
  -20.1000   24.9310   11.7410 C   0  0  0  0  0  3  0  0  0  0  0  0
  -20.8730   32.3750   15.0360 N   0  0  0  0  0  0  0  0  0  0  0  0
  -20.6740   31.1550   15.8170 C   0  0  0  0  0  2  0  0  0  0  0  0
  -19.9510   30.0900   14.9970 C   0  0  0  0  0  2  0  0  0  0  0  0
  -20.5490   29.9350   13.5880 C   0  0  1  0  0  3  0  0  0  0  0  0
  -20.8620   31.2640   12.8850 C   0  0  0  0  0  2  0  0  0  0  0  0
  -21.6250   32.2140   13.8000 C   0  0  0  0  0  2  0  0  0  0  0  0
  -19.5580   33.9660   16.3030 C   0  0  0  0  0  0  0  0  0  0  0  0
  -18.5390   34.9100   16.2520 C   0  0  0  0  0  0  0  0  0  0  0  0
  -18.0630   35.5560   17.3710 N   0  0  0  0  0  0  0  0  0  0  0  0
  -17.8720   35.1940   15.1260 N   0  0  0  0  0  0  0  0  0  0  0  0
  -18.2250   34.5080   14.0440 C   0  0  0  0  0  3  0  0  0  0  0  0
  -19.2620   33.6730   13.9380 N   0  0  0  0  0  0  0  0  0  0  0  0
  -19.8930   33.3580   15.0890 C   0  0  0  0  0  0  0  0  0  0  0  0
  -17.2740   36.1660   17.1970 H   0  0  0  0  0  0  0  0  0  0  0  0
  -18.6900   35.8220   18.1150 H   0  0  0  0  0  0  0  0  0  0  0  0
  -21.4020   34.3410   17.9650 C   0  0  0  0  0  1  0  0  0  0  0  0
  -20.1640   33.5270   17.6140 C   0  0  0  0  0  2  0  0  0  0  0  0
  -17.6040   30.3560   12.3610 C   0  0  0  0  0  2  0  0  0  0  0  0
  -16.5370   30.4040   11.2660 C   0  0  0  0  0  2  0  0  0  0  0  0
  -16.9240   31.3920   10.1840 N   0  0  0  0  0  4  0  0  0  0  0  0
  -15.8410   32.4030    9.8700 C   0  0  0  0  0  2  0  0  0  0  0  0
  -16.6170   33.5470    9.2570 C   0  0  0  0  0  2  0  0  0  0  0  0
  -17.8430   33.6260   10.1450 C   0  0  0  0  0  2  0  0  0  0  0  0
  -18.1980   32.1780   10.4420 C   0  0  0  0  0  2  0  0  0  0  0  0
  -17.0640   30.8620    9.3060 H   0  0  0  0  0  0  0  0  0  0  0  0
  2  1  2  0  0  0  0
  3  2  1  0  0  0  0
  4  3  2  0  0  0  0
  4  5  1  0  0  0  0
  5 31  1  0  0  0  0
  5  1  1  0  0  0  0
  6  3  1  0  0  0  0
  6 13  1  0  0  0  0
  7  6  2  0  0  0  0
  8  7  1  0  0  0  0
  8  9  2  0  0  0  0
  9 11  1  0  0  0  0
 10  9  1  0  0  0  0
 11 13  2  0  0  0  0
 11 12  1  0  0  0  0
 14 26  1  0  0  0  0
 14 15  1  0  0  0  0
 16 15  1  0  0  0  0
 17  1  1  6  0  0  0
 17 16  1  0  0  0  0
 18 17  1  0  0  0  0
 18 19  1  0  0  0  0
 19 14  1  0  0  0  0
 20 30  1  0  0  0  0
 21 20  1  0  0  0  0
 21 22  1  0  0  0  0
 22 28  1  0  0  0  0
 23 21  2  0  0  0  0
 24 23  1  0  0  0  0
 25 24  2  0  0  0  0
 25 26  1  0  0  0  0
 26 20  2  0  0  0  0
 27 22  1  0  0  0  0
 30 29  1  0  0  0  0
 32 31  1  0  0  0  0
 33 37  1  0  0  0  0
 33 32  1  0  0  0  0
 34 33  1  0  0  0  0
 35 34  1  0  0  0  0
 35 36  1  0  0  0  0
 36 37  1  0  0  0  0
 38 33  1  0  0  0  0
M  END
>  <minimizedAffinity>
-8.4095459

$$$$
