
 OpenBabel11232420533D

 38 42  0  0  1  0  0  0  0  0999 V2000
  -19.5090   20.3260   10.9810 C   0  0  0  0  0  0  0  0  0  0  0  0
  -20.0150   20.3250   12.1980 N   0  0  0  0  0  0  0  0  0  0  0  0
  -20.4590   19.0530   12.4550 C   0  0  0  0  0  0  0  0  0  0  0  0
  -20.2720   18.2650   11.3420 C   0  0  0  0  0  3  0  0  0  0  0  0
  -19.6890   19.0840   10.4070 N   0  0  0  0  0  0  0  0  0  0  0  0
  -21.0380   18.6570   13.7280 C   0  0  0  0  0  0  0  0  0  0  0  0
  -22.1180   19.3470   14.3040 C   0  0  0  0  0  3  0  0  0  0  0  0
  -22.6570   18.9320   15.5240 C   0  0  0  0  0  3  0  0  0  0  0  0
  -22.1200   17.8250   16.1760 C   0  0  0  0  0  0  0  0  0  0  0  0
  -22.6540   17.4490   17.3470 F   0  0  0  0  0  0  0  0  0  0  0  0
  -21.0530   17.1280   15.6200 C   0  0  0  0  0  0  0  0  0  0  0  0
  -20.3840   15.7600   16.4220 Cl  0  0  0  0  0  0  0  0  0  0  0  0
  -20.5150   17.5400   14.4000 C   0  0  0  0  0  3  0  0  0  0  0  0
  -18.4760   24.3650   10.1720 N   0  0  0  0  0  0  0  0  0  0  0  0
  -19.1890   23.7000    9.0810 C   0  0  0  0  0  2  0  0  0  0  0  0
  -19.8190   22.3920    9.5530 C   0  0  0  0  0  2  0  0  0  0  0  0
  -18.8400   21.5390   10.3790 C   0  0  1  0  0  3  0  0  0  0  0  0
  -18.0250   22.3330   11.4090 C   0  0  0  0  0  2  0  0  0  0  0  0
  -17.4140   23.5860   10.7940 C   0  0  0  0  0  2  0  0  0  0  0  0
  -18.7960   26.6210   10.9900 C   0  0  0  0  0  0  0  0  0  0  0  0
  -19.5820   27.4550   11.7770 C   0  0  0  0  0  0  0  0  0  0  0  0
  -19.3680   28.8120   11.8720 N   0  0  0  0  0  0  0  0  0  0  0  0
  -20.6700   27.0220   12.4270 N   0  0  0  0  0  0  0  0  0  0  0  0
  -20.9770   25.7380   12.2710 C   0  0  0  0  0  3  0  0  0  0  0  0
  -20.2380   24.8160   11.6480 N   0  0  0  0  0  0  0  0  0  0  0  0
  -19.1730   25.2750   10.9550 C   0  0  0  0  0  0  0  0  0  0  0  0
  -20.0580   29.3060   12.4240 H   0  0  0  0  0  0  0  0  0  0  0  0
  -18.4310   29.1840   11.8730 H   0  0  0  0  0  0  0  0  0  0  0  0
  -16.3520   27.1750   10.8430 C   0  0  0  0  0  1  0  0  0  0  0  0
  -17.6910   27.1670   10.1190 C   0  0  0  0  0  2  0  0  0  0  0  0
  -19.3590   18.6480    9.0650 C   0  0  0  0  0  2  0  0  0  0  0  0
  -17.8810   18.2720    8.9320 C   0  0  0  0  0  2  0  0  0  0  0  0
  -17.1320   19.3200    8.1350 N   0  0  0  0  0  4  0  0  0  0  0  0
  -18.0160   20.1190    7.2000 C   0  0  0  0  0  2  0  0  0  0  0  0
  -17.0370   20.6310    6.1680 C   0  0  0  0  0  2  0  0  0  0  0  0
  -16.1480   19.4260    5.9310 C   0  0  0  0  0  2  0  0  0  0  0  0
  -15.9690   18.8030    7.3060 C   0  0  0  0  0  2  0  0  0  0  0  0
  -16.7470   20.0120    8.8030 H   0  0  0  0  0  0  0  0  0  0  0  0
  1  2  2  0  0  0  0
  2  3  1  0  0  0  0
  3  6  1  0  0  0  0
  4  3  2  0  0  0  0
  5  1  1  0  0  0  0
  5  4  1  0  0  0  0
  6  7  2  0  0  0  0
  6 13  1  0  0  0  0
  7  8  1  0  0  0  0
  8  9  2  0  0  0  0
  9 10  1  0  0  0  0
 11  9  1  0  0  0  0
 11 12  1  0  0  0  0
 13 11  2  0  0  0  0
 14 19  1  0  0  0  0
 14 26  1  0  0  0  0
 15 16  1  0  0  0  0
 15 14  1  0  0  0  0
 16 17  1  0  0  0  0
 17  1  1  1  0  0  0
 17 18  1  0  0  0  0
 19 18  1  0  0  0  0
 20 21  1  0  0  0  0
 21 22  1  0  0  0  0
 21 23  2  0  0  0  0
 22 28  1  0  0  0  0
 22 27  1  0  0  0  0
 24 23  1  0  0  0  0
 25 24  2  0  0  0  0
 26 20  2  0  0  0  0
 26 25  1  0  0  0  0
 30 29  1  0  0  0  0
 30 20  1  0  0  0  0
 31  5  1  0  0  0  0
 32 31  1  0  0  0  0
 33 38  1  0  0  0  0
 33 32  1  0  0  0  0
 34 33  1  0  0  0  0
 35 34  1  0  0  0  0
 36 35  1  0  0  0  0
 36 37  1  0  0  0  0
 37 33  1  0  0  0  0
M  END
>  <minimizedAffinity>
-10.5577297

$$$$
