
 OpenBabel11232420533D

 38 42  0  0  1  0  0  0  0  0999 V2000
  -19.0990   24.3020   10.2350 C   0  0  0  0  0  0  0  0  0  0  0  0
  -18.6590   25.5330   10.4040 N   0  0  0  0  0  0  0  0  0  0  0  0
  -19.3630   26.0800   11.4470 C   0  0  0  0  0  0  0  0  0  0  0  0
  -20.3010   25.1770   11.8950 C   0  0  0  0  0  3  0  0  0  0  0  0
  -20.1410   24.0630   11.1080 N   0  0  0  0  0  0  0  0  0  0  0  0
  -19.1140   27.4180   11.9550 C   0  0  0  0  0  0  0  0  0  0  0  0
  -20.1550   28.2610   12.3780 C   0  0  0  0  0  3  0  0  0  0  0  0
  -19.8790   29.5390   12.8730 C   0  0  0  0  0  3  0  0  0  0  0  0
  -18.5610   29.9800   12.9480 C   0  0  0  0  0  0  0  0  0  0  0  0
  -18.3230   31.2110   13.4250 F   0  0  0  0  0  0  0  0  0  0  0  0
  -17.5170   29.1580   12.5370 C   0  0  0  0  0  0  0  0  0  0  0  0
  -15.8860   29.6990   12.6270 Cl  0  0  0  0  0  0  0  0  0  0  0  0
  -17.7910   27.8810   12.0450 C   0  0  0  0  0  3  0  0  0  0  0  0
  -17.9780   20.7180    8.2530 N   0  0  0  0  0  0  0  0  0  0  0  0
  -16.8610   21.4380    8.8630 C   0  0  0  0  0  2  0  0  0  0  0  0
  -17.3600   22.5090    9.8290 C   0  0  0  0  0  2  0  0  0  0  0  0
  -18.4970   23.3530    9.2260 C   0  0  1  0  0  3  0  0  0  0  0  0
  -19.5610   22.5360    8.4800 C   0  0  0  0  0  2  0  0  0  0  0  0
  -18.9280   21.5400    7.5160 C   0  0  0  0  0  2  0  0  0  0  0  0
  -17.8400   18.3350    8.6580 C   0  0  0  0  0  0  0  0  0  0  0  0
  -18.3620   17.2590    9.3680 C   0  0  0  0  0  0  0  0  0  0  0  0
  -17.8390   15.9880    9.2910 N   0  0  0  0  0  0  0  0  0  0  0  0
  -19.3530   17.3940   10.2590 N   0  0  0  0  0  0  0  0  0  0  0  0
  -19.8120   18.6280   10.4470 C   0  0  0  0  0  3  0  0  0  0  0  0
  -19.4810   19.7130    9.7420 N   0  0  0  0  0  0  0  0  0  0  0  0
  -18.4470   19.5740    8.8850 C   0  0  0  0  0  0  0  0  0  0  0  0
  -18.2740   15.3190    9.9130 H   0  0  0  0  0  0  0  0  0  0  0  0
  -17.4820   15.6340    8.4160 H   0  0  0  0  0  0  0  0  0  0  0  0
  -16.8530   18.6310    6.3680 C   0  0  0  0  0  1  0  0  0  0  0  0
  -16.6030   18.1920    7.8040 C   0  0  0  0  0  2  0  0  0  0  0  0
  -20.9710   22.8800   11.2290 C   0  0  0  0  0  2  0  0  0  0  0  0
  -20.4320   21.9080   12.2810 C   0  0  0  0  0  2  0  0  0  0  0  0
  -21.3360   20.6970   12.4020 N   0  0  0  0  0  4  0  0  0  0  0  0
  -22.6970   21.0110   12.9840 C   0  0  0  0  0  2  0  0  0  0  0  0
  -23.1490   19.6730   13.5240 C   0  0  0  0  0  2  0  0  0  0  0  0
  -21.8830   19.1290   14.1550 C   0  0  0  0  0  2  0  0  0  0  0  0
  -20.7700   19.5380   13.2040 C   0  0  0  0  0  2  0  0  0  0  0  0
  -21.5230   20.3450   11.4460 H   0  0  0  0  0  0  0  0  0  0  0  0
  1  2  2  0  0  0  0
  1  5  1  0  0  0  0
  2  3  1  0  0  0  0
  3  4  2  0  0  0  0
  3  6  1  0  0  0  0
  5 31  1  0  0  0  0
  5  4  1  0  0  0  0
  6 13  2  0  0  0  0
  6  7  1  0  0  0  0
  7  8  2  0  0  0  0
  8  9  1  0  0  0  0
  9 10  1  0  0  0  0
 11 12  1  0  0  0  0
 11  9  2  0  0  0  0
 13 11  1  0  0  0  0
 14 15  1  0  0  0  0
 14 26  1  0  0  0  0
 15 16  1  0  0  0  0
 17 16  1  0  0  0  0
 17  1  1  1  0  0  0
 18 17  1  0  0  0  0
 19 14  1  0  0  0  0
 19 18  1  0  0  0  0
 20 26  2  0  0  0  0
 20 21  1  0  0  0  0
 21 23  2  0  0  0  0
 22 21  1  0  0  0  0
 22 27  1  0  0  0  0
 23 24  1  0  0  0  0
 25 24  2  0  0  0  0
 26 25  1  0  0  0  0
 28 22  1  0  0  0  0
 29 30  1  0  0  0  0
 30 20  1  0  0  0  0
 31 32  1  0  0  0  0
 32 33  1  0  0  0  0
 33 34  1  0  0  0  0
 33 37  1  0  0  0  0
 34 35  1  0  0  0  0
 35 36  1  0  0  0  0
 37 36  1  0  0  0  0
 38 33  1  0  0  0  0
M  END
>  <minimizedAffinity>
-8.80420113

$$$$
