
 OpenBabel11232420533D

 38 42  0  0  1  0  0  0  0  0999 V2000
  -20.1480   20.8020   11.4600 C   0  0  0  0  0  0  0  0  0  0  0  0
  -20.6160   19.9160   12.3150 N   0  0  0  0  0  0  0  0  0  0  0  0
  -20.2050   18.6780   11.8880 C   0  0  0  0  0  0  0  0  0  0  0  0
  -19.5110   18.8050   10.7060 C   0  0  0  0  0  3  0  0  0  0  0  0
  -19.4980   20.1510   10.4310 N   0  0  0  0  0  0  0  0  0  0  0  0
  -20.4930   17.4530   12.6140 C   0  0  0  0  0  0  0  0  0  0  0  0
  -19.6540   16.3290   12.5430 C   0  0  0  0  0  3  0  0  0  0  0  0
  -19.9550   15.1700   13.2640 C   0  0  0  0  0  3  0  0  0  0  0  0
  -21.0960   15.1290   14.0600 C   0  0  0  0  0  0  0  0  0  0  0  0
  -21.3630   14.0050   14.7410 F   0  0  0  0  0  0  0  0  0  0  0  0
  -21.9370   16.2340   14.1460 C   0  0  0  0  0  0  0  0  0  0  0  0
  -23.3490   16.1890   15.1290 Cl  0  0  0  0  0  0  0  0  0  0  0  0
  -21.6360   17.3930   13.4280 C   0  0  0  0  0  3  0  0  0  0  0  0
  -19.4280   24.9860   11.3590 N   0  0  0  0  0  0  0  0  0  0  0  0
  -19.3670   24.4020   12.6980 C   0  0  0  0  0  2  0  0  0  0  0  0
  -19.2950   22.8780   12.6300 C   0  0  0  0  0  2  0  0  0  0  0  0
  -20.3260   22.2900   11.6500 C   0  0  1  0  0  3  0  0  0  0  0  0
  -20.4320   23.0440   10.3170 C   0  0  0  0  0  2  0  0  0  0  0  0
  -20.5440   24.5480   10.5330 C   0  0  0  0  0  2  0  0  0  0  0  0
  -17.6590   26.5800   10.9230 C   0  0  0  0  0  0  0  0  0  0  0  0
  -16.4450   26.8010   10.2800 C   0  0  0  0  0  0  0  0  0  0  0  0
  -15.7320   27.9710   10.4130 N   0  0  0  0  0  0  0  0  0  0  0  0
  -15.8270   25.8570    9.5600 N   0  0  0  0  0  0  0  0  0  0  0  0
  -16.4290   24.6730    9.5000 C   0  0  0  0  0  3  0  0  0  0  0  0
  -17.6450   24.3780    9.9660 N   0  0  0  0  0  0  0  0  0  0  0  0
  -18.2350   25.3210   10.7330 C   0  0  0  0  0  0  0  0  0  0  0  0
  -14.8340   27.9680    9.9450 H   0  0  0  0  0  0  0  0  0  0  0  0
  -16.2090   28.8570   10.4800 H   0  0  0  0  0  0  0  0  0  0  0  0
  -19.2570   28.4980   11.1970 C   0  0  0  0  0  1  0  0  0  0  0  0
  -18.2410   27.5930   11.8800 C   0  0  0  0  0  2  0  0  0  0  0  0
  -18.8940   20.7120    9.2390 C   0  0  0  0  0  2  0  0  0  0  0  0
  -17.3700   20.7920    9.3530 C   0  0  0  0  0  2  0  0  0  0  0  0
  -16.7400   20.9750    7.9870 N   0  0  0  0  0  4  0  0  0  0  0  0
  -17.7500   21.1600    6.8730 C   0  0  0  0  0  2  0  0  0  0  0  0
  -16.9730   20.7480    5.6430 C   0  0  0  0  0  2  0  0  0  0  0  0
  -16.2160   19.5260    6.1270 C   0  0  0  0  0  2  0  0  0  0  0  0
  -15.7980   19.8680    7.5470 C   0  0  0  0  0  2  0  0  0  0  0  0
  -16.1920   21.8540    8.0050 H   0  0  0  0  0  0  0  0  0  0  0  0
  1  2  2  0  0  0  0
  3  2  1  0  0  0  0
  3  6  1  0  0  0  0
  4  3  2  0  0  0  0
  5  4  1  0  0  0  0
  5  1  1  0  0  0  0
  6 13  1  0  0  0  0
  7  6  2  0  0  0  0
  7  8  1  0  0  0  0
  8  9  2  0  0  0  0
  9 11  1  0  0  0  0
  9 10  1  0  0  0  0
 11 12  1  0  0  0  0
 13 11  2  0  0  0  0
 14 15  1  0  0  0  0
 16 15  1  0  0  0  0
 17  1  1  6  0  0  0
 17 16  1  0  0  0  0
 18 19  1  0  0  0  0
 18 17  1  0  0  0  0
 19 14  1  0  0  0  0
 20 30  1  0  0  0  0
 21 22  1  0  0  0  0
 21 20  2  0  0  0  0
 22 28  1  0  0  0  0
 23 21  1  0  0  0  0
 24 23  2  0  0  0  0
 24 25  1  0  0  0  0
 25 26  2  0  0  0  0
 26 20  1  0  0  0  0
 26 14  1  0  0  0  0
 27 22  1  0  0  0  0
 29 30  1  0  0  0  0
 31 32  1  0  0  0  0
 31  5  1  0  0  0  0
 33 38  1  0  0  0  0
 33 32  1  0  0  0  0
 34 33  1  0  0  0  0
 35 36  1  0  0  0  0
 35 34  1  0  0  0  0
 36 37  1  0  0  0  0
 37 33  1  0  0  0  0
M  END
>  <minimizedAffinity>
-9.8209734

$$$$
