
 OpenBabel11232420533D

 38 42  0  0  1  0  0  0  0  0999 V2000
  -18.6200   31.9320   11.5600 C   0  0  0  0  0  0  0  0  0  0  0  0
  -17.6190   32.1980   10.7450 N   0  0  0  0  0  0  0  0  0  0  0  0
  -17.0770   33.3940   11.1400 C   0  0  0  0  0  0  0  0  0  0  0  0
  -17.8020   33.9040   12.1930 C   0  0  0  0  0  3  0  0  0  0  0  0
  -18.7900   32.9830   12.4390 N   0  0  0  0  0  0  0  0  0  0  0  0
  -15.9140   33.9870   10.5010 C   0  0  0  0  0  0  0  0  0  0  0  0
  -15.7070   33.9140    9.1140 C   0  0  0  0  0  3  0  0  0  0  0  0
  -14.5830   34.5060    8.5310 C   0  0  0  0  0  3  0  0  0  0  0  0
  -13.6610   35.1740    9.3310 C   0  0  0  0  0  0  0  0  0  0  0  0
  -12.5900   35.7320    8.7470 F   0  0  0  0  0  0  0  0  0  0  0  0
  -13.8510   35.2600   10.7060 C   0  0  0  0  0  0  0  0  0  0  0  0
  -12.7140   36.0850   11.7000 Cl  0  0  0  0  0  0  0  0  0  0  0  0
  -14.9750   34.6720   11.2900 C   0  0  0  0  0  3  0  0  0  0  0  0
  -19.5690   27.8100   11.1820 N   0  0  0  0  0  0  0  0  0  0  0  0
  -20.0110   28.6310   10.0550 C   0  0  0  0  0  2  0  0  0  0  0  0
  -19.3550   30.0090   10.0880 C   0  0  0  0  0  2  0  0  0  0  0  0
  -19.4090   30.6450   11.4880 C   0  0  1  0  0  3  0  0  0  0  0  0
  -19.0670   29.6820   12.6340 C   0  0  0  0  0  2  0  0  0  0  0  0
  -19.8250   28.3670   12.5030 C   0  0  0  0  0  2  0  0  0  0  0  0
  -18.5870   25.6250   10.8310 C   0  0  0  0  0  0  0  0  0  0  0  0
  -17.4070   24.9150   10.6320 C   0  0  0  0  0  0  0  0  0  0  0  0
  -17.3830   23.5600   10.3900 N   0  0  0  0  0  0  0  0  0  0  0  0
  -16.2090   25.5100   10.5610 N   0  0  0  0  0  0  0  0  0  0  0  0
  -16.2010   26.8340   10.6770 C   0  0  0  0  0  3  0  0  0  0  0  0
  -17.2430   27.6090   10.9930 N   0  0  0  0  0  0  0  0  0  0  0  0
  -18.4510   27.0050   11.0110 C   0  0  0  0  0  0  0  0  0  0  0  0
  -16.4620   23.1880   10.1950 H   0  0  0  0  0  0  0  0  0  0  0  0
  -18.0360   22.9450   10.8510 H   0  0  0  0  0  0  0  0  0  0  0  0
  -20.4240   24.4370   12.0630 C   0  0  0  0  0  1  0  0  0  0  0  0
  -19.9380   24.9600   10.7180 C   0  0  0  0  0  2  0  0  0  0  0  0
  -19.8050   33.1590   13.4570 C   0  0  0  0  0  2  0  0  0  0  0  0
  -19.2280   33.7460   14.7470 C   0  0  0  0  0  2  0  0  0  0  0  0
  -19.2330   32.7120   15.8550 N   0  0  0  0  0  4  0  0  0  0  0  0
  -18.1800   31.6370   15.6860 C   0  0  0  0  0  2  0  0  0  0  0  0
  -18.7330   30.4930   16.5060 C   0  0  0  0  0  2  0  0  0  0  0  0
  -20.2090   30.5230   16.1590 C   0  0  0  0  0  2  0  0  0  0  0  0
  -20.5560   32.0010   16.0790 C   0  0  0  0  0  2  0  0  0  0  0  0
  -18.9910   33.1930   16.7390 H   0  0  0  0  0  0  0  0  0  0  0  0
  1  5  1  0  0  0  0
  2  3  1  0  0  0  0
  2  1  2  0  0  0  0
  3  4  2  0  0  0  0
  4  5  1  0  0  0  0
  5 31  1  0  0  0  0
  6  3  1  0  0  0  0
  6 13  1  0  0  0  0
  7  6  2  0  0  0  0
  8  7  1  0  0  0  0
  8  9  2  0  0  0  0
  9 11  1  0  0  0  0
 10  9  1  0  0  0  0
 11 13  2  0  0  0  0
 11 12  1  0  0  0  0
 14 19  1  0  0  0  0
 15 16  1  0  0  0  0
 15 14  1  0  0  0  0
 16 17  1  0  0  0  0
 17  1  1  6  0  0  0
 17 18  1  0  0  0  0
 19 18  1  0  0  0  0
 20 26  1  0  0  0  0
 21 20  2  0  0  0  0
 22 21  1  0  0  0  0
 22 28  1  0  0  0  0
 23 21  1  0  0  0  0
 23 24  2  0  0  0  0
 24 25  1  0  0  0  0
 25 26  2  0  0  0  0
 26 14  1  0  0  0  0
 27 22  1  0  0  0  0
 30 20  1  0  0  0  0
 30 29  1  0  0  0  0
 31 32  1  0  0  0  0
 32 33  1  0  0  0  0
 33 37  1  0  0  0  0
 33 38  1  0  0  0  0
 34 33  1  0  0  0  0
 34 35  1  0  0  0  0
 36 35  1  0  0  0  0
 37 36  1  0  0  0  0
M  END
>  <minimizedAffinity>
-8.40609455

$$$$
