
 OpenBabel11232420533D

 38 42  0  0  1  0  0  0  0  0999 V2000
  -20.0440   21.9230   11.5910 C   0  0  0  0  0  0  0  0  0  0  0  0
  -20.3320   23.1520   11.9710 N   0  0  0  0  0  0  0  0  0  0  0  0
  -19.2990   23.9580   11.5650 C   0  0  0  0  0  0  0  0  0  0  0  0
  -18.3230   23.1930   10.9690 C   0  0  0  0  0  3  0  0  0  0  0  0
  -18.7930   21.9030   11.0090 N   0  0  0  0  0  0  0  0  0  0  0  0
  -19.2900   25.3970   11.7680 C   0  0  0  0  0  0  0  0  0  0  0  0
  -20.4420   26.1040   12.1500 C   0  0  0  0  0  3  0  0  0  0  0  0
  -20.3940   27.4870   12.3470 C   0  0  0  0  0  3  0  0  0  0  0  0
  -19.1960   28.1700   12.1640 C   0  0  0  0  0  0  0  0  0  0  0  0
  -19.1780   29.4970   12.3580 F   0  0  0  0  0  0  0  0  0  0  0  0
  -18.0440   27.4870   11.7890 C   0  0  0  0  0  0  0  0  0  0  0  0
  -16.5590   28.3270   11.5610 Cl  0  0  0  0  0  0  0  0  0  0  0  0
  -18.0890   26.1050   11.5940 C   0  0  0  0  0  3  0  0  0  0  0  0
  -22.2870   18.8300   13.4440 N   0  0  0  0  0  0  0  0  0  0  0  0
  -21.2310   18.3510   12.5540 C   0  0  0  0  0  2  0  0  0  0  0  0
  -20.2630   19.4750   12.1950 C   0  0  0  0  0  2  0  0  0  0  0  0
  -20.9950   20.7660   11.7880 C   0  0  1  0  0  3  0  0  0  0  0  0
  -22.1830   21.1300   12.6910 C   0  0  0  0  0  2  0  0  0  0  0  0
  -23.0920   19.9300   12.9290 C   0  0  0  0  0  2  0  0  0  0  0  0
  -21.1390   17.8600   15.3420 C   0  0  0  0  0  0  0  0  0  0  0  0
  -20.9820   17.8850   16.7240 C   0  0  0  0  0  0  0  0  0  0  0  0
  -20.0600   17.1050   17.3850 N   0  0  0  0  0  0  0  0  0  0  0  0
  -21.6470   18.7400   17.5120 N   0  0  0  0  0  0  0  0  0  0  0  0
  -22.4660   19.5890   16.9000 C   0  0  0  0  0  3  0  0  0  0  0  0
  -22.7930   19.5810   15.6050 N   0  0  0  0  0  0  0  0  0  0  0  0
  -22.0800   18.7500   14.8150 C   0  0  0  0  0  0  0  0  0  0  0  0
  -20.0070   17.2760   18.3810 H   0  0  0  0  0  0  0  0  0  0  0  0
  -19.8630   16.1670   17.0710 H   0  0  0  0  0  0  0  0  0  0  0  0
  -20.6740   15.5620   14.4440 C   0  0  0  0  0  1  0  0  0  0  0  0
  -20.2450   17.0230   14.4600 C   0  0  0  0  0  2  0  0  0  0  0  0
  -18.0410   20.7680   10.5120 C   0  0  0  0  0  2  0  0  0  0  0  0
  -17.1160   21.1550    9.3560 C   0  0  0  0  0  2  0  0  0  0  0  0
  -17.4250   20.3290    8.1240 N   0  0  0  0  0  4  0  0  0  0  0  0
  -16.2600   19.4870    7.6490 C   0  0  0  0  0  2  0  0  0  0  0  0
  -16.5890   19.2480    6.1920 C   0  0  0  0  0  2  0  0  0  0  0  0
  -17.1030   20.6030    5.7460 C   0  0  0  0  0  2  0  0  0  0  0  0
  -17.9220   21.1120    6.9210 C   0  0  0  0  0  2  0  0  0  0  0  0
  -18.1670   19.6510    8.3750 H   0  0  0  0  0  0  0  0  0  0  0  0
  1  2  2  0  0  0  0
  3  6  1  0  0  0  0
  3  2  1  0  0  0  0
  4  5  1  0  0  0  0
  4  3  2  0  0  0  0
  5  1  1  0  0  0  0
  6  7  1  0  0  0  0
  7  8  2  0  0  0  0
  9  8  1  0  0  0  0
  9 10  1  0  0  0  0
 11  9  2  0  0  0  0
 12 11  1  0  0  0  0
 13  6  2  0  0  0  0
 13 11  1  0  0  0  0
 14 26  1  0  0  0  0
 15 14  1  0  0  0  0
 16 15  1  0  0  0  0
 17  1  1  1  0  0  0
 17 16  1  0  0  0  0
 17 18  1  0  0  0  0
 18 19  1  0  0  0  0
 19 14  1  0  0  0  0
 20 21  1  0  0  0  0
 21 22  1  0  0  0  0
 21 23  2  0  0  0  0
 22 27  1  0  0  0  0
 24 23  1  0  0  0  0
 25 24  2  0  0  0  0
 26 20  2  0  0  0  0
 26 25  1  0  0  0  0
 28 22  1  0  0  0  0
 29 30  1  0  0  0  0
 30 20  1  0  0  0  0
 31  5  1  0  0  0  0
 32 31  1  0  0  0  0
 33 38  1  0  0  0  0
 33 32  1  0  0  0  0
 34 33  1  0  0  0  0
 35 34  1  0  0  0  0
 36 35  1  0  0  0  0
 36 37  1  0  0  0  0
 37 33  1  0  0  0  0
M  END
>  <minimizedAffinity>
-8.76802826

$$$$
