
 OpenBabel11232420533D

 38 42  0  0  1  0  0  0  0  0999 V2000
  -17.8520   23.8030   10.2170 C   0  0  0  0  0  0  0  0  0  0  0  0
  -16.9980   23.0170    9.5930 N   0  0  0  0  0  0  0  0  0  0  0  0
  -17.7290   22.0800    8.9080 C   0  0  0  0  0  0  0  0  0  0  0  0
  -19.0690   22.2620    9.1650 C   0  0  0  0  0  3  0  0  0  0  0  0
  -19.1370   23.3410   10.0110 N   0  0  0  0  0  0  0  0  0  0  0  0
  -17.1240   21.0680    8.0590 C   0  0  0  0  0  0  0  0  0  0  0  0
  -17.3730   19.6980    8.2370 C   0  0  0  0  0  3  0  0  0  0  0  0
  -16.7830   18.7520    7.3940 C   0  0  0  0  0  3  0  0  0  0  0  0
  -15.9410   19.1710    6.3680 C   0  0  0  0  0  0  0  0  0  0  0  0
  -15.3860   18.2440    5.5740 F   0  0  0  0  0  0  0  0  0  0  0  0
  -15.6850   20.5240    6.1740 C   0  0  0  0  0  0  0  0  0  0  0  0
  -14.6440   21.0490    4.9080 Cl  0  0  0  0  0  0  0  0  0  0  0  0
  -16.2760   21.4700    7.0140 C   0  0  0  0  0  3  0  0  0  0  0  0
  -17.7140   27.7440   11.7930 N   0  0  0  0  0  0  0  0  0  0  0  0
  -16.6120   27.4240   10.8870 C   0  0  0  0  0  2  0  0  0  0  0  0
  -16.8970   26.1440   10.1050 C   0  0  0  0  0  2  0  0  0  0  0  0
  -17.4170   25.0130   11.0100 C   0  0  1  0  0  3  0  0  0  0  0  0
  -18.4730   25.4570   12.0320 C   0  0  0  0  0  2  0  0  0  0  0  0
  -18.0400   26.7160   12.7720 C   0  0  0  0  0  2  0  0  0  0  0  0
  -19.3560   29.4820   12.1700 C   0  0  0  0  0  0  0  0  0  0  0  0
  -20.3440   30.2720   11.5920 C   0  0  0  0  0  0  0  0  0  0  0  0
  -21.0070   31.2620   12.2810 N   0  0  0  0  0  0  0  0  0  0  0  0
  -20.6590   30.2000   10.2920 N   0  0  0  0  0  0  0  0  0  0  0  0
  -19.9610   29.3340    9.5640 C   0  0  0  0  0  3  0  0  0  0  0  0
  -19.0820   28.4390   10.0240 N   0  0  0  0  0  0  0  0  0  0  0  0
  -18.7370   28.5570   11.3240 C   0  0  0  0  0  0  0  0  0  0  0  0
  -21.6500   31.8040   11.7180 H   0  0  0  0  0  0  0  0  0  0  0  0
  -21.2440   31.1390   13.2540 H   0  0  0  0  0  0  0  0  0  0  0  0
  -17.7320   30.7010   13.6460 C   0  0  0  0  0  1  0  0  0  0  0  0
  -18.8890   29.7130   13.5870 C   0  0  0  0  0  2  0  0  0  0  0  0
  -20.3810   23.8440   10.5590 C   0  0  0  0  0  2  0  0  0  0  0  0
  -20.7010   23.2210   11.9200 C   0  0  0  0  0  2  0  0  0  0  0  0
  -21.1650   21.7870   11.7550 N   0  0  0  0  0  4  0  0  0  0  0  0
  -22.3510   21.4300   12.6250 C   0  0  0  0  0  2  0  0  0  0  0  0
  -22.2510   19.9250   12.7290 C   0  0  0  0  0  2  0  0  0  0  0  0
  -20.7620   19.7070   12.9140 C   0  0  0  0  0  2  0  0  0  0  0  0
  -20.1060   20.7260   11.9970 C   0  0  0  0  0  2  0  0  0  0  0  0
  -21.4970   21.6710   10.7810 H   0  0  0  0  0  0  0  0  0  0  0  0
  2  1  2  0  0  0  0
  3  4  2  0  0  0  0
  3  2  1  0  0  0  0
  4  5  1  0  0  0  0
  5  1  1  0  0  0  0
  5 31  1  0  0  0  0
  6  7  1  0  0  0  0
  6  3  1  0  0  0  0
  8  7  2  0  0  0  0
  9  8  1  0  0  0  0
 10  9  1  0  0  0  0
 11  9  2  0  0  0  0
 11 13  1  0  0  0  0
 12 11  1  0  0  0  0
 13  6  2  0  0  0  0
 14 19  1  0  0  0  0
 15 14  1  0  0  0  0
 16 15  1  0  0  0  0
 16 17  1  0  0  0  0
 17  1  1  6  0  0  0
 17 18  1  0  0  0  0
 18 19  1  0  0  0  0
 20 30  1  0  0  0  0
 21 20  1  0  0  0  0
 21 22  1  0  0  0  0
 22 28  1  0  0  0  0
 23 21  2  0  0  0  0
 24 25  2  0  0  0  0
 24 23  1  0  0  0  0
 25 26  1  0  0  0  0
 26 14  1  0  0  0  0
 26 20  2  0  0  0  0
 27 22  1  0  0  0  0
 30 29  1  0  0  0  0
 31 32  1  0  0  0  0
 33 32  1  0  0  0  0
 33 37  1  0  0  0  0
 33 34  1  0  0  0  0
 34 35  1  0  0  0  0
 35 36  1  0  0  0  0
 37 36  1  0  0  0  0
 38 33  1  0  0  0  0
M  END
>  <minimizedAffinity>
-8.78745842

$$$$
