
 OpenBabel10152419253D

 36 39  0  0  0  0  0  0  0  0999 V2000
    7.9910  -14.4560   12.8560 C   0  0  0  0  0  0  0  0  0  0  0  0
    8.7330  -15.0220   13.8960 C   0  0  0  0  0  3  0  0  0  0  0  0
   10.1200  -15.0710   13.8170 C   0  0  0  0  0  3  0  0  0  0  0  0
   10.7730  -14.5390   12.7050 C   0  0  0  0  0  3  0  0  0  0  0  0
   10.0690  -13.9020   11.6710 C   0  0  0  0  0  0  0  0  0  0  0  0
    8.6710  -13.8760   11.7660 C   0  0  0  0  0  3  0  0  0  0  0  0
    4.5430  -12.0870   10.9040 C   0  0  0  0  0  0  0  0  0  0  0  0
    3.7910  -12.6970   11.8810 C   0  0  0  0  0  3  0  0  0  0  0  0
    4.4460  -13.6620   12.6280 N   0  0  0  0  0  0  0  0  0  0  0  0
    5.7100  -13.7320   12.2720 C   0  0  0  0  0  0  0  0  0  0  0  0
    6.5920  -14.5590   12.8810 N   0  0  0  0  0  0  0  0  0  0  0  0
    6.1140  -12.7490   10.9030 S   0  0  0  0  0  0  0  0  0  0  0  0
    6.2130  -15.3280   13.4180 H   0  0  0  0  0  0  0  0  0  0  0  0
    4.2130  -11.0330    9.9840 C   0  0  0  0  0  0  0  0  0  0  0  0
    3.0960  -10.7360    9.5930 O   0  0  0  0  0  0  0  0  0  0  0  0
    5.3680  -10.4520    9.5400 O   0  0  0  0  0  0  0  0  0  0  0  0
    6.9670  -10.8120    7.7360 C   0  0  0  0  0  1  0  0  0  0  0  0
    5.5420  -10.4400    8.1150 C   0  0  0  0  0  2  0  0  0  0  0  0
   10.7800  -13.3380   10.4450 C   0  0  0  0  0  2  0  0  0  0  0  0
   10.6380  -11.8930   10.3150 N   0  0  0  0  0  0  0  0  0  0  0  0
   10.4050  -11.5240    9.4070 H   0  0  0  0  0  0  0  0  0  0  0  0
   10.3170  -11.1610   11.4560 C   0  0  0  0  0  0  0  0  0  0  0  0
   10.7890  -11.6230   12.6280 N   0  0  0  0  0  0  0  0  0  0  0  0
   10.1090  -11.2810   13.7210 C   0  0  0  0  0  3  0  0  0  0  0  0
    8.9440  -10.6320   13.7260 N   0  0  0  0  0  0  0  0  0  0  0  0
    8.5280  -10.1000   12.5590 C   0  0  0  0  0  0  0  0  0  0  0  0
    7.2870   -9.4760   12.4230 C   0  0  0  0  0  0  0  0  0  0  0  0
    6.9030   -8.7530   11.2820 C   0  0  0  0  0  3  0  0  0  0  0  0
    7.7540   -8.7140   10.1920 C   0  0  0  0  0  3  0  0  0  0  0  0
    8.9060   -9.4930   10.2200 C   0  0  0  0  0  3  0  0  0  0  0  0
    9.2810  -10.2150   11.3880 C   0  0  0  0  0  0  0  0  0  0  0  0
    6.2040   -9.8660   13.3410 C   0  0  0  0  0  0  0  0  0  0  0  0
    6.2690  -11.1820   13.7260 N   0  0  0  0  0  0  0  0  0  0  0  0
    5.2940   -9.1190   13.6580 O   0  0  0  0  0  0  0  0  0  0  0  0
    5.5540  -11.5460   14.3400 H   0  0  0  0  0  0  0  0  0  0  0  0
    7.0150  -11.7990   13.4290 H   0  0  0  0  0  0  0  0  0  0  0  0
  1 11  1  0  0  0  0
  1  2  1  0  0  0  0
  3  2  2  0  0  0  0
  4  3  1  0  0  0  0
  5  6  1  0  0  0  0
  5  4  2  0  0  0  0
  6  1  2  0  0  0  0
  7  8  2  0  0  0  0
  8  9  1  0  0  0  0
 10  9  2  0  0  0  0
 10 11  1  0  0  0  0
 11 13  1  0  0  0  0
 12  7  1  0  0  0  0
 12 10  1  0  0  0  0
 14  7  1  0  0  0  0
 15 14  2  0  0  0  0
 16 14  1  0  0  0  0
 17 18  1  0  0  0  0
 18 16  1  0  0  0  0
 19  5  1  0  0  0  0
 20 19  1  0  0  0  0
 20 22  1  0  0  0  0
 21 20  1  0  0  0  0
 22 23  1  0  0  0  0
 23 24  2  0  0  0  0
 24 25  1  0  0  0  0
 26 25  2  0  0  0  0
 27 26  1  0  0  0  0
 27 32  1  0  0  0  0
 28 27  2  0  0  0  0
 29 30  2  0  0  0  0
 29 28  1  0  0  0  0
 30 31  1  0  0  0  0
 31 22  2  0  0  0  0
 31 26  1  0  0  0  0
 32 34  2  0  0  0  0
 32 33  1  0  0  0  0
 33 35  1  0  0  0  0
 36 33  1  0  0  0  0
M  END
>  <minimizedAffinity>
8.99044609

$$$$
