
 OpenBabel10152419573D

 38 41  0  0  1  0  0  0  0  0999 V2000
    3.0250   -7.8890  -27.4520 C   0  0  0  0  0  0  0  0  0  0  0  0
    4.3670   -8.2540  -27.3450 C   0  0  0  0  0  3  0  0  0  0  0  0
    4.7220   -9.4670  -26.7580 C   0  0  0  0  0  3  0  0  0  0  0  0
    3.7320  -10.3640  -26.3560 C   0  0  0  0  0  3  0  0  0  0  0  0
    2.3710  -10.0540  -26.5230 C   0  0  0  0  0  0  0  0  0  0  0  0
    2.0290   -8.7710  -27.0090 C   0  0  0  0  0  3  0  0  0  0  0  0
    1.5650   -5.9980  -28.2010 C   0  0  0  0  0  0  0  0  0  0  0  0
    1.1300   -5.5310  -29.2500 O   0  0  0  0  0  0  0  0  0  0  0  0
    2.7330   -6.7180  -28.1740 N   0  0  0  0  0  0  0  0  0  0  0  0
    3.3780   -6.4760  -28.9180 H   0  0  0  0  0  0  0  0  0  0  0  0
   -0.5530   -4.9730  -24.6350 C   0  0  0  0  0  0  0  0  0  0  0  0
    0.1580   -6.1730  -24.7090 C   0  0  0  0  0  3  0  0  0  0  0  0
    0.9120   -6.4740  -25.8470 C   0  0  0  0  0  3  0  0  0  0  0  0
    0.9600   -5.5710  -26.9140 C   0  0  0  0  0  0  0  0  0  0  0  0
    0.2360   -4.3740  -26.8470 C   0  0  0  0  0  3  0  0  0  0  0  0
   -0.5200   -4.0880  -25.7150 C   0  0  0  0  0  0  0  0  0  0  0  0
   -1.2780   -2.9810  -25.7260 F   0  0  0  0  0  0  0  0  0  0  0  0
   -1.0780   -5.7840  -22.5220 C   0  0  0  0  0  1  0  0  0  0  0  0
   -1.3340   -4.8010  -23.5250 O   0  0  0  0  0  0  0  0  0  0  0  0
    1.2830  -11.1160  -26.3190 C   0  0  1  0  0  3  0  0  0  0  0  0
    1.7450  -12.4660  -26.8750 C   0  0  0  0  0  1  0  0  0  0  0  0
    0.9270  -11.2790  -24.9100 N   0  0  0  0  0  0  0  0  0  0  0  0
    1.6650  -11.2760  -24.2250 H   0  0  0  0  0  0  0  0  0  0  0  0
   -0.3340  -10.7920  -24.5570 C   0  0  0  0  0  0  0  0  0  0  0  0
   -0.8350   -9.8140  -25.3300 N   0  0  0  0  0  0  0  0  0  0  0  0
   -1.7110   -8.9970  -24.7560 C   0  0  0  0  0  3  0  0  0  0  0  0
   -2.0290   -9.0050  -23.4620 N   0  0  0  0  0  0  0  0  0  0  0  0
   -1.5830  -10.0390  -22.7200 C   0  0  0  0  0  0  0  0  0  0  0  0
   -1.7530  -10.1040  -21.3360 C   0  0  0  0  0  0  0  0  0  0  0  0
   -1.4720  -11.2490  -20.5730 C   0  0  0  0  0  3  0  0  0  0  0  0
   -0.9170  -12.3550  -21.1910 C   0  0  0  0  0  3  0  0  0  0  0  0
   -0.5390  -12.2450  -22.5240 C   0  0  0  0  0  3  0  0  0  0  0  0
   -0.8360  -11.0740  -23.2790 C   0  0  0  0  0  0  0  0  0  0  0  0
   -1.9200   -8.8320  -20.6020 C   0  0  0  0  0  0  0  0  0  0  0  0
   -3.1140   -8.2050  -20.8850 N   0  0  0  0  0  0  0  0  0  0  0  0
   -1.1000   -8.3840  -19.8390 O   0  0  0  0  0  0  0  0  0  0  0  0
   -3.3400   -7.3600  -20.3750 H   0  0  0  0  0  0  0  0  0  0  0  0
   -3.8060   -8.5950  -21.5100 H   0  0  0  0  0  0  0  0  0  0  0  0
  1  2  2  0  0  0  0
  1  6  1  0  0  0  0
  2  3  1  0  0  0  0
  3  4  2  0  0  0  0
  5  4  1  0  0  0  0
  5 20  1  0  0  0  0
  6  5  2  0  0  0  0
  7  9  1  0  0  0  0
  7 14  1  0  0  0  0
  8  7  2  0  0  0  0
  9  1  1  0  0  0  0
 10  9  1  0  0  0  0
 11 19  1  0  0  0  0
 12 11  1  0  0  0  0
 13 12  2  0  0  0  0
 14 15  2  0  0  0  0
 14 13  1  0  0  0  0
 15 16  1  0  0  0  0
 16 11  2  0  0  0  0
 17 16  1  0  0  0  0
 19 18  1  0  0  0  0
 20 21  1  1  0  0  0
 20 22  1  0  0  0  0
 22 24  1  0  0  0  0
 22 23  1  0  0  0  0
 24 33  1  0  0  0  0
 25 26  1  0  0  0  0
 25 24  2  0  0  0  0
 26 27  2  0  0  0  0
 27 28  1  0  0  0  0
 28 29  1  0  0  0  0
 29 34  1  0  0  0  0
 29 30  2  0  0  0  0
 31 30  1  0  0  0  0
 32 31  2  0  0  0  0
 33 28  2  0  0  0  0
 33 32  1  0  0  0  0
 34 36  2  0  0  0  0
 35 34  1  0  0  0  0
 35 37  1  0  0  0  0
 38 35  1  0  0  0  0
M  END
>  <minimizedAffinity>
-7.66362667

$$$$
