
 OpenBabel10152419573D

 38 41  0  0  1  0  0  0  0  0999 V2000
   -0.3070   -6.3270  -23.9520 C   0  0  0  0  0  0  0  0  0  0  0  0
   -0.8920   -5.1180  -24.3330 C   0  0  0  0  0  3  0  0  0  0  0  0
   -0.5420   -4.5170  -25.5400 C   0  0  0  0  0  3  0  0  0  0  0  0
    0.3280   -5.1660  -26.4170 C   0  0  0  0  0  3  0  0  0  0  0  0
    0.8710   -6.4210  -26.0920 C   0  0  0  0  0  0  0  0  0  0  0  0
    0.6000   -6.9590  -24.8130 C   0  0  0  0  0  3  0  0  0  0  0  0
   -1.7240   -7.9570  -22.6850 C   0  0  0  0  0  0  0  0  0  0  0  0
   -2.5910   -7.9420  -21.8160 O   0  0  0  0  0  0  0  0  0  0  0  0
   -0.8040   -6.9430  -22.7900 N   0  0  0  0  0  0  0  0  0  0  0  0
   -0.6250   -6.4640  -21.9140 H   0  0  0  0  0  0  0  0  0  0  0  0
   -0.7320  -11.3380  -25.1010 C   0  0  0  0  0  0  0  0  0  0  0  0
   -0.2610  -11.2510  -23.7890 C   0  0  0  0  0  3  0  0  0  0  0  0
   -0.6460  -10.1820  -22.9740 C   0  0  0  0  0  3  0  0  0  0  0  0
   -1.5100   -9.1990  -23.4700 C   0  0  0  0  0  0  0  0  0  0  0  0
   -1.9720   -9.2780  -24.7900 C   0  0  0  0  0  3  0  0  0  0  0  0
   -1.5740  -10.3400  -25.5970 C   0  0  0  0  0  0  0  0  0  0  0  0
   -1.9550  -10.3310  -26.8830 F   0  0  0  0  0  0  0  0  0  0  0  0
    1.0250  -12.0460  -26.4460 C   0  0  0  0  0  1  0  0  0  0  0  0
   -0.2350  -12.3660  -25.8550 O   0  0  0  0  0  0  0  0  0  0  0  0
    1.6240   -7.2550  -27.1360 C   0  0  1  0  0  3  0  0  0  0  0  0
    1.9120   -6.4140  -28.3830 C   0  0  0  0  0  1  0  0  0  0  0  0
    2.8850   -7.7820  -26.6170 N   0  0  0  0  0  0  0  0  0  0  0  0
    2.8770   -8.2650  -25.7340 H   0  0  0  0  0  0  0  0  0  0  0  0
    3.8170   -8.1550  -27.5890 C   0  0  0  0  0  0  0  0  0  0  0  0
    3.9490   -7.3270  -28.6390 N   0  0  0  0  0  0  0  0  0  0  0  0
    4.3800   -7.8710  -29.7710 C   0  0  0  0  0  3  0  0  0  0  0  0
    4.5690   -9.1760  -29.9680 N   0  0  0  0  0  0  0  0  0  0  0  0
    4.5110   -9.9810  -28.8890 C   0  0  0  0  0  0  0  0  0  0  0  0
    4.5800  -11.3720  -28.9790 C   0  0  0  0  0  0  0  0  0  0  0  0
    4.7160  -12.2170  -27.8650 C   0  0  0  0  0  3  0  0  0  0  0  0
    4.6970  -11.6700  -26.5950 C   0  0  0  0  0  3  0  0  0  0  0  0
    4.4160  -10.3140  -26.4640 C   0  0  0  0  0  3  0  0  0  0  0  0
    4.2840   -9.4770  -27.6090 C   0  0  0  0  0  0  0  0  0  0  0  0
    4.1690  -12.0010  -30.2520 C   0  0  0  0  0  0  0  0  0  0  0  0
    3.0810  -11.3810  -30.8280 N   0  0  0  0  0  0  0  0  0  0  0  0
    4.7200  -12.9590  -30.7360 O   0  0  0  0  0  0  0  0  0  0  0  0
    2.7740  -11.7060  -31.7350 H   0  0  0  0  0  0  0  0  0  0  0  0
    2.6360  -10.5670  -30.4270 H   0  0  0  0  0  0  0  0  0  0  0  0
  1  9  1  0  0  0  0
  2  1  1  0  0  0  0
  3  2  2  0  0  0  0
  4  5  2  0  0  0  0
  4  3  1  0  0  0  0
  5  6  1  0  0  0  0
  6  1  2  0  0  0  0
  7  8  2  0  0  0  0
  9  7  1  0  0  0  0
  9 10  1  0  0  0  0
 11 12  1  0  0  0  0
 12 13  2  0  0  0  0
 14 13  1  0  0  0  0
 14  7  1  0  0  0  0
 15 14  2  0  0  0  0
 16 11  2  0  0  0  0
 16 15  1  0  0  0  0
 17 16  1  0  0  0  0
 18 19  1  0  0  0  0
 19 11  1  0  0  0  0
 20 21  1  6  0  0  0
 20 22  1  0  0  0  0
 20  5  1  0  0  0  0
 22 23  1  0  0  0  0
 24 22  1  0  0  0  0
 25 24  2  0  0  0  0
 26 25  1  0  0  0  0
 27 26  2  0  0  0  0
 27 28  1  0  0  0  0
 28 33  1  0  0  0  0
 29 28  2  0  0  0  0
 29 30  1  0  0  0  0
 30 31  2  0  0  0  0
 31 32  1  0  0  0  0
 33 24  1  0  0  0  0
 33 32  2  0  0  0  0
 34 29  1  0  0  0  0
 35 38  1  0  0  0  0
 35 34  1  0  0  0  0
 36 34  2  0  0  0  0
 37 35  1  0  0  0  0
M  END
>  <minimizedAffinity>
-7.56686449

$$$$
