
 OpenBabel10152419573D

 38 41  0  0  1  0  0  0  0  0999 V2000
    1.3680   -5.9010  -27.7000 C   0  0  0  0  0  0  0  0  0  0  0  0
    0.8070   -4.6610  -28.0070 C   0  0  0  0  0  3  0  0  0  0  0  0
   -0.2790   -4.1800  -27.2780 C   0  0  0  0  0  3  0  0  0  0  0  0
   -0.7530   -4.8960  -26.1770 C   0  0  0  0  0  3  0  0  0  0  0  0
   -0.1540   -6.1090  -25.7990 C   0  0  0  0  0  0  0  0  0  0  0  0
    0.8660   -6.6410  -26.6210 C   0  0  0  0  0  3  0  0  0  0  0  0
    3.5400   -7.1150  -27.9830 C   0  0  0  0  0  0  0  0  0  0  0  0
    4.7220   -6.8520  -28.1870 O   0  0  0  0  0  0  0  0  0  0  0  0
    2.5420   -6.2630  -28.3850 N   0  0  0  0  0  0  0  0  0  0  0  0
    2.7950   -5.6860  -29.1800 H   0  0  0  0  0  0  0  0  0  0  0  0
    2.9060  -11.0800  -26.5240 C   0  0  0  0  0  0  0  0  0  0  0  0
    2.7050   -9.9830  -25.6840 C   0  0  0  0  0  3  0  0  0  0  0  0
    2.8400   -8.6830  -26.1810 C   0  0  0  0  0  3  0  0  0  0  0  0
    3.1720   -8.4790  -27.5250 C   0  0  0  0  0  0  0  0  0  0  0  0
    3.3870   -9.5780  -28.3650 C   0  0  0  0  0  3  0  0  0  0  0  0
    3.2620  -10.8680  -27.8580 C   0  0  0  0  0  0  0  0  0  0  0  0
    3.5720  -11.8950  -28.6640 F   0  0  0  0  0  0  0  0  0  0  0  0
    4.0570  -12.6610  -25.2690 C   0  0  0  0  0  1  0  0  0  0  0  0
    2.8420  -12.3130  -25.9340 O   0  0  0  0  0  0  0  0  0  0  0  0
   -0.4940   -6.7800  -24.4620 C   0  0  1  0  0  3  0  0  0  0  0  0
   -0.1080   -5.8660  -23.2940 C   0  0  0  0  0  1  0  0  0  0  0  0
   -1.9140   -7.1130  -24.3550 N   0  0  0  0  0  0  0  0  0  0  0  0
   -2.5370   -6.7960  -25.0790 H   0  0  0  0  0  0  0  0  0  0  0  0
   -2.1940   -8.3080  -23.6880 C   0  0  0  0  0  0  0  0  0  0  0  0
   -2.5130   -8.2060  -22.3870 N   0  0  0  0  0  0  0  0  0  0  0  0
   -2.2640   -9.2700  -21.6320 C   0  0  0  0  0  3  0  0  0  0  0  0
   -1.6210  -10.3630  -22.0400 N   0  0  0  0  0  0  0  0  0  0  0  0
   -1.3810  -10.4840  -23.3610 C   0  0  0  0  0  0  0  0  0  0  0  0
   -0.6200  -11.5240  -23.8990 C   0  0  0  0  0  0  0  0  0  0  0  0
   -0.5180  -11.7790  -25.2760 C   0  0  0  0  0  3  0  0  0  0  0  0
   -1.1260  -10.9170  -26.1710 C   0  0  0  0  0  3  0  0  0  0  0  0
   -1.7090   -9.7560  -25.6770 C   0  0  0  0  0  3  0  0  0  0  0  0
   -1.8030   -9.5200  -24.2750 C   0  0  0  0  0  0  0  0  0  0  0  0
    0.3720  -12.1770  -23.0200 C   0  0  0  0  0  0  0  0  0  0  0  0
   -0.2110  -12.9510  -22.0390 N   0  0  0  0  0  0  0  0  0  0  0  0
    1.5650  -12.0460  -23.1400 O   0  0  0  0  0  0  0  0  0  0  0  0
    0.3970  -13.4870  -21.4340 H   0  0  0  0  0  0  0  0  0  0  0  0
   -1.2100  -13.0720  -21.9560 H   0  0  0  0  0  0  0  0  0  0  0  0
  1  6  1  0  0  0  0
  2  1  2  0  0  0  0
  2  3  1  0  0  0  0
  3  4  2  0  0  0  0
  4  5  1  0  0  0  0
  5 20  1  0  0  0  0
  6  5  2  0  0  0  0
  7 14  1  0  0  0  0
  8  7  2  0  0  0  0
  9  7  1  0  0  0  0
  9  1  1  0  0  0  0
 10  9  1  0  0  0  0
 11 19  1  0  0  0  0
 11 12  1  0  0  0  0
 13 12  2  0  0  0  0
 14 13  1  0  0  0  0
 15 16  1  0  0  0  0
 15 14  2  0  0  0  0
 16 11  2  0  0  0  0
 17 16  1  0  0  0  0
 19 18  1  0  0  0  0
 20 22  1  0  0  0  0
 20 21  1  1  0  0  0
 22 24  1  0  0  0  0
 23 22  1  0  0  0  0
 24 25  1  0  0  0  0
 25 26  2  0  0  0  0
 27 26  1  0  0  0  0
 28 27  2  0  0  0  0
 29 28  1  0  0  0  0
 29 34  1  0  0  0  0
 30 29  2  0  0  0  0
 31 32  2  0  0  0  0
 31 30  1  0  0  0  0
 32 33  1  0  0  0  0
 33 24  2  0  0  0  0
 33 28  1  0  0  0  0
 34 35  1  0  0  0  0
 35 38  1  0  0  0  0
 35 37  1  0  0  0  0
 36 34  2  0  0  0  0
M  END
>  <minimizedAffinity>
-8.99766636

$$$$
