
 OpenBabel10152419573D

 38 41  0  0  1  0  0  0  0  0999 V2000
   -1.4880   -8.9950  -22.3480 C   0  0  0  0  0  0  0  0  0  0  0  0
   -2.8720   -8.9740  -22.1660 C   0  0  0  0  0  3  0  0  0  0  0  0
   -3.6590   -8.0610  -22.8650 C   0  0  0  0  0  3  0  0  0  0  0  0
   -3.0780   -7.2240  -23.8180 C   0  0  0  0  0  3  0  0  0  0  0  0
   -1.6980   -7.2800  -24.0770 C   0  0  0  0  0  0  0  0  0  0  0  0
   -0.8970   -8.1250  -23.2750 C   0  0  0  0  0  3  0  0  0  0  0  0
   -0.6240  -11.3340  -22.1130 C   0  0  0  0  0  0  0  0  0  0  0  0
   -0.6690  -12.2540  -21.3010 O   0  0  0  0  0  0  0  0  0  0  0  0
   -0.7730  -10.0280  -21.7160 N   0  0  0  0  0  0  0  0  0  0  0  0
   -0.4950   -9.8600  -20.7550 H   0  0  0  0  0  0  0  0  0  0  0  0
    0.9050  -11.7200  -26.0830 C   0  0  0  0  0  0  0  0  0  0  0  0
    1.6810  -12.1160  -24.9910 C   0  0  0  0  0  3  0  0  0  0  0  0
    1.1530  -12.0590  -23.6980 C   0  0  0  0  0  3  0  0  0  0  0  0
   -0.1570  -11.6110  -23.4950 C   0  0  0  0  0  0  0  0  0  0  0  0
   -0.9310  -11.2010  -24.5870 C   0  0  0  0  0  3  0  0  0  0  0  0
   -0.3930  -11.2500  -25.8700 C   0  0  0  0  0  0  0  0  0  0  0  0
   -1.1260  -10.7580  -26.8800 F   0  0  0  0  0  0  0  0  0  0  0  0
    2.7570  -12.4520  -27.2800 C   0  0  0  0  0  1  0  0  0  0  0  0
    1.5290  -11.7230  -27.3010 O   0  0  0  0  0  0  0  0  0  0  0  0
   -1.0850   -6.5530  -25.2810 C   0  0  1  0  0  3  0  0  0  0  0  0
   -0.2880   -5.3300  -24.8160 C   0  0  0  0  0  1  0  0  0  0  0  0
   -0.2080   -7.4220  -26.0640 N   0  0  0  0  0  0  0  0  0  0  0  0
   -0.5960   -8.2590  -26.4650 H   0  0  0  0  0  0  0  0  0  0  0  0
    0.8380   -6.7710  -26.7220 C   0  0  0  0  0  0  0  0  0  0  0  0
    0.5000   -5.7200  -27.4890 N   0  0  0  0  0  0  0  0  0  0  0  0
    1.3190   -5.4350  -28.4950 C   0  0  0  0  0  3  0  0  0  0  0  0
    2.3640   -6.1740  -28.8620 N   0  0  0  0  0  0  0  0  0  0  0  0
    2.7370   -7.1740  -28.0380 C   0  0  0  0  0  0  0  0  0  0  0  0
    3.7420   -8.0870  -28.3650 C   0  0  0  0  0  0  0  0  0  0  0  0
    4.2780   -9.0100  -27.4520 C   0  0  0  0  0  3  0  0  0  0  0  0
    3.7390   -9.0960  -26.1810 C   0  0  0  0  0  3  0  0  0  0  0  0
    2.6000   -8.3520  -25.8960 C   0  0  0  0  0  3  0  0  0  0  0  0
    2.0760   -7.4200  -26.8360 C   0  0  0  0  0  0  0  0  0  0  0  0
    4.0250   -8.3170  -29.7970 C   0  0  0  0  0  0  0  0  0  0  0  0
    4.5660   -7.2130  -30.4190 N   0  0  0  0  0  0  0  0  0  0  0  0
    3.8020   -9.3570  -30.3670 O   0  0  0  0  0  0  0  0  0  0  0  0
    4.8520   -7.3040  -31.3850 H   0  0  0  0  0  0  0  0  0  0  0  0
    4.7680   -6.3510  -29.9310 H   0  0  0  0  0  0  0  0  0  0  0  0
  1  2  1  0  0  0  0
  1  9  1  0  0  0  0
  3  2  2  0  0  0  0
  4  3  1  0  0  0  0
  5  4  2  0  0  0  0
  5  6  1  0  0  0  0
  6  1  2  0  0  0  0
  7  9  1  0  0  0  0
  7  8  2  0  0  0  0
  9 10  1  0  0  0  0
 11 16  2  0  0  0  0
 11 12  1  0  0  0  0
 12 13  2  0  0  0  0
 13 14  1  0  0  0  0
 14  7  1  0  0  0  0
 15 14  2  0  0  0  0
 16 15  1  0  0  0  0
 17 16  1  0  0  0  0
 19 18  1  0  0  0  0
 19 11  1  0  0  0  0
 20 21  1  1  0  0  0
 20  5  1  0  0  0  0
 22 20  1  0  0  0  0
 23 22  1  0  0  0  0
 24 22  1  0  0  0  0
 25 24  2  0  0  0  0
 26 25  1  0  0  0  0
 27 26  2  0  0  0  0
 27 28  1  0  0  0  0
 28 33  1  0  0  0  0
 29 28  2  0  0  0  0
 29 30  1  0  0  0  0
 30 31  2  0  0  0  0
 31 32  1  0  0  0  0
 33 24  1  0  0  0  0
 33 32  2  0  0  0  0
 34 29  1  0  0  0  0
 35 38  1  0  0  0  0
 35 34  1  0  0  0  0
 36 34  2  0  0  0  0
 37 35  1  0  0  0  0
M  END
>  <minimizedAffinity>
-8.11474609

$$$$
