
 OpenBabel10152419573D

 38 41  0  0  1  0  0  0  0  0999 V2000
    3.2180   -6.8410  -28.3320 C   0  0  0  0  0  0  0  0  0  0  0  0
    3.9290   -7.1120  -29.5020 C   0  0  0  0  0  3  0  0  0  0  0  0
    4.4340   -8.3880  -29.7380 C   0  0  0  0  0  3  0  0  0  0  0  0
    4.1540   -9.4260  -28.8480 C   0  0  0  0  0  3  0  0  0  0  0  0
    3.3730   -9.1970  -27.7020 C   0  0  0  0  0  0  0  0  0  0  0  0
    2.9710   -7.8730  -27.4160 C   0  0  0  0  0  3  0  0  0  0  0  0
    1.2910   -5.2580  -28.1010 C   0  0  0  0  0  0  0  0  0  0  0  0
    0.8040   -4.3060  -28.7040 O   0  0  0  0  0  0  0  0  0  0  0  0
    2.6220   -5.5720  -28.2220 N   0  0  0  0  0  0  0  0  0  0  0  0
    3.2080   -4.7780  -28.4570 H   0  0  0  0  0  0  0  0  0  0  0  0
   -1.3400   -6.9040  -25.1640 C   0  0  0  0  0  0  0  0  0  0  0  0
   -1.2860   -7.4550  -26.4470 C   0  0  0  0  0  3  0  0  0  0  0  0
   -0.3730   -6.9660  -27.3840 C   0  0  0  0  0  3  0  0  0  0  0  0
    0.4950   -5.9230  -27.0390 C   0  0  0  0  0  0  0  0  0  0  0  0
    0.4330   -5.3610  -25.7580 C   0  0  0  0  0  3  0  0  0  0  0  0
   -0.4880   -5.8480  -24.8350 C   0  0  0  0  0  0  0  0  0  0  0  0
   -0.5880   -5.2200  -23.6530 F   0  0  0  0  0  0  0  0  0  0  0  0
   -1.8010   -7.8980  -23.1160 C   0  0  0  0  0  1  0  0  0  0  0  0
   -2.3230   -7.3820  -24.3410 O   0  0  0  0  0  0  0  0  0  0  0  0
    2.8510  -10.3620  -26.8510 C   0  0  1  0  0  3  0  0  0  0  0  0
    4.0170  -11.1000  -26.1860 C   0  0  0  0  0  1  0  0  0  0  0  0
    1.9180   -9.9170  -25.8170 N   0  0  0  0  0  0  0  0  0  0  0  0
    1.8440   -8.9310  -25.6290 H   0  0  0  0  0  0  0  0  0  0  0  0
    0.7970  -10.7310  -25.6400 C   0  0  0  0  0  0  0  0  0  0  0  0
   -0.3120  -10.3740  -26.3100 N   0  0  0  0  0  0  0  0  0  0  0  0
   -1.4700  -10.7600  -25.7840 C   0  0  0  0  0  3  0  0  0  0  0  0
   -1.6100  -11.3580  -24.6020 N   0  0  0  0  0  0  0  0  0  0  0  0
   -0.4900  -11.7820  -23.9840 C   0  0  0  0  0  0  0  0  0  0  0  0
   -0.4950  -12.3190  -22.6950 C   0  0  0  0  0  0  0  0  0  0  0  0
    0.6210  -12.9400  -22.1090 C   0  0  0  0  0  3  0  0  0  0  0  0
    1.8230  -12.9560  -22.7930 C   0  0  0  0  0  3  0  0  0  0  0  0
    1.9150  -12.2430  -23.9830 C   0  0  0  0  0  3  0  0  0  0  0  0
    0.7700  -11.6230  -24.5590 C   0  0  0  0  0  0  0  0  0  0  0  0
   -1.6010  -11.9370  -21.7930 C   0  0  0  0  0  0  0  0  0  0  0  0
   -1.7830  -10.5720  -21.7200 N   0  0  0  0  0  0  0  0  0  0  0  0
   -2.2720  -12.7300  -21.1800 O   0  0  0  0  0  0  0  0  0  0  0  0
   -2.5620  -10.2260  -21.1750 H   0  0  0  0  0  0  0  0  0  0  0  0
   -1.2300   -9.9140  -22.2510 H   0  0  0  0  0  0  0  0  0  0  0  0
  1  9  1  0  0  0  0
  1  6  1  0  0  0  0
  2  1  2  0  0  0  0
  3  2  1  0  0  0  0
  3  4  2  0  0  0  0
  4  5  1  0  0  0  0
  5  6  2  0  0  0  0
  5 20  1  0  0  0  0
  7 14  1  0  0  0  0
  8  7  2  0  0  0  0
  9  7  1  0  0  0  0
 10  9  1  0  0  0  0
 11 16  1  0  0  0  0
 11 19  1  0  0  0  0
 12 11  2  0  0  0  0
 13 14  2  0  0  0  0
 13 12  1  0  0  0  0
 14 15  1  0  0  0  0
 15 16  2  0  0  0  0
 16 17  1  0  0  0  0
 19 18  1  0  0  0  0
 20 21  1  1  0  0  0
 20 22  1  0  0  0  0
 22 24  1  0  0  0  0
 22 23  1  0  0  0  0
 24 33  1  0  0  0  0
 25 26  1  0  0  0  0
 25 24  2  0  0  0  0
 26 27  2  0  0  0  0
 27 28  1  0  0  0  0
 28 29  1  0  0  0  0
 29 30  2  0  0  0  0
 29 34  1  0  0  0  0
 31 30  1  0  0  0  0
 32 31  2  0  0  0  0
 33 28  2  0  0  0  0
 33 32  1  0  0  0  0
 34 35  1  0  0  0  0
 34 36  2  0  0  0  0
 35 37  1  0  0  0  0
 38 35  1  0  0  0  0
M  END
>  <minimizedAffinity>
-7.82170916

$$$$
