
 OpenBabel11232420483D

 35 39  0  0  1  0  0  0  0  0999 V2000
  -18.5860   20.1890    8.9750 O   0  0  0  0  0  0  0  0  0  0  0  0
  -20.2570   18.4850   11.8300 C   0  0  0  0  0  0  0  0  0  0  0  0
  -20.0820   17.1950   11.3360 C   0  0  0  0  0  3  0  0  0  0  0  0
  -19.4190   16.9000   10.1930 N   0  0  0  0  0  0  0  0  0  0  0  0
  -18.9060   17.9350    9.4950 C   0  0  0  0  0  3  0  0  0  0  0  0
  -19.0360   19.2650    9.8700 C   0  0  0  0  0  0  0  0  0  0  0  0
  -19.6860   19.5240   11.0740 C   0  0  0  0  0  3  0  0  0  0  0  0
  -21.0300   17.1180   17.4420 C   0  0  0  0  0  1  0  0  0  0  0  0
  -21.8110   18.1270   16.6820 C   0  0  0  0  0  0  0  0  0  0  0  0
  -22.7960   18.8100   17.2790 N   0  0  0  0  0  0  0  0  0  0  0  0
  -23.2690   19.6120   16.3140 N   0  0  0  0  0  0  0  0  0  0  0  0
  -22.6300   19.4730   15.1130 C   0  0  0  0  0  0  0  0  0  0  0  0
  -22.8050   20.0990   13.8920 C   0  0  0  0  0  3  0  0  0  0  0  0
  -22.0020   19.7450   12.8550 N   0  0  0  0  0  0  0  0  0  0  0  0
  -21.0450   18.7840   13.0360 C   0  0  0  0  0  0  0  0  0  0  0  0
  -20.8340   18.1330   14.2520 C   0  0  0  0  0  3  0  0  0  0  0  0
  -21.6630   18.5000   15.3200 C   0  0  0  0  0  0  0  0  0  0  0  0
  -24.0350   20.2330   16.5490 H   0  0  0  0  0  0  0  0  0  0  0  0
  -17.3000   20.7930    9.1610 C   0  0  0  0  0  2  0  0  0  0  0  0
  -17.4220   22.1260    9.9350 C   0  0  1  0  0  3  0  0  0  0  0  0
  -16.4700   22.1490   11.1030 N   0  0  0  0  0  4  0  0  0  0  0  0
  -15.4790   22.0850   10.8250 H   0  0  0  0  0  0  0  0  0  0  0  0
  -16.5830   22.9930   11.6770 H   0  0  0  0  0  0  0  0  0  0  0  0
  -16.6540   21.3440   11.7200 H   0  0  0  0  0  0  0  0  0  0  0  0
  -17.1520   23.3580    9.0580 C   0  0  0  0  0  2  0  0  0  0  0  0
  -17.2380   24.6350    9.8220 C   0  0  0  0  0  0  0  0  0  0  0  0
  -16.1990   25.5140   10.0610 C   0  0  0  0  0  3  0  0  0  0  0  0
  -16.6810   26.5580   10.8070 N   0  0  0  0  0  0  0  0  0  0  0  0
  -18.0170   26.3730   11.0710 C   0  0  0  0  0  0  0  0  0  0  0  0
  -18.9050   27.1730   11.7990 C   0  0  0  0  0  3  0  0  0  0  0  0
  -20.2300   26.7460   11.8970 C   0  0  0  0  0  3  0  0  0  0  0  0
  -20.6510   25.5680   11.2860 C   0  0  0  0  0  3  0  0  0  0  0  0
  -19.7490   24.7790   10.5600 C   0  0  0  0  0  3  0  0  0  0  0  0
  -18.4030   25.1840   10.4520 C   0  0  0  0  0  0  0  0  0  0  0  0
  -16.1420   27.3560   11.1190 H   0  0  0  0  0  0  0  0  0  0  0  0
  1 19  1  0  0  0  0
  1  6  1  0  0  0  0
  2 15  1  0  0  0  0
  3  2  1  0  0  0  0
  4  3  2  0  0  0  0
  5  6  2  0  0  0  0
  5  4  1  0  0  0  0
  6  7  1  0  0  0  0
  7  2  2  0  0  0  0
  9 10  2  0  0  0  0
  9  8  1  0  0  0  0
 11 18  1  0  0  0  0
 11 10  1  0  0  0  0
 12 17  1  0  0  0  0
 12 11  1  0  0  0  0
 13 12  2  0  0  0  0
 14 15  2  0  0  0  0
 14 13  1  0  0  0  0
 15 16  1  0  0  0  0
 16 17  2  0  0  0  0
 17  9  1  0  0  0  0
 20 19  1  6  0  0  0
 20 25  1  0  0  0  0
 20 21  1  0  0  0  0
 21 23  1  0  0  0  0
 21 24  1  0  0  0  0
 22 21  1  0  0  0  0
 25 26  1  0  0  0  0
 26 27  2  0  0  0  0
 26 34  1  0  0  0  0
 27 28  1  0  0  0  0
 28 29  1  0  0  0  0
 28 35  1  0  0  0  0
 29 30  1  0  0  0  0
 30 31  2  0  0  0  0
 32 31  1  0  0  0  0
 33 32  2  0  0  0  0
 34 33  1  0  0  0  0
 34 29  2  0  0  0  0
M  END
>  <minimizedAffinity>
-9.90590286

$$$$
