
 OpenBabel11232420483D

 35 39  0  0  1  0  0  0  0  0999 V2000
  -18.2860   19.4030    8.1000 O   0  0  0  0  0  0  0  0  0  0  0  0
  -19.8030   18.1540   11.2600 C   0  0  0  0  0  0  0  0  0  0  0  0
  -19.4340   16.8250   11.0680 C   0  0  0  0  0  3  0  0  0  0  0  0
  -18.6970   16.3820   10.0230 N   0  0  0  0  0  0  0  0  0  0  0  0
  -18.3090   17.2990    9.1120 C   0  0  0  0  0  3  0  0  0  0  0  0
  -18.6350   18.6470    9.1780 C   0  0  0  0  0  0  0  0  0  0  0  0
  -19.3560   19.0710   10.2910 C   0  0  0  0  0  3  0  0  0  0  0  0
  -21.7950   16.7750   16.5600 C   0  0  0  0  0  1  0  0  0  0  0  0
  -22.1510   17.9960   15.7930 C   0  0  0  0  0  0  0  0  0  0  0  0
  -23.0040   18.8920   16.3050 N   0  0  0  0  0  0  0  0  0  0  0  0
  -23.0890   19.8400   15.3600 N   0  0  0  0  0  0  0  0  0  0  0  0
  -22.3260   19.5910   14.2530 C   0  0  0  0  0  0  0  0  0  0  0  0
  -22.1320   20.3000   13.0820 C   0  0  0  0  0  3  0  0  0  0  0  0
  -21.2960   19.7920   12.1400 N   0  0  0  0  0  0  0  0  0  0  0  0
  -20.6670   18.5980   12.3650 C   0  0  0  0  0  0  0  0  0  0  0  0
  -20.8320   17.8550   13.5340 C   0  0  0  0  0  3  0  0  0  0  0  0
  -21.6940   18.3820   14.5050 C   0  0  0  0  0  0  0  0  0  0  0  0
  -23.6920   20.6350   15.5410 H   0  0  0  0  0  0  0  0  0  0  0  0
  -16.9020   19.6470    7.8180 C   0  0  0  0  0  2  0  0  0  0  0  0
  -16.5540   21.1410    8.0070 C   0  0  1  0  0  3  0  0  0  0  0  0
  -15.9030   21.6940    6.7650 N   0  0  0  0  0  4  0  0  0  0  0  0
  -16.5100   21.6590    5.9340 H   0  0  0  0  0  0  0  0  0  0  0  0
  -15.5940   22.6660    6.8900 H   0  0  0  0  0  0  0  0  0  0  0  0
  -15.0610   21.1430    6.5380 H   0  0  0  0  0  0  0  0  0  0  0  0
  -17.7790   22.0050    8.3440 C   0  0  0  0  0  2  0  0  0  0  0  0
  -17.8120   22.4160    9.7760 C   0  0  0  0  0  0  0  0  0  0  0  0
  -16.9640   21.9700   10.7720 C   0  0  0  0  0  3  0  0  0  0  0  0
  -17.3260   22.5730   11.9480 N   0  0  0  0  0  0  0  0  0  0  0  0
  -18.4040   23.4010   11.7430 C   0  0  0  0  0  0  0  0  0  0  0  0
  -19.1060   24.1990   12.6530 C   0  0  0  0  0  3  0  0  0  0  0  0
  -20.1670   24.9620   12.1610 C   0  0  0  0  0  3  0  0  0  0  0  0
  -20.5090   24.9300   10.8130 C   0  0  0  0  0  3  0  0  0  0  0  0
  -19.7950   24.1250    9.9150 C   0  0  0  0  0  3  0  0  0  0  0  0
  -18.7240   23.3390   10.3870 C   0  0  0  0  0  0  0  0  0  0  0  0
  -16.8700   22.4410   12.8420 H   0  0  0  0  0  0  0  0  0  0  0  0
  1  6  1  0  0  0  0
  2 15  1  0  0  0  0
  3  2  1  0  0  0  0
  4  3  2  0  0  0  0
  5  6  2  0  0  0  0
  5  4  1  0  0  0  0
  6  7  1  0  0  0  0
  7  2  2  0  0  0  0
  9 10  2  0  0  0  0
  9  8  1  0  0  0  0
 11 18  1  0  0  0  0
 11 10  1  0  0  0  0
 12 17  1  0  0  0  0
 12 11  1  0  0  0  0
 13 12  2  0  0  0  0
 14 15  2  0  0  0  0
 14 13  1  0  0  0  0
 15 16  1  0  0  0  0
 16 17  2  0  0  0  0
 17  9  1  0  0  0  0
 19  1  1  0  0  0  0
 20 19  1  6  0  0  0
 20 25  1  0  0  0  0
 21 23  1  0  0  0  0
 21 20  1  0  0  0  0
 22 21  1  0  0  0  0
 24 21  1  0  0  0  0
 25 26  1  0  0  0  0
 26 34  1  0  0  0  0
 26 27  2  0  0  0  0
 27 28  1  0  0  0  0
 28 35  1  0  0  0  0
 29 28  1  0  0  0  0
 29 30  1  0  0  0  0
 31 30  2  0  0  0  0
 32 31  1  0  0  0  0
 33 34  1  0  0  0  0
 33 32  2  0  0  0  0
 34 29  2  0  0  0  0
M  END
>  <minimizedAffinity>
-10.4646387

$$$$

 OpenBabel11232420483D

 35 39  0  0  1  0  0  0  0  0999 V2000
  -18.8710   20.2310    8.7710 O   0  0  0  0  0  0  0  0  0  0  0  0
  -20.1670   18.5430   11.8240 C   0  0  0  0  0  0  0  0  0  0  0  0
  -19.7680   17.2630   11.4470 C   0  0  0  0  0  3  0  0  0  0  0  0
  -19.0780   16.9810   10.3180 N   0  0  0  0  0  0  0  0  0  0  0  0
  -18.7710   18.0180    9.5100 C   0  0  0  0  0  3  0  0  0  0  0  0
  -19.1350   19.3340    9.7620 C   0  0  0  0  0  0  0  0  0  0  0  0
  -19.8050   19.5890   10.9560 C   0  0  0  0  0  3  0  0  0  0  0  0
  -21.0530   17.0440   17.3850 C   0  0  0  0  0  1  0  0  0  0  0  0
  -21.8200   18.0690   16.6330 C   0  0  0  0  0  0  0  0  0  0  0  0
  -22.8170   18.7370   17.2250 N   0  0  0  0  0  0  0  0  0  0  0  0
  -23.2720   19.5620   16.2700 N   0  0  0  0  0  0  0  0  0  0  0  0
  -22.6080   19.4520   15.0800 C   0  0  0  0  0  0  0  0  0  0  0  0
  -22.7590   20.1060   13.8700 C   0  0  0  0  0  3  0  0  0  0  0  0
  -21.9350   19.7770   12.8420 N   0  0  0  0  0  0  0  0  0  0  0  0
  -20.9800   18.8130   13.0200 C   0  0  0  0  0  0  0  0  0  0  0  0
  -20.7930   18.1340   14.2240 C   0  0  0  0  0  3  0  0  0  0  0  0
  -21.6440   18.4750   15.2830 C   0  0  0  0  0  0  0  0  0  0  0  0
  -24.0430   20.1760   16.5040 H   0  0  0  0  0  0  0  0  0  0  0  0
  -18.6650   21.6110    9.0950 C   0  0  0  0  0  2  0  0  0  0  0  0
  -17.2250   21.8490    9.6050 C   0  0  1  0  0  3  0  0  0  0  0  0
  -16.5580   22.9460    8.8150 N   0  0  0  0  0  4  0  0  0  0  0  0
  -17.0310   23.8570    8.8990 H   0  0  0  0  0  0  0  0  0  0  0  0
  -15.5750   23.0740    9.0850 H   0  0  0  0  0  0  0  0  0  0  0  0
  -16.5610   22.7050    7.8120 H   0  0  0  0  0  0  0  0  0  0  0  0
  -17.1680   22.2160   11.0960 C   0  0  0  0  0  2  0  0  0  0  0  0
  -18.2780   23.1240   11.5040 C   0  0  0  0  0  0  0  0  0  0  0  0
  -19.4930   22.7370   12.0370 C   0  0  0  0  0  3  0  0  0  0  0  0
  -20.2400   23.8630   12.2670 N   0  0  0  0  0  0  0  0  0  0  0  0
  -19.5390   24.9820   11.8850 C   0  0  0  0  0  0  0  0  0  0  0  0
  -19.9120   26.3300   11.9290 C   0  0  0  0  0  3  0  0  0  0  0  0
  -18.9830   27.2730   11.4820 C   0  0  0  0  0  3  0  0  0  0  0  0
  -17.7320   26.8820   11.0160 C   0  0  0  0  0  3  0  0  0  0  0  0
  -17.3750   25.5280   10.9800 C   0  0  0  0  0  3  0  0  0  0  0  0
  -18.2970   24.5550   11.4170 C   0  0  0  0  0  0  0  0  0  0  0  0
  -21.1710   23.8800   12.6660 H   0  0  0  0  0  0  0  0  0  0  0  0
  1 19  1  0  0  0  0
  1  6  1  0  0  0  0
  2 15  1  0  0  0  0
  3  2  1  0  0  0  0
  4  3  2  0  0  0  0
  5  6  2  0  0  0  0
  5  4  1  0  0  0  0
  6  7  1  0  0  0  0
  7  2  2  0  0  0  0
  9 10  2  0  0  0  0
  9  8  1  0  0  0  0
 11 18  1  0  0  0  0
 11 10  1  0  0  0  0
 12 17  1  0  0  0  0
 12 11  1  0  0  0  0
 13 12  2  0  0  0  0
 14 15  2  0  0  0  0
 14 13  1  0  0  0  0
 15 16  1  0  0  0  0
 16 17  2  0  0  0  0
 17  9  1  0  0  0  0
 20 19  1  6  0  0  0
 20 25  1  0  0  0  0
 21 22  1  0  0  0  0
 21 23  1  0  0  0  0
 21 20  1  0  0  0  0
 24 21  1  0  0  0  0
 25 26  1  0  0  0  0
 26 27  2  0  0  0  0
 27 28  1  0  0  0  0
 28 35  1  0  0  0  0
 29 30  1  0  0  0  0
 29 28  1  0  0  0  0
 31 30  2  0  0  0  0
 32 31  1  0  0  0  0
 33 32  2  0  0  0  0
 33 34  1  0  0  0  0
 34 26  1  0  0  0  0
 34 29  2  0  0  0  0
M  END
>  <minimizedAffinity>
-10.0162048

$$$$

 OpenBabel11232420483D

 35 39  0  0  1  0  0  0  0  0999 V2000
  -18.5860   20.1890    8.9750 O   0  0  0  0  0  0  0  0  0  0  0  0
  -20.2570   18.4850   11.8300 C   0  0  0  0  0  0  0  0  0  0  0  0
  -20.0820   17.1950   11.3360 C   0  0  0  0  0  3  0  0  0  0  0  0
  -19.4190   16.9000   10.1930 N   0  0  0  0  0  0  0  0  0  0  0  0
  -18.9060   17.9350    9.4950 C   0  0  0  0  0  3  0  0  0  0  0  0
  -19.0360   19.2650    9.8700 C   0  0  0  0  0  0  0  0  0  0  0  0
  -19.6860   19.5240   11.0740 C   0  0  0  0  0  3  0  0  0  0  0  0
  -21.0300   17.1180   17.4420 C   0  0  0  0  0  1  0  0  0  0  0  0
  -21.8110   18.1270   16.6820 C   0  0  0  0  0  0  0  0  0  0  0  0
  -22.7960   18.8100   17.2790 N   0  0  0  0  0  0  0  0  0  0  0  0
  -23.2690   19.6120   16.3140 N   0  0  0  0  0  0  0  0  0  0  0  0
  -22.6300   19.4730   15.1130 C   0  0  0  0  0  0  0  0  0  0  0  0
  -22.8050   20.0990   13.8920 C   0  0  0  0  0  3  0  0  0  0  0  0
  -22.0020   19.7450   12.8550 N   0  0  0  0  0  0  0  0  0  0  0  0
  -21.0450   18.7840   13.0360 C   0  0  0  0  0  0  0  0  0  0  0  0
  -20.8340   18.1330   14.2520 C   0  0  0  0  0  3  0  0  0  0  0  0
  -21.6630   18.5000   15.3200 C   0  0  0  0  0  0  0  0  0  0  0  0
  -24.0350   20.2330   16.5490 H   0  0  0  0  0  0  0  0  0  0  0  0
  -17.3000   20.7930    9.1610 C   0  0  0  0  0  2  0  0  0  0  0  0
  -17.4220   22.1260    9.9350 C   0  0  1  0  0  3  0  0  0  0  0  0
  -16.4700   22.1490   11.1030 N   0  0  0  0  0  4  0  0  0  0  0  0
  -15.4790   22.0850   10.8250 H   0  0  0  0  0  0  0  0  0  0  0  0
  -16.5830   22.9930   11.6770 H   0  0  0  0  0  0  0  0  0  0  0  0
  -16.6540   21.3440   11.7200 H   0  0  0  0  0  0  0  0  0  0  0  0
  -17.1520   23.3580    9.0580 C   0  0  0  0  0  2  0  0  0  0  0  0
  -17.2380   24.6350    9.8220 C   0  0  0  0  0  0  0  0  0  0  0  0
  -16.1990   25.5140   10.0610 C   0  0  0  0  0  3  0  0  0  0  0  0
  -16.6810   26.5580   10.8070 N   0  0  0  0  0  0  0  0  0  0  0  0
  -18.0170   26.3730   11.0710 C   0  0  0  0  0  0  0  0  0  0  0  0
  -18.9050   27.1730   11.7990 C   0  0  0  0  0  3  0  0  0  0  0  0
  -20.2300   26.7460   11.8970 C   0  0  0  0  0  3  0  0  0  0  0  0
  -20.6510   25.5680   11.2860 C   0  0  0  0  0  3  0  0  0  0  0  0
  -19.7490   24.7790   10.5600 C   0  0  0  0  0  3  0  0  0  0  0  0
  -18.4030   25.1840   10.4520 C   0  0  0  0  0  0  0  0  0  0  0  0
  -16.1420   27.3560   11.1190 H   0  0  0  0  0  0  0  0  0  0  0  0
  1 19  1  0  0  0  0
  1  6  1  0  0  0  0
  2 15  1  0  0  0  0
  3  2  1  0  0  0  0
  4  3  2  0  0  0  0
  5  6  2  0  0  0  0
  5  4  1  0  0  0  0
  6  7  1  0  0  0  0
  7  2  2  0  0  0  0
  9 10  2  0  0  0  0
  9  8  1  0  0  0  0
 11 18  1  0  0  0  0
 11 10  1  0  0  0  0
 12 17  1  0  0  0  0
 12 11  1  0  0  0  0
 13 12  2  0  0  0  0
 14 15  2  0  0  0  0
 14 13  1  0  0  0  0
 15 16  1  0  0  0  0
 16 17  2  0  0  0  0
 17  9  1  0  0  0  0
 19 20  1  0  0  0  0
 20 25  1  6  0  0  0
 20 21  1  0  0  0  0
 21 23  1  0  0  0  0
 21 24  1  0  0  0  0
 22 21  1  0  0  0  0
 25 26  1  0  0  0  0
 26 27  2  0  0  0  0
 26 34  1  0  0  0  0
 27 28  1  0  0  0  0
 28 29  1  0  0  0  0
 28 35  1  0  0  0  0
 29 30  1  0  0  0  0
 30 31  2  0  0  0  0
 32 31  1  0  0  0  0
 33 32  2  0  0  0  0
 34 33  1  0  0  0  0
 34 29  2  0  0  0  0
M  END
>  <minimizedAffinity>
-9.90590286

$$$$

 OpenBabel11232420483D

 35 39  0  0  1  0  0  0  0  0999 V2000
  -18.9660   23.1060   11.3930 O   0  0  0  0  0  0  0  0  0  0  0  0
  -20.7280   19.9840   12.3880 C   0  0  0  0  0  0  0  0  0  0  0  0
  -21.9780   20.5780   12.5370 C   0  0  0  0  0  3  0  0  0  0  0  0
  -22.2390   21.8810   12.2750 N   0  0  0  0  0  0  0  0  0  0  0  0
  -21.2070   22.6410   11.8500 C   0  0  0  0  0  3  0  0  0  0  0  0
  -19.9120   22.1710   11.6880 C   0  0  0  0  0  0  0  0  0  0  0  0
  -19.6940   20.8160   11.9240 C   0  0  0  0  0  3  0  0  0  0  0  0
  -20.9590   16.0790   16.7070 C   0  0  0  0  0  1  0  0  0  0  0  0
  -20.4610   15.8190   15.3330 C   0  0  0  0  0  0  0  0  0  0  0  0
  -20.0050   14.6070   14.9960 N   0  0  0  0  0  0  0  0  0  0  0  0
  -19.6470   14.7360   13.7100 N   0  0  0  0  0  0  0  0  0  0  0  0
  -19.8510   15.9890   13.2010 C   0  0  0  0  0  0  0  0  0  0  0  0
  -19.6230   16.5290   11.9480 C   0  0  0  0  0  3  0  0  0  0  0  0
  -19.9310   17.8350   11.7330 N   0  0  0  0  0  0  0  0  0  0  0  0
  -20.4550   18.5840   12.7500 C   0  0  0  0  0  0  0  0  0  0  0  0
  -20.7040   18.0760   14.0260 C   0  0  0  0  0  3  0  0  0  0  0  0
  -20.3850   16.7290   14.2450 C   0  0  0  0  0  0  0  0  0  0  0  0
  -19.2680   13.9220   13.2400 H   0  0  0  0  0  0  0  0  0  0  0  0
  -18.9630   23.7370   10.1070 C   0  0  0  0  0  2  0  0  0  0  0  0
  -18.1050   22.9370    9.1000 C   0  0  1  0  0  3  0  0  0  0  0  0
  -16.9330   22.2940    9.7980 N   0  0  0  0  0  4  0  0  0  0  0  0
  -17.2090   21.6140   10.5210 H   0  0  0  0  0  0  0  0  0  0  0  0
  -16.3050   21.8170    9.1390 H   0  0  0  0  0  0  0  0  0  0  0  0
  -16.3700   23.0160   10.2720 H   0  0  0  0  0  0  0  0  0  0  0  0
  -18.8990   21.8430    8.3690 C   0  0  0  0  0  2  0  0  0  0  0  0
  -18.0940   20.6090    8.1390 C   0  0  0  0  0  0  0  0  0  0  0  0
  -18.2720   19.3920    8.7690 C   0  0  0  0  0  3  0  0  0  0  0  0
  -17.3290   18.5190    8.2920 N   0  0  0  0  0  0  0  0  0  0  0  0
  -16.5290   19.1460    7.3670 C   0  0  0  0  0  0  0  0  0  0  0  0
  -15.4430   18.6490    6.6380 C   0  0  0  0  0  3  0  0  0  0  0  0
  -14.8120   19.5150    5.7430 C   0  0  0  0  0  3  0  0  0  0  0  0
  -15.2540   20.8250    5.5810 C   0  0  0  0  0  3  0  0  0  0  0  0
  -16.3430   21.3070    6.3180 C   0  0  0  0  0  3  0  0  0  0  0  0
  -16.9930   20.4550    7.2340 C   0  0  0  0  0  0  0  0  0  0  0  0
  -17.2300   17.5500    8.5690 H   0  0  0  0  0  0  0  0  0  0  0  0
  1  6  1  0  0  0  0
  2  3  1  0  0  0  0
  2 15  1  0  0  0  0
  4  3  2  0  0  0  0
  5  4  1  0  0  0  0
  6  5  2  0  0  0  0
  6  7  1  0  0  0  0
  7  2  2  0  0  0  0
  9  8  1  0  0  0  0
 10  9  2  0  0  0  0
 11 10  1  0  0  0  0
 12 11  1  0  0  0  0
 12 17  1  0  0  0  0
 13 12  2  0  0  0  0
 14 13  1  0  0  0  0
 14 15  2  0  0  0  0
 15 16  1  0  0  0  0
 16 17  2  0  0  0  0
 17  9  1  0  0  0  0
 18 11  1  0  0  0  0
 19  1  1  0  0  0  0
 20 25  1  1  0  0  0
 20 21  1  0  0  0  0
 20 19  1  0  0  0  0
 21 24  1  0  0  0  0
 21 22  1  0  0  0  0
 23 21  1  0  0  0  0
 26 25  1  0  0  0  0
 26 27  2  0  0  0  0
 28 35  1  0  0  0  0
 28 27  1  0  0  0  0
 29 28  1  0  0  0  0
 30 29  2  0  0  0  0
 31 30  1  0  0  0  0
 32 31  2  0  0  0  0
 32 33  1  0  0  0  0
 33 34  2  0  0  0  0
 34 29  1  0  0  0  0
 34 26  1  0  0  0  0
M  END
>  <minimizedAffinity>
-9.80163097

$$$$

 OpenBabel11232420483D

 35 39  0  0  1  0  0  0  0  0999 V2000
  -20.0970   21.8700   11.2850 O   0  0  0  0  0  0  0  0  0  0  0  0
  -21.2180   19.1730   13.5920 C   0  0  0  0  0  0  0  0  0  0  0  0
  -22.5070   19.6720   13.7620 C   0  0  0  0  0  3  0  0  0  0  0  0
  -22.9920   20.7650   13.1280 N   0  0  0  0  0  0  0  0  0  0  0  0
  -22.1560   21.4080   12.2850 C   0  0  0  0  0  3  0  0  0  0  0  0
  -20.8420   21.0250   12.0520 C   0  0  0  0  0  0  0  0  0  0  0  0
  -20.3960   19.8700   12.6880 C   0  0  0  0  0  3  0  0  0  0  0  0
  -20.9990   16.6700   18.8490 C   0  0  0  0  0  1  0  0  0  0  0  0
  -20.3440   16.1580   17.6200 C   0  0  0  0  0  0  0  0  0  0  0  0
  -19.6200   15.0320   17.6580 N   0  0  0  0  0  0  0  0  0  0  0  0
  -19.1890   14.8770   16.3970 N   0  0  0  0  0  0  0  0  0  0  0  0
  -19.6040   15.8610   15.5440 C   0  0  0  0  0  0  0  0  0  0  0  0
  -19.3880   16.0690   14.1930 C   0  0  0  0  0  3  0  0  0  0  0  0
  -19.9410   17.1610   13.6030 N   0  0  0  0  0  0  0  0  0  0  0  0
  -20.6930   18.0270   14.3490 C   0  0  0  0  0  0  0  0  0  0  0  0
  -20.9380   17.8500   15.7110 C   0  0  0  0  0  3  0  0  0  0  0  0
  -20.3670   16.7230   16.3170 C   0  0  0  0  0  0  0  0  0  0  0  0
  -18.6110   14.0700   16.1910 H   0  0  0  0  0  0  0  0  0  0  0  0
  -18.7810   21.4840   10.8720 C   0  0  0  0  0  2  0  0  0  0  0  0
  -17.7760   22.6410   11.0740 C   0  0  1  0  0  3  0  0  0  0  0  0
  -16.4430   22.1110   11.5350 N   0  0  0  0  0  4  0  0  0  0  0  0
  -15.9960   21.4780   10.8560 H   0  0  0  0  0  0  0  0  0  0  0  0
  -15.7790   22.8660   11.7480 H   0  0  0  0  0  0  0  0  0  0  0  0
  -16.5650   21.5710   12.4050 H   0  0  0  0  0  0  0  0  0  0  0  0
  -17.5580   23.4760    9.8020 C   0  0  0  0  0  2  0  0  0  0  0  0
  -17.2780   24.9090   10.1000 C   0  0  0  0  0  0  0  0  0  0  0  0
  -16.1220   25.5970    9.7840 C   0  0  0  0  0  3  0  0  0  0  0  0
  -16.2490   26.8850   10.2340 N   0  0  0  0  0  0  0  0  0  0  0  0
  -17.4660   27.0520   10.8510 C   0  0  0  0  0  0  0  0  0  0  0  0
  -18.0130   28.1860   11.4610 C   0  0  0  0  0  3  0  0  0  0  0  0
  -19.2950   28.0750   12.0030 C   0  0  0  0  0  3  0  0  0  0  0  0
  -20.0030   26.8790   11.9320 C   0  0  0  0  0  3  0  0  0  0  0  0
  -19.4410   25.7530   11.3170 C   0  0  0  0  0  3  0  0  0  0  0  0
  -18.1440   25.8360   10.7690 C   0  0  0  0  0  0  0  0  0  0  0  0
  -15.5570   27.6170   10.1290 H   0  0  0  0  0  0  0  0  0  0  0  0
  1  6  1  0  0  0  0
  2  3  1  0  0  0  0
  2 15  1  0  0  0  0
  4  3  2  0  0  0  0
  5  4  1  0  0  0  0
  6  5  2  0  0  0  0
  6  7  1  0  0  0  0
  7  2  2  0  0  0  0
  9 10  2  0  0  0  0
  9  8  1  0  0  0  0
 11 10  1  0  0  0  0
 12 17  1  0  0  0  0
 12 11  1  0  0  0  0
 13 12  2  0  0  0  0
 14 13  1  0  0  0  0
 14 15  2  0  0  0  0
 15 16  1  0  0  0  0
 16 17  2  0  0  0  0
 17  9  1  0  0  0  0
 18 11  1  0  0  0  0
 19 20  1  0  0  0  0
 19  1  1  0  0  0  0
 20 25  1  6  0  0  0
 20 21  1  0  0  0  0
 21 23  1  0  0  0  0
 21 24  1  0  0  0  0
 22 21  1  0  0  0  0
 25 26  1  0  0  0  0
 26 34  1  0  0  0  0
 27 26  2  0  0  0  0
 27 28  1  0  0  0  0
 28 29  1  0  0  0  0
 29 30  1  0  0  0  0
 30 31  2  0  0  0  0
 32 31  1  0  0  0  0
 33 32  2  0  0  0  0
 34 29  2  0  0  0  0
 34 33  1  0  0  0  0
 35 28  1  0  0  0  0
M  END
>  <minimizedAffinity>
-9.73662281

$$$$

 OpenBabel11232420483D

 35 39  0  0  1  0  0  0  0  0999 V2000
  -17.8360   23.9560   10.6680 O   0  0  0  0  0  0  0  0  0  0  0  0
  -17.8870   27.6380   11.2050 C   0  0  0  0  0  0  0  0  0  0  0  0
  -16.5240   27.8230   10.9890 C   0  0  0  0  0  3  0  0  0  0  0  0
  -15.6670   26.8360   10.6360 N   0  0  0  0  0  0  0  0  0  0  0  0
  -16.1820   25.5960   10.4970 C   0  0  0  0  0  3  0  0  0  0  0  0
  -17.5170   25.2810   10.7100 C   0  0  0  0  0  0  0  0  0  0  0  0
  -18.3740   26.3310   11.0270 C   0  0  0  0  0  3  0  0  0  0  0  0
  -19.7870   30.5620   15.8740 C   0  0  0  0  0  1  0  0  0  0  0  0
  -20.2260   30.7880   14.4740 C   0  0  0  0  0  0  0  0  0  0  0  0
  -21.1410   31.7250   14.1960 N   0  0  0  0  0  0  0  0  0  0  0  0
  -21.2920   31.6510   12.8650 N   0  0  0  0  0  0  0  0  0  0  0  0
  -20.5100   30.7000   12.2700 C   0  0  0  0  0  0  0  0  0  0  0  0
  -20.3650   30.3110   10.9510 C   0  0  0  0  0  3  0  0  0  0  0  0
  -19.4930   29.3120   10.6550 N   0  0  0  0  0  0  0  0  0  0  0  0
  -18.7820   28.7140   11.6590 C   0  0  0  0  0  0  0  0  0  0  0  0
  -18.8960   29.0800   13.0010 C   0  0  0  0  0  3  0  0  0  0  0  0
  -19.7960   30.1100   13.3030 C   0  0  0  0  0  0  0  0  0  0  0  0
  -21.9490   32.2860   12.4270 H   0  0  0  0  0  0  0  0  0  0  0  0
  -17.9810   23.2970    9.4050 C   0  0  0  0  0  2  0  0  0  0  0  0
  -19.3710   22.6320    9.2840 C   0  0  1  0  0  3  0  0  0  0  0  0
  -20.4590   23.6750    9.2900 N   0  0  0  0  0  4  0  0  0  0  0  0
  -20.4010   24.3320    8.4980 H   0  0  0  0  0  0  0  0  0  0  0  0
  -21.3970   23.2560    9.2850 H   0  0  0  0  0  0  0  0  0  0  0  0
  -20.3930   24.2430   10.1480 H   0  0  0  0  0  0  0  0  0  0  0  0
  -19.5200   21.7760    8.0170 C   0  0  0  0  0  2  0  0  0  0  0  0
  -18.6000   20.6030    8.0080 C   0  0  0  0  0  0  0  0  0  0  0  0
  -18.6880   19.4920    8.8230 C   0  0  0  0  0  3  0  0  0  0  0  0
  -17.6540   18.6470    8.5140 N   0  0  0  0  0  0  0  0  0  0  0  0
  -16.8820   19.1900    7.5160 C   0  0  0  0  0  0  0  0  0  0  0  0
  -15.7300   18.6880    6.9010 C   0  0  0  0  0  3  0  0  0  0  0  0
  -15.1480   19.4560    5.8900 C   0  0  0  0  0  3  0  0  0  0  0  0
  -15.7010   20.6740    5.5070 C   0  0  0  0  0  3  0  0  0  0  0  0
  -16.8550   21.1630    6.1330 C   0  0  0  0  0  3  0  0  0  0  0  0
  -17.4570   20.4110    7.1630 C   0  0  0  0  0  0  0  0  0  0  0  0
  -17.4780   17.7490    8.9480 H   0  0  0  0  0  0  0  0  0  0  0  0
  1  6  1  0  0  0  0
  2 15  1  0  0  0  0
  3  2  2  0  0  0  0
  4  3  1  0  0  0  0
  5  4  2  0  0  0  0
  5  6  1  0  0  0  0
  6  7  2  0  0  0  0
  7  2  1  0  0  0  0
  9  8  1  0  0  0  0
 10  9  2  0  0  0  0
 11 10  1  0  0  0  0
 12 11  1  0  0  0  0
 12 17  1  0  0  0  0
 13 12  2  0  0  0  0
 14 13  1  0  0  0  0
 14 15  2  0  0  0  0
 15 16  1  0  0  0  0
 16 17  2  0  0  0  0
 17  9  1  0  0  0  0
 18 11  1  0  0  0  0
 19  1  1  0  0  0  0
 20 25  1  6  0  0  0
 20 21  1  0  0  0  0
 20 19  1  0  0  0  0
 21 24  1  0  0  0  0
 22 21  1  0  0  0  0
 23 21  1  0  0  0  0
 26 25  1  0  0  0  0
 26 27  2  0  0  0  0
 28 27  1  0  0  0  0
 28 35  1  0  0  0  0
 29 28  1  0  0  0  0
 30 29  2  0  0  0  0
 31 30  1  0  0  0  0
 32 31  2  0  0  0  0
 32 33  1  0  0  0  0
 33 34  2  0  0  0  0
 34 29  1  0  0  0  0
 34 26  1  0  0  0  0
M  END
>  <minimizedAffinity>
-9.71743393

$$$$

 OpenBabel11232420483D

 35 39  0  0  1  0  0  0  0  0999 V2000
  -20.3040   21.4820   11.3570 O   0  0  0  0  0  0  0  0  0  0  0  0
  -21.3540   19.0420   13.9630 C   0  0  0  0  0  0  0  0  0  0  0  0
  -22.5990   19.6200   14.1930 C   0  0  0  0  0  3  0  0  0  0  0  0
  -23.0830   20.6840   13.5090 N   0  0  0  0  0  0  0  0  0  0  0  0
  -22.2920   21.2120   12.5520 C   0  0  0  0  0  3  0  0  0  0  0  0
  -21.0220   20.7420   12.2480 C   0  0  0  0  0  0  0  0  0  0  0  0
  -20.5780   19.6190   12.9410 C   0  0  0  0  0  3  0  0  0  0  0  0
  -21.2950   16.6540   19.2780 C   0  0  0  0  0  1  0  0  0  0  0  0
  -20.5600   16.1450   18.0930 C   0  0  0  0  0  0  0  0  0  0  0  0
  -19.7940   15.0510   18.1910 N   0  0  0  0  0  0  0  0  0  0  0  0
  -19.2960   14.8880   16.9570 N   0  0  0  0  0  0  0  0  0  0  0  0
  -19.7070   15.8380   16.0630 C   0  0  0  0  0  0  0  0  0  0  0  0
  -19.4330   16.0270   14.7200 C   0  0  0  0  0  3  0  0  0  0  0  0
  -19.9990   17.0840   14.0800 N   0  0  0  0  0  0  0  0  0  0  0  0
  -20.8210   17.9330   14.7690 C   0  0  0  0  0  0  0  0  0  0  0  0
  -21.1260   17.7730   16.1220 C   0  0  0  0  0  3  0  0  0  0  0  0
  -20.5410   16.6830   16.7790 C   0  0  0  0  0  0  0  0  0  0  0  0
  -18.6770   14.1020   16.7960 H   0  0  0  0  0  0  0  0  0  0  0  0
  -19.3730   22.4620   11.8310 C   0  0  0  0  0  2  0  0  0  0  0  0
  -19.8220   23.8880   11.4370 C   0  0  1  0  0  3  0  0  0  0  0  0
  -19.0320   24.9210   12.1980 N   0  0  0  0  0  4  0  0  0  0  0  0
  -18.0210   24.8910   12.0010 H   0  0  0  0  0  0  0  0  0  0  0  0
  -19.3620   25.8760   12.0100 H   0  0  0  0  0  0  0  0  0  0  0  0
  -19.1390   24.7660   13.2120 H   0  0  0  0  0  0  0  0  0  0  0  0
  -19.6770   24.1700    9.9340 C   0  0  0  0  0  2  0  0  0  0  0  0
  -18.3870   23.6680    9.3800 C   0  0  0  0  0  0  0  0  0  0  0  0
  -17.1570   24.2850    9.4920 C   0  0  0  0  0  3  0  0  0  0  0  0
  -16.2270   23.5160    8.8420 N   0  0  0  0  0  0  0  0  0  0  0  0
  -16.8300   22.4080    8.2950 C   0  0  0  0  0  0  0  0  0  0  0  0
  -16.2750   21.3670    7.5430 C   0  0  0  0  0  3  0  0  0  0  0  0
  -17.1300   20.3470    7.1200 C   0  0  0  0  0  3  0  0  0  0  0  0
  -18.4840   20.3670    7.4420 C   0  0  0  0  0  3  0  0  0  0  0  0
  -19.0230   21.4170    8.1960 C   0  0  0  0  0  3  0  0  0  0  0  0
  -18.1830   22.4640    8.6290 C   0  0  0  0  0  0  0  0  0  0  0  0
  -15.2380   23.7210    8.7730 H   0  0  0  0  0  0  0  0  0  0  0  0
  1 19  1  0  0  0  0
  1  6  1  0  0  0  0
  2  3  1  0  0  0  0
  2 15  1  0  0  0  0
  4  3  2  0  0  0  0
  5  4  1  0  0  0  0
  6  5  2  0  0  0  0
  6  7  1  0  0  0  0
  7  2  2  0  0  0  0
  9 10  2  0  0  0  0
  9  8  1  0  0  0  0
 11 10  1  0  0  0  0
 12 17  1  0  0  0  0
 12 11  1  0  0  0  0
 13 12  2  0  0  0  0
 14 13  1  0  0  0  0
 14 15  2  0  0  0  0
 15 16  1  0  0  0  0
 16 17  2  0  0  0  0
 17  9  1  0  0  0  0
 18 11  1  0  0  0  0
 20 25  1  6  0  0  0
 20 19  1  0  0  0  0
 20 21  1  0  0  0  0
 21 24  1  0  0  0  0
 22 21  1  0  0  0  0
 23 21  1  0  0  0  0
 26 27  2  0  0  0  0
 26 25  1  0  0  0  0
 28 27  1  0  0  0  0
 29 34  1  0  0  0  0
 29 28  1  0  0  0  0
 30 29  2  0  0  0  0
 31 32  2  0  0  0  0
 31 30  1  0  0  0  0
 32 33  1  0  0  0  0
 33 34  2  0  0  0  0
 34 26  1  0  0  0  0
 35 28  1  0  0  0  0
M  END
>  <minimizedAffinity>
-9.66488171

$$$$

 OpenBabel11232420483D

 35 39  0  0  1  0  0  0  0  0999 V2000
  -17.4930   26.8730   10.4330 O   0  0  0  0  0  0  0  0  0  0  0  0
  -17.9850   23.1870   10.2870 C   0  0  0  0  0  0  0  0  0  0  0  0
  -18.4620   23.0650   11.5900 C   0  0  0  0  0  3  0  0  0  0  0  0
  -18.6650   24.1090   12.4280 N   0  0  0  0  0  0  0  0  0  0  0  0
  -18.3740   25.3400   11.9590 C   0  0  0  0  0  3  0  0  0  0  0  0
  -17.8680   25.5880   10.6900 C   0  0  0  0  0  0  0  0  0  0  0  0
  -17.7160   24.4940    9.8430 C   0  0  0  0  0  3  0  0  0  0  0  0
  -15.5180   21.5090    5.2820 C   0  0  0  0  0  1  0  0  0  0  0  0
  -16.2110   20.6180    6.2460 C   0  0  0  0  0  0  0  0  0  0  0  0
  -16.3190   19.3070    5.9980 N   0  0  0  0  0  0  0  0  0  0  0  0
  -16.9880   18.8260    7.0570 N   0  0  0  0  0  0  0  0  0  0  0  0
  -17.3200   19.7780    7.9810 C   0  0  0  0  0  0  0  0  0  0  0  0
  -17.9930   19.7030    9.1870 C   0  0  0  0  0  3  0  0  0  0  0  0
  -18.1790   20.8420    9.9030 N   0  0  0  0  0  0  0  0  0  0  0  0
  -17.7030   22.0310    9.4220 C   0  0  0  0  0  0  0  0  0  0  0  0
  -17.0150   22.1470    8.2140 C   0  0  0  0  0  3  0  0  0  0  0  0
  -16.8250   20.9710    7.4770 C   0  0  0  0  0  0  0  0  0  0  0  0
  -17.1830   17.8320    7.0810 H   0  0  0  0  0  0  0  0  0  0  0  0
  -16.2090   27.3400   10.8630 C   0  0  0  0  0  2  0  0  0  0  0  0
  -16.3350   28.6740   11.6330 C   0  0  1  0  0  3  0  0  0  0  0  0
  -15.8220   29.8190   10.7980 N   0  0  0  0  0  4  0  0  0  0  0  0
  -16.3500   29.9580    9.9250 H   0  0  0  0  0  0  0  0  0  0  0  0
  -15.8260   30.7070   11.3150 H   0  0  0  0  0  0  0  0  0  0  0  0
  -14.8440   29.6400   10.5250 H   0  0  0  0  0  0  0  0  0  0  0  0
  -17.7780   28.9880   12.0600 C   0  0  0  0  0  2  0  0  0  0  0  0
  -17.8680   29.4500   13.4750 C   0  0  0  0  0  0  0  0  0  0  0  0
  -16.8150   29.5730   14.3610 C   0  0  0  0  0  3  0  0  0  0  0  0
  -17.3100   30.0160   15.5590 N   0  0  0  0  0  0  0  0  0  0  0  0
  -18.6730   30.1770   15.4780 C   0  0  0  0  0  0  0  0  0  0  0  0
  -19.5850   30.5950   16.4530 C   0  0  0  0  0  3  0  0  0  0  0  0
  -20.9300   30.6830   16.0860 C   0  0  0  0  0  3  0  0  0  0  0  0
  -21.3430   30.3680   14.7950 C   0  0  0  0  0  3  0  0  0  0  0  0
  -20.4160   29.9510   13.8310 C   0  0  0  0  0  3  0  0  0  0  0  0
  -19.0530   29.8460   14.1770 C   0  0  0  0  0  0  0  0  0  0  0  0
  -16.7610   30.2060   16.3890 H   0  0  0  0  0  0  0  0  0  0  0  0
  1  6  1  0  0  0  0
  1 19  1  0  0  0  0
  2  3  1  0  0  0  0
  3  4  2  0  0  0  0
  5  4  1  0  0  0  0
  6  5  2  0  0  0  0
  7  2  2  0  0  0  0
  7  6  1  0  0  0  0
  8  9  1  0  0  0  0
  9 17  1  0  0  0  0
 10  9  2  0  0  0  0
 10 11  1  0  0  0  0
 11 18  1  0  0  0  0
 11 12  1  0  0  0  0
 12 13  1  0  0  0  0
 13 14  2  0  0  0  0
 15 14  1  0  0  0  0
 15  2  1  0  0  0  0
 16 15  2  0  0  0  0
 17 12  2  0  0  0  0
 17 16  1  0  0  0  0
 20 19  1  6  0  0  0
 20 25  1  0  0  0  0
 21 23  1  0  0  0  0
 21 20  1  0  0  0  0
 22 21  1  0  0  0  0
 24 21  1  0  0  0  0
 25 26  1  0  0  0  0
 26 34  1  0  0  0  0
 26 27  2  0  0  0  0
 27 28  1  0  0  0  0
 28 35  1  0  0  0  0
 29 28  1  0  0  0  0
 29 30  1  0  0  0  0
 31 30  2  0  0  0  0
 32 31  1  0  0  0  0
 33 34  1  0  0  0  0
 33 32  2  0  0  0  0
 34 29  2  0  0  0  0
M  END
>  <minimizedAffinity>
-9.61449814

$$$$

 OpenBabel11232420483D

 35 39  0  0  1  0  0  0  0  0999 V2000
  -18.7340   21.2860    9.9520 O   0  0  0  0  0  0  0  0  0  0  0  0
  -19.9360   17.9520   11.0870 C   0  0  0  0  0  0  0  0  0  0  0  0
  -19.2950   17.2310   10.0840 C   0  0  0  0  0  3  0  0  0  0  0  0
  -18.4850   17.7810    9.1480 N   0  0  0  0  0  0  0  0  0  0  0  0
  -18.3050   19.1180    9.2000 C   0  0  0  0  0  3  0  0  0  0  0  0
  -18.9090   19.9470   10.1340 C   0  0  0  0  0  0  0  0  0  0  0  0
  -19.6980   19.3390   11.1070 C   0  0  0  0  0  3  0  0  0  0  0  0
  -22.8060   18.7880   16.0890 C   0  0  0  0  0  1  0  0  0  0  0  0
  -22.8530   17.5570   15.2610 C   0  0  0  0  0  0  0  0  0  0  0  0
  -23.5940   16.5100   15.6450 N   0  0  0  0  0  0  0  0  0  0  0  0
  -23.4020   15.6000   14.6790 N   0  0  0  0  0  0  0  0  0  0  0  0
  -22.5610   16.0150   13.6840 C   0  0  0  0  0  0  0  0  0  0  0  0
  -22.1110   15.3970   12.5320 C   0  0  0  0  0  3  0  0  0  0  0  0
  -21.2610   16.0730   11.7160 N   0  0  0  0  0  0  0  0  0  0  0  0
  -20.8680   17.3410   12.0470 C   0  0  0  0  0  0  0  0  0  0  0  0
  -21.3020   18.0010   13.1970 C   0  0  0  0  0  3  0  0  0  0  0  0
  -22.1790   17.3020   14.0370 C   0  0  0  0  0  0  0  0  0  0  0  0
  -23.8800   14.7100   14.7660 H   0  0  0  0  0  0  0  0  0  0  0  0
  -18.8470   22.1790   11.0670 C   0  0  0  0  0  2  0  0  0  0  0  0
  -17.5650   23.0270   11.2280 C   0  0  1  0  0  3  0  0  0  0  0  0
  -16.3730   22.1420   11.4830 N   0  0  0  0  0  4  0  0  0  0  0  0
  -16.1730   21.4910   10.7090 H   0  0  0  0  0  0  0  0  0  0  0  0
  -15.5200   22.6850   11.6660 H   0  0  0  0  0  0  0  0  0  0  0  0
  -16.5400   21.5620   12.3190 H   0  0  0  0  0  0  0  0  0  0  0  0
  -17.2700   23.9070   10.0030 C   0  0  0  0  0  2  0  0  0  0  0  0
  -17.0960   25.3440   10.3610 C   0  0  0  0  0  0  0  0  0  0  0  0
  -15.9520   26.0970   10.1770 C   0  0  0  0  0  3  0  0  0  0  0  0
  -16.1910   27.3640   10.6420 N   0  0  0  0  0  0  0  0  0  0  0  0
  -17.4700   27.4530   11.1370 C   0  0  0  0  0  0  0  0  0  0  0  0
  -18.1320   28.5410   11.7160 C   0  0  0  0  0  3  0  0  0  0  0  0
  -19.4540   28.3510   12.1250 C   0  0  0  0  0  3  0  0  0  0  0  0
  -20.0880   27.1230   11.9560 C   0  0  0  0  0  3  0  0  0  0  0  0
  -19.4100   26.0440   11.3750 C   0  0  0  0  0  3  0  0  0  0  0  0
  -18.0710   26.2070   10.9600 C   0  0  0  0  0  0  0  0  0  0  0  0
  -15.5310   28.1320   10.6230 H   0  0  0  0  0  0  0  0  0  0  0  0
  1  6  1  0  0  0  0
  1 19  1  0  0  0  0
  2  7  1  0  0  0  0
  2 15  1  0  0  0  0
  3  2  2  0  0  0  0
  4  5  2  0  0  0  0
  4  3  1  0  0  0  0
  5  6  1  0  0  0  0
  6  7  2  0  0  0  0
  9 10  2  0  0  0  0
  9  8  1  0  0  0  0
 11 18  1  0  0  0  0
 11 10  1  0  0  0  0
 12 17  1  0  0  0  0
 12 11  1  0  0  0  0
 13 12  2  0  0  0  0
 14 15  2  0  0  0  0
 14 13  1  0  0  0  0
 15 16  1  0  0  0  0
 16 17  2  0  0  0  0
 17  9  1  0  0  0  0
 19 20  1  0  0  0  0
 20 25  1  6  0  0  0
 20 21  1  0  0  0  0
 21 23  1  0  0  0  0
 21 24  1  0  0  0  0
 22 21  1  0  0  0  0
 25 26  1  0  0  0  0
 26 34  1  0  0  0  0
 27 26  2  0  0  0  0
 27 28  1  0  0  0  0
 28 29  1  0  0  0  0
 29 30  1  0  0  0  0
 30 31  2  0  0  0  0
 32 31  1  0  0  0  0
 33 32  2  0  0  0  0
 34 29  2  0  0  0  0
 34 33  1  0  0  0  0
 35 28  1  0  0  0  0
M  END
>  <minimizedAffinity>
-9.6070919

$$$$
