
 OpenBabel11232420483D

 35 39  0  0  1  0  0  0  0  0999 V2000
  -17.4930   26.8730   10.4330 O   0  0  0  0  0  0  0  0  0  0  0  0
  -17.9850   23.1870   10.2870 C   0  0  0  0  0  0  0  0  0  0  0  0
  -18.4620   23.0650   11.5900 C   0  0  0  0  0  3  0  0  0  0  0  0
  -18.6650   24.1090   12.4280 N   0  0  0  0  0  0  0  0  0  0  0  0
  -18.3740   25.3400   11.9590 C   0  0  0  0  0  3  0  0  0  0  0  0
  -17.8680   25.5880   10.6900 C   0  0  0  0  0  0  0  0  0  0  0  0
  -17.7160   24.4940    9.8430 C   0  0  0  0  0  3  0  0  0  0  0  0
  -15.5180   21.5090    5.2820 C   0  0  0  0  0  1  0  0  0  0  0  0
  -16.2110   20.6180    6.2460 C   0  0  0  0  0  0  0  0  0  0  0  0
  -16.3190   19.3070    5.9980 N   0  0  0  0  0  0  0  0  0  0  0  0
  -16.9880   18.8260    7.0570 N   0  0  0  0  0  0  0  0  0  0  0  0
  -17.3200   19.7780    7.9810 C   0  0  0  0  0  0  0  0  0  0  0  0
  -17.9930   19.7030    9.1870 C   0  0  0  0  0  3  0  0  0  0  0  0
  -18.1790   20.8420    9.9030 N   0  0  0  0  0  0  0  0  0  0  0  0
  -17.7030   22.0310    9.4220 C   0  0  0  0  0  0  0  0  0  0  0  0
  -17.0150   22.1470    8.2140 C   0  0  0  0  0  3  0  0  0  0  0  0
  -16.8250   20.9710    7.4770 C   0  0  0  0  0  0  0  0  0  0  0  0
  -17.1830   17.8320    7.0810 H   0  0  0  0  0  0  0  0  0  0  0  0
  -16.2090   27.3400   10.8630 C   0  0  0  0  0  2  0  0  0  0  0  0
  -16.3350   28.6740   11.6330 C   0  0  1  0  0  3  0  0  0  0  0  0
  -15.8220   29.8190   10.7980 N   0  0  0  0  0  4  0  0  0  0  0  0
  -16.3500   29.9580    9.9250 H   0  0  0  0  0  0  0  0  0  0  0  0
  -15.8260   30.7070   11.3150 H   0  0  0  0  0  0  0  0  0  0  0  0
  -14.8440   29.6400   10.5250 H   0  0  0  0  0  0  0  0  0  0  0  0
  -17.7780   28.9880   12.0600 C   0  0  0  0  0  2  0  0  0  0  0  0
  -17.8680   29.4500   13.4750 C   0  0  0  0  0  0  0  0  0  0  0  0
  -16.8150   29.5730   14.3610 C   0  0  0  0  0  3  0  0  0  0  0  0
  -17.3100   30.0160   15.5590 N   0  0  0  0  0  0  0  0  0  0  0  0
  -18.6730   30.1770   15.4780 C   0  0  0  0  0  0  0  0  0  0  0  0
  -19.5850   30.5950   16.4530 C   0  0  0  0  0  3  0  0  0  0  0  0
  -20.9300   30.6830   16.0860 C   0  0  0  0  0  3  0  0  0  0  0  0
  -21.3430   30.3680   14.7950 C   0  0  0  0  0  3  0  0  0  0  0  0
  -20.4160   29.9510   13.8310 C   0  0  0  0  0  3  0  0  0  0  0  0
  -19.0530   29.8460   14.1770 C   0  0  0  0  0  0  0  0  0  0  0  0
  -16.7610   30.2060   16.3890 H   0  0  0  0  0  0  0  0  0  0  0  0
  1  6  1  0  0  0  0
  1 19  1  0  0  0  0
  2  3  1  0  0  0  0
  3  4  2  0  0  0  0
  5  4  1  0  0  0  0
  6  5  2  0  0  0  0
  7  2  2  0  0  0  0
  7  6  1  0  0  0  0
  8  9  1  0  0  0  0
  9 17  1  0  0  0  0
 10  9  2  0  0  0  0
 10 11  1  0  0  0  0
 11 18  1  0  0  0  0
 11 12  1  0  0  0  0
 12 13  1  0  0  0  0
 13 14  2  0  0  0  0
 15 14  1  0  0  0  0
 15  2  1  0  0  0  0
 16 15  2  0  0  0  0
 17 12  2  0  0  0  0
 17 16  1  0  0  0  0
 20 19  1  6  0  0  0
 20 25  1  0  0  0  0
 21 23  1  0  0  0  0
 21 20  1  0  0  0  0
 22 21  1  0  0  0  0
 24 21  1  0  0  0  0
 25 26  1  0  0  0  0
 26 34  1  0  0  0  0
 26 27  2  0  0  0  0
 27 28  1  0  0  0  0
 28 35  1  0  0  0  0
 29 28  1  0  0  0  0
 29 30  1  0  0  0  0
 31 30  2  0  0  0  0
 32 31  1  0  0  0  0
 33 34  1  0  0  0  0
 33 32  2  0  0  0  0
 34 29  2  0  0  0  0
M  END
>  <minimizedAffinity>
-9.61449814

$$$$
