
 OpenBabel11232420483D

 35 39  0  0  1  0  0  0  0  0999 V2000
  -18.7340   21.2860    9.9520 O   0  0  0  0  0  0  0  0  0  0  0  0
  -19.9360   17.9520   11.0870 C   0  0  0  0  0  0  0  0  0  0  0  0
  -19.2950   17.2310   10.0840 C   0  0  0  0  0  3  0  0  0  0  0  0
  -18.4850   17.7810    9.1480 N   0  0  0  0  0  0  0  0  0  0  0  0
  -18.3050   19.1180    9.2000 C   0  0  0  0  0  3  0  0  0  0  0  0
  -18.9090   19.9470   10.1340 C   0  0  0  0  0  0  0  0  0  0  0  0
  -19.6980   19.3390   11.1070 C   0  0  0  0  0  3  0  0  0  0  0  0
  -22.8060   18.7880   16.0890 C   0  0  0  0  0  1  0  0  0  0  0  0
  -22.8530   17.5570   15.2610 C   0  0  0  0  0  0  0  0  0  0  0  0
  -23.5940   16.5100   15.6450 N   0  0  0  0  0  0  0  0  0  0  0  0
  -23.4020   15.6000   14.6790 N   0  0  0  0  0  0  0  0  0  0  0  0
  -22.5610   16.0150   13.6840 C   0  0  0  0  0  0  0  0  0  0  0  0
  -22.1110   15.3970   12.5320 C   0  0  0  0  0  3  0  0  0  0  0  0
  -21.2610   16.0730   11.7160 N   0  0  0  0  0  0  0  0  0  0  0  0
  -20.8680   17.3410   12.0470 C   0  0  0  0  0  0  0  0  0  0  0  0
  -21.3020   18.0010   13.1970 C   0  0  0  0  0  3  0  0  0  0  0  0
  -22.1790   17.3020   14.0370 C   0  0  0  0  0  0  0  0  0  0  0  0
  -23.8800   14.7100   14.7660 H   0  0  0  0  0  0  0  0  0  0  0  0
  -18.8470   22.1790   11.0670 C   0  0  0  0  0  2  0  0  0  0  0  0
  -17.5650   23.0270   11.2280 C   0  0  1  0  0  3  0  0  0  0  0  0
  -16.3730   22.1420   11.4830 N   0  0  0  0  0  4  0  0  0  0  0  0
  -16.1730   21.4910   10.7090 H   0  0  0  0  0  0  0  0  0  0  0  0
  -15.5200   22.6850   11.6660 H   0  0  0  0  0  0  0  0  0  0  0  0
  -16.5400   21.5620   12.3190 H   0  0  0  0  0  0  0  0  0  0  0  0
  -17.2700   23.9070   10.0030 C   0  0  0  0  0  2  0  0  0  0  0  0
  -17.0960   25.3440   10.3610 C   0  0  0  0  0  0  0  0  0  0  0  0
  -15.9520   26.0970   10.1770 C   0  0  0  0  0  3  0  0  0  0  0  0
  -16.1910   27.3640   10.6420 N   0  0  0  0  0  0  0  0  0  0  0  0
  -17.4700   27.4530   11.1370 C   0  0  0  0  0  0  0  0  0  0  0  0
  -18.1320   28.5410   11.7160 C   0  0  0  0  0  3  0  0  0  0  0  0
  -19.4540   28.3510   12.1250 C   0  0  0  0  0  3  0  0  0  0  0  0
  -20.0880   27.1230   11.9560 C   0  0  0  0  0  3  0  0  0  0  0  0
  -19.4100   26.0440   11.3750 C   0  0  0  0  0  3  0  0  0  0  0  0
  -18.0710   26.2070   10.9600 C   0  0  0  0  0  0  0  0  0  0  0  0
  -15.5310   28.1320   10.6230 H   0  0  0  0  0  0  0  0  0  0  0  0
  1  6  1  0  0  0  0
  1 19  1  0  0  0  0
  2  7  1  0  0  0  0
  2 15  1  0  0  0  0
  3  2  2  0  0  0  0
  4  5  2  0  0  0  0
  4  3  1  0  0  0  0
  5  6  1  0  0  0  0
  6  7  2  0  0  0  0
  9 10  2  0  0  0  0
  9  8  1  0  0  0  0
 11 18  1  0  0  0  0
 11 10  1  0  0  0  0
 12 17  1  0  0  0  0
 12 11  1  0  0  0  0
 13 12  2  0  0  0  0
 14 15  2  0  0  0  0
 14 13  1  0  0  0  0
 15 16  1  0  0  0  0
 16 17  2  0  0  0  0
 17  9  1  0  0  0  0
 20 19  1  6  0  0  0
 20 25  1  0  0  0  0
 20 21  1  0  0  0  0
 21 23  1  0  0  0  0
 21 24  1  0  0  0  0
 22 21  1  0  0  0  0
 25 26  1  0  0  0  0
 26 34  1  0  0  0  0
 27 26  2  0  0  0  0
 27 28  1  0  0  0  0
 28 29  1  0  0  0  0
 29 30  1  0  0  0  0
 30 31  2  0  0  0  0
 32 31  1  0  0  0  0
 33 32  2  0  0  0  0
 34 29  2  0  0  0  0
 34 33  1  0  0  0  0
 35 28  1  0  0  0  0
M  END
>  <minimizedAffinity>
-9.6070919

$$$$
