
 OpenBabel10152419483D

 37 40  0  0  0  0  0  0  0  0999 V2000
   -2.3740   -8.8510  -21.6970 C   0  0  0  0  0  0  0  0  0  0  0  0
   -3.5480   -8.7230  -22.4400 C   0  0  0  0  0  3  0  0  0  0  0  0
   -3.6960   -7.6560  -23.3210 C   0  0  0  0  0  3  0  0  0  0  0  0
   -2.6580   -6.7380  -23.4810 C   0  0  0  0  0  3  0  0  0  0  0  0
   -1.4240   -6.9070  -22.8350 C   0  0  0  0  0  0  0  0  0  0  0  0
   -1.2950   -7.9910  -21.9530 C   0  0  0  0  0  3  0  0  0  0  0  0
   -1.9610  -11.1530  -20.7480 C   0  0  0  0  0  0  0  0  0  0  0  0
   -2.2210  -11.9230  -19.8260 O   0  0  0  0  0  0  0  0  0  0  0  0
   -2.3560   -9.8320  -20.6900 N   0  0  0  0  0  0  0  0  0  0  0  0
   -2.6140   -9.5450  -19.7520 H   0  0  0  0  0  0  0  0  0  0  0  0
    0.5880  -12.3410  -24.0260 C   0  0  0  0  0  0  0  0  0  0  0  0
   -0.4690  -11.4240  -24.1910 C   0  0  0  0  0  3  0  0  0  0  0  0
   -1.3290  -11.0740  -23.1410 C   0  0  0  0  0  3  0  0  0  0  0  0
   -1.1450  -11.6410  -21.8850 C   0  0  0  0  0  0  0  0  0  0  0  0
   -0.1790  -12.6330  -21.7120 C   0  0  0  0  0  3  0  0  0  0  0  0
    0.6820  -12.9590  -22.7670 C   0  0  0  0  0  3  0  0  0  0  0  0
    2.8910  -12.8970  -24.7470 C   0  0  0  0  0  1  0  0  0  0  0  0
    1.4910  -12.6160  -25.0470 N   0  0  0  0  0  0  0  0  0  0  0  0
    1.1320  -12.4120  -26.4440 C   0  0  0  0  0  1  0  0  0  0  0  0
   -0.2840   -5.9130  -23.0080 C   0  0  0  0  0  2  0  0  0  0  0  0
   -0.0510   -5.5730  -24.4030 N   0  0  0  0  0  0  0  0  0  0  0  0
    0.0160   -4.6020  -24.6570 H   0  0  0  0  0  0  0  0  0  0  0  0
    0.4430   -6.5570  -25.2490 C   0  0  0  0  0  0  0  0  0  0  0  0
    0.8060   -7.7180  -24.6740 N   0  0  0  0  0  0  0  0  0  0  0  0
    1.6150   -8.5100  -25.3760 C   0  0  0  0  0  3  0  0  0  0  0  0
    2.1690   -8.2030  -26.5490 N   0  0  0  0  0  0  0  0  0  0  0  0
    1.7660   -7.0660  -27.1480 C   0  0  0  0  0  0  0  0  0  0  0  0
    2.3290   -6.6330  -28.3530 C   0  0  0  0  0  0  0  0  0  0  0  0
    1.8660   -5.5170  -29.0620 C   0  0  0  0  0  3  0  0  0  0  0  0
    0.8400   -4.7550  -28.5310 C   0  0  0  0  0  3  0  0  0  0  0  0
    0.3390   -5.0840  -27.2750 C   0  0  0  0  0  3  0  0  0  0  0  0
    0.8060   -6.2270  -26.5680 C   0  0  0  0  0  0  0  0  0  0  0  0
    3.5730   -7.2490  -28.8410 C   0  0  0  0  0  0  0  0  0  0  0  0
    4.5360   -7.4170  -27.8820 N   0  0  0  0  0  0  0  0  0  0  0  0
    3.7650   -7.4850  -30.0240 O   0  0  0  0  0  0  0  0  0  0  0  0
    5.4280   -7.8050  -28.1580 H   0  0  0  0  0  0  0  0  0  0  0  0
    4.3850   -7.1830  -26.9100 H   0  0  0  0  0  0  0  0  0  0  0  0
  1  9  1  0  0  0  0
  2  1  2  0  0  0  0
  3  2  1  0  0  0  0
  4  3  2  0  0  0  0
  4  5  1  0  0  0  0
  5  6  2  0  0  0  0
  6  1  1  0  0  0  0
  7  9  1  0  0  0  0
  7  8  2  0  0  0  0
  9 10  1  0  0  0  0
 11 16  1  0  0  0  0
 12 11  2  0  0  0  0
 12 13  1  0  0  0  0
 13 14  2  0  0  0  0
 14 15  1  0  0  0  0
 14  7  1  0  0  0  0
 16 15  2  0  0  0  0
 18 17  1  0  0  0  0
 18 11  1  0  0  0  0
 19 18  1  0  0  0  0
 20  5  1  0  0  0  0
 21 20  1  0  0  0  0
 22 21  1  0  0  0  0
 23 24  1  0  0  0  0
 23 21  1  0  0  0  0
 25 24  2  0  0  0  0
 26 25  1  0  0  0  0
 27 32  1  0  0  0  0
 27 26  2  0  0  0  0
 28 27  1  0  0  0  0
 29 30  1  0  0  0  0
 29 28  2  0  0  0  0
 30 31  2  0  0  0  0
 31 32  1  0  0  0  0
 32 23  2  0  0  0  0
 33 28  1  0  0  0  0
 33 34  1  0  0  0  0
 34 37  1  0  0  0  0
 35 33  2  0  0  0  0
 36 34  1  0  0  0  0
M  END
>  <minimizedAffinity>
-8.09951878

$$$$
