
 OpenBabel10152419483D

 37 40  0  0  0  0  0  0  0  0999 V2000
    3.8920  -10.7440  -27.6220 C   0  0  0  0  0  0  0  0  0  0  0  0
    4.7210  -11.1950  -26.5950 C   0  0  0  0  0  3  0  0  0  0  0  0
    4.1740  -11.8820  -25.5160 C   0  0  0  0  0  3  0  0  0  0  0  0
    2.8040  -12.1440  -25.4810 C   0  0  0  0  0  3  0  0  0  0  0  0
    1.9660  -11.8050  -26.5550 C   0  0  0  0  0  0  0  0  0  0  0  0
    2.5390  -11.1150  -27.6330 C   0  0  0  0  0  3  0  0  0  0  0  0
    4.1020   -8.6260  -28.9780 C   0  0  0  0  0  0  0  0  0  0  0  0
    4.5870   -8.1220  -29.9890 O   0  0  0  0  0  0  0  0  0  0  0  0
    4.4690   -9.8970  -28.5850 N   0  0  0  0  0  0  0  0  0  0  0  0
    5.3190  -10.2130  -29.0380 H   0  0  0  0  0  0  0  0  0  0  0  0
    1.2020   -6.4390  -26.6420 C   0  0  0  0  0  0  0  0  0  0  0  0
    1.4690   -6.1270  -27.9890 C   0  0  0  0  0  3  0  0  0  0  0  0
    2.4450   -6.8030  -28.7360 C   0  0  0  0  0  3  0  0  0  0  0  0
    3.1830   -7.8200  -28.1420 C   0  0  0  0  0  0  0  0  0  0  0  0
    3.0210   -8.0820  -26.7800 C   0  0  0  0  0  3  0  0  0  0  0  0
    2.0320   -7.4100  -26.0540 C   0  0  0  0  0  3  0  0  0  0  0  0
    0.0430   -6.0210  -24.4930 C   0  0  0  0  0  1  0  0  0  0  0  0
    0.1740   -5.8280  -25.9330 N   0  0  0  0  0  0  0  0  0  0  0  0
   -0.9280   -5.1700  -26.6240 C   0  0  0  0  0  1  0  0  0  0  0  0
    0.4710  -12.0910  -26.5280 C   0  0  0  0  0  2  0  0  0  0  0  0
   -0.0410  -12.2440  -25.1740 N   0  0  0  0  0  0  0  0  0  0  0  0
    0.4710  -12.8200  -24.5290 H   0  0  0  0  0  0  0  0  0  0  0  0
   -0.9660  -11.3180  -24.7100 C   0  0  0  0  0  0  0  0  0  0  0  0
   -1.3510  -10.3650  -25.5780 N   0  0  0  0  0  0  0  0  0  0  0  0
   -1.9180   -9.2760  -25.0620 C   0  0  0  0  0  3  0  0  0  0  0  0
   -2.0450   -9.0130  -23.7620 N   0  0  0  0  0  0  0  0  0  0  0  0
   -1.7080   -9.9880  -22.8950 C   0  0  0  0  0  0  0  0  0  0  0  0
   -1.7560   -9.7870  -21.5120 C   0  0  0  0  0  0  0  0  0  0  0  0
   -1.5180  -10.8050  -20.5770 C   0  0  0  0  0  3  0  0  0  0  0  0
   -1.1580  -12.0640  -21.0250 C   0  0  0  0  0  3  0  0  0  0  0  0
   -0.9810  -12.2670  -22.3900 C   0  0  0  0  0  3  0  0  0  0  0  0
   -1.2370  -11.2330  -23.3320 C   0  0  0  0  0  0  0  0  0  0  0  0
   -1.8880   -8.4240  -20.9760 C   0  0  0  0  0  0  0  0  0  0  0  0
   -1.2380   -7.4630  -21.7040 N   0  0  0  0  0  0  0  0  0  0  0  0
   -2.4370   -8.1910  -19.9100 O   0  0  0  0  0  0  0  0  0  0  0  0
   -1.2610   -6.5080  -21.3710 H   0  0  0  0  0  0  0  0  0  0  0  0
   -0.7510   -7.6680  -22.5660 H   0  0  0  0  0  0  0  0  0  0  0  0
  1  2  1  0  0  0  0
  2  3  2  0  0  0  0
  3  4  1  0  0  0  0
  5 20  1  0  0  0  0
  5  4  2  0  0  0  0
  6  1  2  0  0  0  0
  6  5  1  0  0  0  0
  7  9  1  0  0  0  0
  7 14  1  0  0  0  0
  8  7  2  0  0  0  0
  9  1  1  0  0  0  0
 10  9  1  0  0  0  0
 11 16  1  0  0  0  0
 11 18  1  0  0  0  0
 12 11  2  0  0  0  0
 13 14  2  0  0  0  0
 13 12  1  0  0  0  0
 14 15  1  0  0  0  0
 15 16  2  0  0  0  0
 18 17  1  0  0  0  0
 19 18  1  0  0  0  0
 20 21  1  0  0  0  0
 21 23  1  0  0  0  0
 21 22  1  0  0  0  0
 23 32  1  0  0  0  0
 24 25  1  0  0  0  0
 24 23  2  0  0  0  0
 25 26  2  0  0  0  0
 26 27  1  0  0  0  0
 27 28  1  0  0  0  0
 28 33  1  0  0  0  0
 28 29  2  0  0  0  0
 30 29  1  0  0  0  0
 31 30  2  0  0  0  0
 32 27  2  0  0  0  0
 32 31  1  0  0  0  0
 33 35  2  0  0  0  0
 34 36  1  0  0  0  0
 34 33  1  0  0  0  0
 37 34  1  0  0  0  0
M  END
>  <minimizedAffinity>
-9.0097332

$$$$
