
 OpenBabel10152419483D

 37 40  0  0  0  0  0  0  0  0999 V2000
   -1.2220   -9.9980  -23.8740 C   0  0  0  0  0  0  0  0  0  0  0  0
   -1.9480  -10.2830  -25.0310 C   0  0  0  0  0  3  0  0  0  0  0  0
   -1.3440  -10.9790  -26.0730 C   0  0  0  0  0  3  0  0  0  0  0  0
   -0.0250  -11.4160  -25.9430 C   0  0  0  0  0  3  0  0  0  0  0  0
    0.6890  -11.2450  -24.7480 C   0  0  0  0  0  0  0  0  0  0  0  0
    0.0600  -10.5430  -23.7090 C   0  0  0  0  0  3  0  0  0  0  0  0
   -1.7720   -7.7570  -22.8520 C   0  0  0  0  0  0  0  0  0  0  0  0
   -2.1720   -7.1830  -21.8410 O   0  0  0  0  0  0  0  0  0  0  0  0
   -1.8190   -9.1330  -22.9400 N   0  0  0  0  0  0  0  0  0  0  0  0
   -2.4310   -9.5450  -22.2450 H   0  0  0  0  0  0  0  0  0  0  0  0
   -0.2180   -5.5890  -26.2480 C   0  0  0  0  0  0  0  0  0  0  0  0
    0.2690   -5.3860  -24.9420 C   0  0  0  0  0  3  0  0  0  0  0  0
   -0.2670   -6.0520  -23.8310 C   0  0  0  0  0  3  0  0  0  0  0  0
   -1.3140   -6.9480  -24.0060 C   0  0  0  0  0  0  0  0  0  0  0  0
   -1.8930   -7.0930  -25.2680 C   0  0  0  0  0  3  0  0  0  0  0  0
   -1.3360   -6.4330  -26.3700 C   0  0  0  0  0  3  0  0  0  0  0  0
    1.3830   -5.7060  -28.1350 C   0  0  0  0  0  1  0  0  0  0  0  0
    0.3750   -4.9950  -27.3570 N   0  0  0  0  0  0  0  0  0  0  0  0
    0.1840   -3.5780  -27.6420 C   0  0  0  0  0  1  0  0  0  0  0  0
    2.1270  -11.7240  -24.5960 C   0  0  0  0  0  2  0  0  0  0  0  0
    2.8270  -11.7900  -25.8700 N   0  0  0  0  0  0  0  0  0  0  0  0
    2.6510  -12.5740  -26.4750 H   0  0  0  0  0  0  0  0  0  0  0  0
    3.3960  -10.6270  -26.3710 C   0  0  0  0  0  0  0  0  0  0  0  0
    3.1620   -9.4960  -25.6810 N   0  0  0  0  0  0  0  0  0  0  0  0
    3.3620   -8.3470  -26.3240 C   0  0  0  0  0  3  0  0  0  0  0  0
    3.6760   -8.2280  -27.6140 N   0  0  0  0  0  0  0  0  0  0  0  0
    3.9600   -9.3570  -28.2910 C   0  0  0  0  0  0  0  0  0  0  0  0
    4.2470   -9.3380  -29.6590 C   0  0  0  0  0  0  0  0  0  0  0  0
    4.6530  -10.4720  -30.3770 C   0  0  0  0  0  3  0  0  0  0  0  0
    4.7220  -11.6940  -29.7300 C   0  0  0  0  0  3  0  0  0  0  0  0
    4.3240  -11.7730  -28.3990 C   0  0  0  0  0  3  0  0  0  0  0  0
    3.9270  -10.6150  -27.6750 C   0  0  0  0  0  0  0  0  0  0  0  0
    3.9560   -8.1320  -30.4500 C   0  0  0  0  0  0  0  0  0  0  0  0
    4.6530   -7.0180  -30.0620 N   0  0  0  0  0  0  0  0  0  0  0  0
    3.0830   -8.1060  -31.3040 O   0  0  0  0  0  0  0  0  0  0  0  0
    4.4740   -6.1470  -30.5430 H   0  0  0  0  0  0  0  0  0  0  0  0
    5.3460   -7.0370  -29.3270 H   0  0  0  0  0  0  0  0  0  0  0  0
  1  6  1  0  0  0  0
  1  9  1  0  0  0  0
  2  1  2  0  0  0  0
  3  4  2  0  0  0  0
  3  2  1  0  0  0  0
  4  5  1  0  0  0  0
  5 20  1  0  0  0  0
  5  6  2  0  0  0  0
  7  8  2  0  0  0  0
  9  7  1  0  0  0  0
  9 10  1  0  0  0  0
 11 12  1  0  0  0  0
 12 13  2  0  0  0  0
 14 13  1  0  0  0  0
 14  7  1  0  0  0  0
 15 14  2  0  0  0  0
 16 11  2  0  0  0  0
 16 15  1  0  0  0  0
 17 18  1  0  0  0  0
 18 11  1  0  0  0  0
 19 18  1  0  0  0  0
 21 20  1  0  0  0  0
 22 21  1  0  0  0  0
 23 21  1  0  0  0  0
 23 24  1  0  0  0  0
 25 24  2  0  0  0  0
 26 25  1  0  0  0  0
 27 32  1  0  0  0  0
 27 26  2  0  0  0  0
 28 27  1  0  0  0  0
 29 30  1  0  0  0  0
 29 28  2  0  0  0  0
 30 31  2  0  0  0  0
 31 32  1  0  0  0  0
 32 23  2  0  0  0  0
 33 34  1  0  0  0  0
 33 28  1  0  0  0  0
 34 37  1  0  0  0  0
 35 33  2  0  0  0  0
 36 34  1  0  0  0  0
M  END
>  <minimizedAffinity>
-8.55614567

$$$$
