
 OpenBabel10152419483D

 37 40  0  0  0  0  0  0  0  0999 V2000
    3.1980   -8.8320  -27.0580 C   0  0  0  0  0  0  0  0  0  0  0  0
    3.0130   -7.9570  -25.9880 C   0  0  0  0  0  3  0  0  0  0  0  0
    2.4970   -8.4330  -24.7870 C   0  0  0  0  0  3  0  0  0  0  0  0
    2.1950   -9.7880  -24.6490 C   0  0  0  0  0  3  0  0  0  0  0  0
    2.4790  -10.7100  -25.6690 C   0  0  0  0  0  0  0  0  0  0  0  0
    3.0030  -10.2080  -26.8700 C   0  0  0  0  0  3  0  0  0  0  0  0
    2.9100   -7.2720  -29.0220 C   0  0  0  0  0  0  0  0  0  0  0  0
    3.2290   -7.0550  -30.1890 O   0  0  0  0  0  0  0  0  0  0  0  0
    3.5410   -8.2630  -28.2980 N   0  0  0  0  0  0  0  0  0  0  0  0
    4.4090   -8.5650  -28.7270 H   0  0  0  0  0  0  0  0  0  0  0  0
    0.1070   -4.7750  -26.8880 C   0  0  0  0  0  0  0  0  0  0  0  0
   -0.0190   -6.1770  -26.9310 C   0  0  0  0  0  3  0  0  0  0  0  0
    0.8610   -6.9870  -27.6630 C   0  0  0  0  0  3  0  0  0  0  0  0
    1.9000   -6.4020  -28.3770 C   0  0  0  0  0  0  0  0  0  0  0  0
    1.9910   -5.0110  -28.4450 C   0  0  0  0  0  3  0  0  0  0  0  0
    1.1150   -4.2180  -27.6950 C   0  0  0  0  0  3  0  0  0  0  0  0
   -1.1680   -2.6790  -26.5510 C   0  0  0  0  0  1  0  0  0  0  0  0
   -0.7130   -3.9850  -26.0890 N   0  0  0  0  0  0  0  0  0  0  0  0
   -0.9550   -4.3240  -24.6930 C   0  0  0  0  0  1  0  0  0  0  0  0
    2.1590  -12.1910  -25.5250 C   0  0  0  0  0  2  0  0  0  0  0  0
    0.8520  -12.5320  -26.0670 N   0  0  0  0  0  0  0  0  0  0  0  0
    0.7350  -13.4250  -26.5130 H   0  0  0  0  0  0  0  0  0  0  0  0
   -0.2520  -11.8130  -25.6280 C   0  0  0  0  0  0  0  0  0  0  0  0
   -0.7570  -10.9040  -26.4810 N   0  0  0  0  0  0  0  0  0  0  0  0
   -1.5430   -9.9630  -25.9610 C   0  0  0  0  0  3  0  0  0  0  0  0
   -1.7880   -9.7930  -24.6610 N   0  0  0  0  0  0  0  0  0  0  0  0
   -1.3270  -10.7320  -23.8130 C   0  0  0  0  0  0  0  0  0  0  0  0
   -1.4880  -10.6130  -22.4290 C   0  0  0  0  0  0  0  0  0  0  0  0
   -1.1190  -11.6160  -21.5220 C   0  0  0  0  0  3  0  0  0  0  0  0
   -0.5100  -12.7650  -21.9940 C   0  0  0  0  0  3  0  0  0  0  0  0
   -0.2220  -12.8640  -23.3520 C   0  0  0  0  0  3  0  0  0  0  0  0
   -0.6110  -11.8480  -24.2670 C   0  0  0  0  0  0  0  0  0  0  0  0
   -1.8980   -9.3240  -21.8510 C   0  0  0  0  0  0  0  0  0  0  0  0
   -1.0620   -8.2800  -22.1420 N   0  0  0  0  0  0  0  0  0  0  0  0
   -2.8440   -9.2250  -21.0840 O   0  0  0  0  0  0  0  0  0  0  0  0
   -1.2690   -7.3720  -21.7460 H   0  0  0  0  0  0  0  0  0  0  0  0
   -0.2570   -8.3770  -22.7460 H   0  0  0  0  0  0  0  0  0  0  0  0
  1  6  2  0  0  0  0
  1  2  1  0  0  0  0
  2  3  2  0  0  0  0
  3  4  1  0  0  0  0
  5 20  1  0  0  0  0
  5  4  2  0  0  0  0
  6  5  1  0  0  0  0
  7 14  1  0  0  0  0
  7  9  1  0  0  0  0
  8  7  2  0  0  0  0
  9  1  1  0  0  0  0
 10  9  1  0  0  0  0
 11 18  1  0  0  0  0
 12 11  1  0  0  0  0
 13 12  2  0  0  0  0
 14 13  1  0  0  0  0
 15 14  2  0  0  0  0
 15 16  1  0  0  0  0
 16 11  2  0  0  0  0
 17 18  1  0  0  0  0
 18 19  1  0  0  0  0
 21 23  1  0  0  0  0
 21 20  1  0  0  0  0
 22 21  1  0  0  0  0
 23 32  1  0  0  0  0
 24 25  1  0  0  0  0
 24 23  2  0  0  0  0
 25 26  2  0  0  0  0
 26 27  1  0  0  0  0
 27 28  1  0  0  0  0
 28 33  1  0  0  0  0
 28 29  2  0  0  0  0
 30 29  1  0  0  0  0
 31 30  2  0  0  0  0
 32 27  2  0  0  0  0
 32 31  1  0  0  0  0
 33 35  2  0  0  0  0
 34 33  1  0  0  0  0
 34 36  1  0  0  0  0
 37 34  1  0  0  0  0
M  END
>  <minimizedAffinity>
-8.38185883

$$$$
