
 OpenBabel10152419483D

 37 40  0  0  0  0  0  0  0  0999 V2000
    3.5870  -11.1260  -26.6230 C   0  0  0  0  0  0  0  0  0  0  0  0
    4.2660  -11.8610  -25.6510 C   0  0  0  0  0  3  0  0  0  0  0  0
    3.5510  -12.6600  -24.7650 C   0  0  0  0  0  3  0  0  0  0  0  0
    2.1630  -12.7470  -24.8710 C   0  0  0  0  0  3  0  0  0  0  0  0
    1.4670  -12.1100  -25.9100 C   0  0  0  0  0  0  0  0  0  0  0  0
    2.2070  -11.3120  -26.7940 C   0  0  0  0  0  3  0  0  0  0  0  0
    4.0280   -8.9030  -27.7350 C   0  0  0  0  0  0  0  0  0  0  0  0
    4.7130   -8.3130  -28.5680 O   0  0  0  0  0  0  0  0  0  0  0  0
    4.3380  -10.1950  -27.3630 N   0  0  0  0  0  0  0  0  0  0  0  0
    5.2800  -10.4610  -27.6310 H   0  0  0  0  0  0  0  0  0  0  0  0
    0.9790   -6.5980  -25.7250 C   0  0  0  0  0  0  0  0  0  0  0  0
    1.7790   -7.5390  -25.0460 C   0  0  0  0  0  3  0  0  0  0  0  0
    2.7350   -8.3240  -25.7050 C   0  0  0  0  0  3  0  0  0  0  0  0
    2.9160   -8.1810  -27.0760 C   0  0  0  0  0  0  0  0  0  0  0  0
    2.0680   -7.3380  -27.7970 C   0  0  0  0  0  3  0  0  0  0  0  0
    1.1300   -6.5500  -27.1220 C   0  0  0  0  0  3  0  0  0  0  0  0
   -0.5660   -4.6630  -25.7500 C   0  0  0  0  0  1  0  0  0  0  0  0
    0.0960   -5.7600  -25.0540 N   0  0  0  0  0  0  0  0  0  0  0  0
   -0.0240   -5.8020  -23.6020 C   0  0  0  0  0  1  0  0  0  0  0  0
   -0.0480  -12.2030  -26.0370 C   0  0  0  0  0  2  0  0  0  0  0  0
   -0.6830  -12.6350  -24.8010 N   0  0  0  0  0  0  0  0  0  0  0  0
   -0.8230  -13.6200  -24.6510 H   0  0  0  0  0  0  0  0  0  0  0  0
   -0.7220  -11.7470  -23.7340 C   0  0  0  0  0  0  0  0  0  0  0  0
   -0.5530  -12.2730  -22.5070 N   0  0  0  0  0  0  0  0  0  0  0  0
   -0.9570  -11.5340  -21.4760 C   0  0  0  0  0  3  0  0  0  0  0  0
   -1.6000  -10.3700  -21.5650 N   0  0  0  0  0  0  0  0  0  0  0  0
   -1.7220   -9.8190  -22.7880 C   0  0  0  0  0  0  0  0  0  0  0  0
   -2.4260   -8.6270  -22.9880 C   0  0  0  0  0  0  0  0  0  0  0  0
   -2.4860   -7.9660  -24.2230 C   0  0  0  0  0  3  0  0  0  0  0  0
   -1.8740   -8.5360  -25.3260 C   0  0  0  0  0  3  0  0  0  0  0  0
   -1.2700   -9.7820  -25.1910 C   0  0  0  0  0  3  0  0  0  0  0  0
   -1.2020  -10.4390  -23.9310 C   0  0  0  0  0  0  0  0  0  0  0  0
   -3.2970   -8.1060  -21.9230 C   0  0  0  0  0  0  0  0  0  0  0  0
   -2.6400   -7.7620  -20.7720 N   0  0  0  0  0  0  0  0  0  0  0  0
   -4.5140   -8.0900  -22.0240 O   0  0  0  0  0  0  0  0  0  0  0  0
   -3.1840   -7.4290  -19.9880 H   0  0  0  0  0  0  0  0  0  0  0  0
   -1.6340   -7.8150  -20.6800 H   0  0  0  0  0  0  0  0  0  0  0  0
  1  2  1  0  0  0  0
  2  3  2  0  0  0  0
  4  3  1  0  0  0  0
  5  4  2  0  0  0  0
  6  1  2  0  0  0  0
  6  5  1  0  0  0  0
  7  9  1  0  0  0  0
  7 14  1  0  0  0  0
  8  7  2  0  0  0  0
  9  1  1  0  0  0  0
 10  9  1  0  0  0  0
 11 18  1  0  0  0  0
 11 12  1  0  0  0  0
 13 12  2  0  0  0  0
 14 13  1  0  0  0  0
 15 16  1  0  0  0  0
 15 14  2  0  0  0  0
 16 11  2  0  0  0  0
 17 18  1  0  0  0  0
 18 19  1  0  0  0  0
 20  5  1  0  0  0  0
 20 21  1  0  0  0  0
 21 22  1  0  0  0  0
 21 23  1  0  0  0  0
 23 24  1  0  0  0  0
 24 25  2  0  0  0  0
 26 25  1  0  0  0  0
 27 26  2  0  0  0  0
 28 27  1  0  0  0  0
 28 33  1  0  0  0  0
 29 28  2  0  0  0  0
 30 31  2  0  0  0  0
 30 29  1  0  0  0  0
 31 32  1  0  0  0  0
 32 23  2  0  0  0  0
 32 27  1  0  0  0  0
 33 34  1  0  0  0  0
 34 37  1  0  0  0  0
 34 36  1  0  0  0  0
 35 33  2  0  0  0  0
M  END
>  <minimizedAffinity>
-8.85684204

$$$$
