
 OpenBabel10152419483D

 37 40  0  0  0  0  0  0  0  0999 V2000
   -0.3290   -4.6780  -25.4930 C   0  0  0  0  0  0  0  0  0  0  0  0
   -0.5350   -3.3910  -25.9900 C   0  0  0  0  0  3  0  0  0  0  0  0
   -0.0510   -3.0510  -27.2490 C   0  0  0  0  0  3  0  0  0  0  0  0
    0.6110   -4.0070  -28.0200 C   0  0  0  0  0  3  0  0  0  0  0  0
    0.7290   -5.3380  -27.5940 C   0  0  0  0  0  0  0  0  0  0  0  0
    0.2320   -5.6600  -26.3230 C   0  0  0  0  0  3  0  0  0  0  0  0
   -1.0670   -6.0710  -23.5210 C   0  0  0  0  0  0  0  0  0  0  0  0
   -1.5360   -6.0390  -22.3850 O   0  0  0  0  0  0  0  0  0  0  0  0
   -0.6700   -4.9080  -24.1470 N   0  0  0  0  0  0  0  0  0  0  0  0
   -0.5640   -4.1340  -23.5000 H   0  0  0  0  0  0  0  0  0  0  0  0
   -0.4450  -10.0170  -25.1630 C   0  0  0  0  0  0  0  0  0  0  0  0
    0.6220   -9.2160  -24.7110 C   0  0  0  0  0  3  0  0  0  0  0  0
    0.4280   -7.9150  -24.2230 C   0  0  0  0  0  3  0  0  0  0  0  0
   -0.8550   -7.3830  -24.1750 C   0  0  0  0  0  0  0  0  0  0  0  0
   -1.9200   -8.1060  -24.7150 C   0  0  0  0  0  3  0  0  0  0  0  0
   -1.7130   -9.4080  -25.1830 C   0  0  0  0  0  3  0  0  0  0  0  0
   -0.7260  -12.4390  -24.7290 C   0  0  0  0  0  1  0  0  0  0  0  0
   -0.2590  -11.3360  -25.5610 N   0  0  0  0  0  0  0  0  0  0  0  0
    0.5980  -11.6660  -26.6920 C   0  0  0  0  0  1  0  0  0  0  0  0
    1.4450   -6.3890  -28.4330 C   0  0  0  0  0  2  0  0  0  0  0  0
    2.8770   -6.1470  -28.5230 N   0  0  0  0  0  0  0  0  0  0  0  0
    3.2660   -5.3690  -28.0170 H   0  0  0  0  0  0  0  0  0  0  0  0
    3.6940   -7.1780  -28.9670 C   0  0  0  0  0  0  0  0  0  0  0  0
    4.0660   -7.1370  -30.2590 N   0  0  0  0  0  0  0  0  0  0  0  0
    4.5120   -8.2730  -30.7920 C   0  0  0  0  0  3  0  0  0  0  0  0
    4.5260   -9.4590  -30.1830 N   0  0  0  0  0  0  0  0  0  0  0  0
    4.2030   -9.4900  -28.8760 C   0  0  0  0  0  0  0  0  0  0  0  0
    4.1380  -10.6930  -28.1650 C   0  0  0  0  0  0  0  0  0  0  0  0
    3.9130  -10.7600  -26.7830 C   0  0  0  0  0  3  0  0  0  0  0  0
    3.6820   -9.5920  -26.0770 C   0  0  0  0  0  3  0  0  0  0  0  0
    3.6180   -8.3880  -26.7730 C   0  0  0  0  0  3  0  0  0  0  0  0
    3.8600   -8.3280  -28.1730 C   0  0  0  0  0  0  0  0  0  0  0  0
    4.1290  -11.9710  -28.8930 C   0  0  0  0  0  0  0  0  0  0  0  0
    3.3030  -11.9950  -29.9860 N   0  0  0  0  0  0  0  0  0  0  0  0
    4.7210  -12.9590  -28.4870 O   0  0  0  0  0  0  0  0  0  0  0  0
    3.2250  -12.8550  -30.5110 H   0  0  0  0  0  0  0  0  0  0  0  0
    2.7840  -11.1850  -30.2950 H   0  0  0  0  0  0  0  0  0  0  0  0
  1  9  1  0  0  0  0
  2  1  1  0  0  0  0
  3  2  2  0  0  0  0
  4  5  2  0  0  0  0
  4  3  1  0  0  0  0
  5  6  1  0  0  0  0
  6  1  2  0  0  0  0
  7  8  2  0  0  0  0
  9  7  1  0  0  0  0
  9 10  1  0  0  0  0
 11 12  1  0  0  0  0
 12 13  2  0  0  0  0
 13 14  1  0  0  0  0
 14  7  1  0  0  0  0
 15 14  2  0  0  0  0
 16 11  2  0  0  0  0
 16 15  1  0  0  0  0
 18 11  1  0  0  0  0
 18 17  1  0  0  0  0
 19 18  1  0  0  0  0
 20  5  1  0  0  0  0
 21 20  1  0  0  0  0
 21 22  1  0  0  0  0
 23 21  1  0  0  0  0
 23 32  1  0  0  0  0
 24 23  2  0  0  0  0
 25 24  1  0  0  0  0
 25 26  2  0  0  0  0
 26 27  1  0  0  0  0
 27 32  2  0  0  0  0
 27 28  1  0  0  0  0
 28 29  2  0  0  0  0
 29 30  1  0  0  0  0
 31 30  2  0  0  0  0
 32 31  1  0  0  0  0
 33 35  2  0  0  0  0
 33 28  1  0  0  0  0
 34 33  1  0  0  0  0
 36 34  1  0  0  0  0
 37 34  1  0  0  0  0
M  END
>  <minimizedAffinity>
-8.1129837

$$$$
