
 OpenBabel10152419483D

 37 40  0  0  0  0  0  0  0  0999 V2000
   -2.0720   -8.7190  -21.8690 C   0  0  0  0  0  0  0  0  0  0  0  0
   -1.9970   -7.4690  -21.2550 C   0  0  0  0  0  3  0  0  0  0  0  0
   -1.4860   -6.3830  -21.9590 C   0  0  0  0  0  3  0  0  0  0  0  0
   -1.0820   -6.5420  -23.2850 C   0  0  0  0  0  3  0  0  0  0  0  0
   -1.2550   -7.7580  -23.9620 C   0  0  0  0  0  0  0  0  0  0  0  0
   -1.7730   -8.8390  -23.2350 C   0  0  0  0  0  3  0  0  0  0  0  0
   -2.2120  -11.1630  -21.2540 C   0  0  0  0  0  0  0  0  0  0  0  0
   -2.7740  -11.9900  -20.5390 O   0  0  0  0  0  0  0  0  0  0  0  0
   -2.4150   -9.8130  -21.0550 N   0  0  0  0  0  0  0  0  0  0  0  0
   -2.8250   -9.6120  -20.1490 H   0  0  0  0  0  0  0  0  0  0  0  0
    0.7190  -12.2650  -24.2280 C   0  0  0  0  0  0  0  0  0  0  0  0
   -0.4700  -11.5880  -24.5610 C   0  0  0  0  0  3  0  0  0  0  0  0
   -1.4460  -11.2720  -23.6060 C   0  0  0  0  0  3  0  0  0  0  0  0
   -1.2490  -11.6320  -22.2780 C   0  0  0  0  0  0  0  0  0  0  0  0
   -0.1350  -12.3970  -21.9300 C   0  0  0  0  0  3  0  0  0  0  0  0
    0.8380  -12.6900  -22.8930 C   0  0  0  0  0  3  0  0  0  0  0  0
    1.3950  -12.7820  -26.5540 C   0  0  0  0  0  1  0  0  0  0  0  0
    1.7230  -12.4960  -25.1620 N   0  0  0  0  0  0  0  0  0  0  0  0
    3.1070  -12.6870  -24.7460 C   0  0  0  0  0  1  0  0  0  0  0  0
   -0.8210   -7.9390  -25.4110 C   0  0  0  0  0  2  0  0  0  0  0  0
    0.5810   -8.3100  -25.5290 N   0  0  0  0  0  0  0  0  0  0  0  0
    0.8720   -9.2080  -25.1820 H   0  0  0  0  0  0  0  0  0  0  0  0
    1.3750   -7.6130  -26.4300 C   0  0  0  0  0  0  0  0  0  0  0  0
    0.8230   -6.5280  -27.0050 N   0  0  0  0  0  0  0  0  0  0  0  0
    1.3970   -6.0820  -28.1200 C   0  0  0  0  0  3  0  0  0  0  0  0
    2.4030   -6.6750  -28.7620 N   0  0  0  0  0  0  0  0  0  0  0  0
    2.9880   -7.7300  -28.1620 C   0  0  0  0  0  0  0  0  0  0  0  0
    4.0140   -8.4500  -28.7820 C   0  0  0  0  0  0  0  0  0  0  0  0
    4.7210   -9.4820  -28.1500 C   0  0  0  0  0  3  0  0  0  0  0  0
    4.3610   -9.8640  -26.8690 C   0  0  0  0  0  3  0  0  0  0  0  0
    3.2640   -9.2520  -26.2680 C   0  0  0  0  0  3  0  0  0  0  0  0
    2.5610   -8.1970  -26.9120 C   0  0  0  0  0  0  0  0  0  0  0  0
    4.2750   -8.2600  -30.2170 C   0  0  0  0  0  0  0  0  0  0  0  0
    4.6620   -6.9920  -30.5600 N   0  0  0  0  0  0  0  0  0  0  0  0
    4.0550   -9.1340  -31.0420 O   0  0  0  0  0  0  0  0  0  0  0  0
    4.8240   -6.7860  -31.5360 H   0  0  0  0  0  0  0  0  0  0  0  0
    4.8050   -6.2610  -29.8760 H   0  0  0  0  0  0  0  0  0  0  0  0
  1  2  1  0  0  0  0
  1  9  1  0  0  0  0
  3  2  2  0  0  0  0
  4  3  1  0  0  0  0
  5  4  2  0  0  0  0
  5  6  1  0  0  0  0
  6  1  2  0  0  0  0
  7  9  1  0  0  0  0
  7  8  2  0  0  0  0
  9 10  1  0  0  0  0
 11 16  1  0  0  0  0
 12 11  2  0  0  0  0
 12 13  1  0  0  0  0
 13 14  2  0  0  0  0
 14 15  1  0  0  0  0
 14  7  1  0  0  0  0
 16 15  2  0  0  0  0
 17 18  1  0  0  0  0
 18 19  1  0  0  0  0
 18 11  1  0  0  0  0
 20  5  1  0  0  0  0
 21 20  1  0  0  0  0
 21 22  1  0  0  0  0
 23 21  1  0  0  0  0
 24 23  2  0  0  0  0
 25 24  1  0  0  0  0
 26 27  1  0  0  0  0
 26 25  2  0  0  0  0
 27 32  1  0  0  0  0
 28 27  2  0  0  0  0
 28 29  1  0  0  0  0
 29 30  2  0  0  0  0
 30 31  1  0  0  0  0
 32 23  1  0  0  0  0
 32 31  2  0  0  0  0
 33 28  1  0  0  0  0
 34 33  1  0  0  0  0
 34 37  1  0  0  0  0
 35 33  2  0  0  0  0
 36 34  1  0  0  0  0
M  END
>  <minimizedAffinity>
-7.51353884

$$$$
