
 OpenBabel10152419483D

 37 40  0  0  0  0  0  0  0  0999 V2000
   -0.5860   -5.7070  -25.6900 C   0  0  0  0  0  0  0  0  0  0  0  0
   -0.2040   -5.1240  -24.4810 C   0  0  0  0  0  3  0  0  0  0  0  0
   -0.4970   -5.7630  -23.2810 C   0  0  0  0  0  3  0  0  0  0  0  0
   -1.1450   -6.9990  -23.2930 C   0  0  0  0  0  3  0  0  0  0  0  0
   -1.4370   -7.6620  -24.4950 C   0  0  0  0  0  0  0  0  0  0  0  0
   -1.1300   -7.0000  -25.6930 C   0  0  0  0  0  3  0  0  0  0  0  0
    0.6060   -4.8860  -27.7580 C   0  0  0  0  0  0  0  0  0  0  0  0
    0.6660   -3.9880  -28.5950 O   0  0  0  0  0  0  0  0  0  0  0  0
   -0.4340   -4.9300  -26.8520 N   0  0  0  0  0  0  0  0  0  0  0  0
   -1.2140   -4.3420  -27.1280 H   0  0  0  0  0  0  0  0  0  0  0  0
    3.3390   -8.2270  -27.8980 C   0  0  0  0  0  0  0  0  0  0  0  0
    2.6290   -7.8870  -26.7300 C   0  0  0  0  0  3  0  0  0  0  0  0
    1.7780   -6.7740  -26.6670 C   0  0  0  0  0  3  0  0  0  0  0  0
    1.6180   -5.9670  -27.7870 C   0  0  0  0  0  0  0  0  0  0  0  0
    2.3880   -6.2100  -28.9260 C   0  0  0  0  0  3  0  0  0  0  0  0
    3.2200   -7.3350  -28.9780 C   0  0  0  0  0  3  0  0  0  0  0  0
    4.7220   -9.9570  -26.7900 C   0  0  0  0  0  1  0  0  0  0  0  0
    4.1110   -9.3800  -27.9820 N   0  0  0  0  0  0  0  0  0  0  0  0
    4.5220   -9.9170  -29.2740 C   0  0  0  0  0  1  0  0  0  0  0  0
   -2.1390   -9.0130  -24.5170 C   0  0  0  0  0  2  0  0  0  0  0  0
   -1.9650   -9.7490  -23.2740 N   0  0  0  0  0  0  0  0  0  0  0  0
   -2.6000   -9.5670  -22.5150 H   0  0  0  0  0  0  0  0  0  0  0  0
   -1.2100  -10.9140  -23.2970 C   0  0  0  0  0  0  0  0  0  0  0  0
   -1.1140  -11.5910  -22.1380 N   0  0  0  0  0  0  0  0  0  0  0  0
   -0.1170  -12.4680  -22.0360 C   0  0  0  0  0  3  0  0  0  0  0  0
    0.8420  -12.6560  -22.9420 N   0  0  0  0  0  0  0  0  0  0  0  0
    0.7180  -12.0180  -24.1210 C   0  0  0  0  0  0  0  0  0  0  0  0
    1.7000  -12.1090  -25.1130 C   0  0  0  0  0  0  0  0  0  0  0  0
    1.5600  -11.5500  -26.3900 C   0  0  0  0  0  3  0  0  0  0  0  0
    0.4250  -10.8160  -26.6870 C   0  0  0  0  0  3  0  0  0  0  0  0
   -0.5170  -10.6000  -25.6850 C   0  0  0  0  0  3  0  0  0  0  0  0
   -0.3730  -11.1820  -24.3960 C   0  0  0  0  0  0  0  0  0  0  0  0
    3.0230  -12.6610  -24.7800 C   0  0  0  0  0  0  0  0  0  0  0  0
    3.3040  -12.6900  -23.4400 N   0  0  0  0  0  0  0  0  0  0  0  0
    3.8400  -12.9590  -25.6380 O   0  0  0  0  0  0  0  0  0  0  0  0
    4.2120  -13.0260  -23.1460 H   0  0  0  0  0  0  0  0  0  0  0  0
    2.6380  -12.4040  -22.7360 H   0  0  0  0  0  0  0  0  0  0  0  0
  1  2  1  0  0  0  0
  2  3  2  0  0  0  0
  4  3  1  0  0  0  0
  5  4  2  0  0  0  0
  6  1  2  0  0  0  0
  6  5  1  0  0  0  0
  7  9  1  0  0  0  0
  8  7  2  0  0  0  0
  9  1  1  0  0  0  0
 10  9  1  0  0  0  0
 11 12  1  0  0  0  0
 12 13  2  0  0  0  0
 14  7  1  0  0  0  0
 14 13  1  0  0  0  0
 15 14  2  0  0  0  0
 16 15  1  0  0  0  0
 16 11  2  0  0  0  0
 18 11  1  0  0  0  0
 18 17  1  0  0  0  0
 19 18  1  0  0  0  0
 20  5  1  0  0  0  0
 20 21  1  0  0  0  0
 21 22  1  0  0  0  0
 23 21  1  0  0  0  0
 23 24  1  0  0  0  0
 24 25  2  0  0  0  0
 26 25  1  0  0  0  0
 27 26  2  0  0  0  0
 28 33  1  0  0  0  0
 28 27  1  0  0  0  0
 29 28  2  0  0  0  0
 30 29  1  0  0  0  0
 30 31  2  0  0  0  0
 31 32  1  0  0  0  0
 32 27  1  0  0  0  0
 32 23  2  0  0  0  0
 33 34  1  0  0  0  0
 34 36  1  0  0  0  0
 34 37  1  0  0  0  0
 35 33  2  0  0  0  0
M  END
>  <minimizedAffinity>
-7.78336906

$$$$
