
 OpenBabel10152418363D

 41 44  0  0  1  0  0  0  0  0999 V2000
   -1.1810   -9.0810  -23.2010 C   0  0  2  0  0  3  0  0  0  0  0  0
   -0.6830  -10.1330  -24.2030 C   0  0  0  0  0  0  0  0  0  0  0  0
   -1.4420  -10.3900  -25.3590 C   0  0  0  0  0  3  0  0  0  0  0  0
   -1.0000  -11.2900  -26.3320 C   0  0  0  0  0  3  0  0  0  0  0  0
    0.2590  -11.8800  -26.2300 C   0  0  0  0  0  3  0  0  0  0  0  0
    1.0790  -11.5800  -25.1540 C   0  0  0  0  0  0  0  0  0  0  0  0
    0.5480  -10.8020  -24.1090 C   0  0  0  0  0  3  0  0  0  0  0  0
    2.4350  -11.9280  -25.0210 N   0  0  0  0  0  0  0  0  0  0  0  0
    3.6060  -11.5260  -25.6140 C   0  0  0  0  0  0  0  0  0  0  0  0
    4.6640  -12.0390  -25.2500 O   0  0  0  0  0  0  0  0  0  0  0  0
    2.6560  -12.5990  -24.2930 H   0  0  0  0  0  0  0  0  0  0  0  0
    3.6600  -10.5360  -26.6950 C   0  0  0  0  0  0  0  0  0  0  0  0
    3.4790   -9.1930  -26.3480 C   0  0  0  0  0  3  0  0  0  0  0  0
    3.5280   -8.2110  -27.3360 C   0  0  0  0  0  3  0  0  0  0  0  0
    3.7430   -8.5800  -28.6640 C   0  0  0  0  0  0  0  0  0  0  0  0
    3.8540   -7.2420  -29.9940 Br  0  0  0  0  0  0  0  0  0  0  0  0
    3.8790   -9.9240  -29.0190 C   0  0  0  0  0  3  0  0  0  0  0  0
    3.8190  -10.9140  -28.0330 C   0  0  0  0  0  3  0  0  0  0  0  0
   -0.5090   -7.7850  -23.1860 N   0  0  0  0  0  0  0  0  0  0  0  0
    0.5080   -7.8180  -23.1070 H   0  0  0  0  0  0  0  0  0  0  0  0
   -0.7340   -6.6360  -23.9040 C   0  0  0  0  0  0  0  0  0  0  0  0
   -1.0580   -5.6480  -23.0540 N   0  0  0  0  0  0  0  0  0  0  0  0
   -1.0300   -4.4080  -23.5320 C   0  0  0  0  0  3  0  0  0  0  0  0
   -0.6620   -4.0700  -24.7670 N   0  0  0  0  0  0  0  0  0  0  0  0
   -0.4190   -5.0570  -25.6550 C   0  0  0  0  0  0  0  0  0  0  0  0
   -0.0230   -4.7720  -26.9730 C   0  0  0  0  0  0  0  0  0  0  0  0
    0.1590   -5.7970  -27.9170 C   0  0  0  0  0  3  0  0  0  0  0  0
   -0.0250   -7.1230  -27.5610 C   0  0  0  0  0  3  0  0  0  0  0  0
   -0.3490   -7.4300  -26.2450 C   0  0  0  0  0  3  0  0  0  0  0  0
   -0.5210   -6.4130  -25.2740 C   0  0  0  0  0  0  0  0  0  0  0  0
    0.2900   -3.3900  -27.4520 C   0  0  0  0  0  0  0  0  0  0  0  0
   -0.5480   -2.3750  -27.0960 N   0  0  0  0  0  0  0  0  0  0  0  0
    1.3030   -3.1610  -28.1070 O   0  0  0  0  0  0  0  0  0  0  0  0
   -0.3080   -1.4300  -27.3620 H   0  0  0  0  0  0  0  0  0  0  0  0
   -1.4170   -2.5470  -26.6060 H   0  0  0  0  0  0  0  0  0  0  0  0
   -1.1070   -9.6450  -21.7540 C   0  0  0  0  0  2  0  0  0  0  0  0
   -2.3870  -10.2920  -21.2210 C   0  0  0  0  0  2  0  0  0  0  0  0
   -0.8330  -12.0230  -20.2030 C   0  0  0  0  0  1  0  0  0  0  0  0
   -2.2100  -11.7120  -20.7240 N   0  0  0  0  0  4  0  0  0  0  0  0
   -3.2530  -12.0360  -19.6760 C   0  0  0  0  0  1  0  0  0  0  0  0
   -2.4080  -12.3480  -21.5090 H   0  0  0  0  0  0  0  0  0  0  0  0
  1 19  1  0  0  0  0
  1 36  1  1  0  0  0
  2  7  1  0  0  0  0
  2  1  1  0  0  0  0
  3  2  2  0  0  0  0
  4  5  2  0  0  0  0
  4  3  1  0  0  0  0
  5  6  1  0  0  0  0
  6  8  1  0  0  0  0
  6  7  2  0  0  0  0
  8 11  1  0  0  0  0
  9 10  2  0  0  0  0
  9  8  1  0  0  0  0
 12 13  1  0  0  0  0
 12  9  1  0  0  0  0
 14 13  2  0  0  0  0
 15 14  1  0  0  0  0
 16 15  1  0  0  0  0
 17 15  2  0  0  0  0
 17 18  1  0  0  0  0
 18 12  2  0  0  0  0
 19 20  1  0  0  0  0
 21 19  1  0  0  0  0
 21 22  1  0  0  0  0
 23 22  2  0  0  0  0
 24 23  1  0  0  0  0
 25 30  1  0  0  0  0
 25 24  2  0  0  0  0
 26 25  1  0  0  0  0
 27 28  1  0  0  0  0
 27 26  2  0  0  0  0
 28 29  2  0  0  0  0
 29 30  1  0  0  0  0
 30 21  2  0  0  0  0
 31 32  1  0  0  0  0
 31 26  1  0  0  0  0
 32 35  1  0  0  0  0
 33 31  2  0  0  0  0
 34 32  1  0  0  0  0
 36 37  1  0  0  0  0
 37 39  1  0  0  0  0
 39 38  1  0  0  0  0
 39 40  1  0  0  0  0
 41 39  1  0  0  0  0
M  END
>  <minimizedAffinity>
-7.51969624

$$$$
