
 OpenBabel11232420123D

 37 41  0  0  1  0  0  0  0  0999 V2000
    0.0090    5.9400   -6.4880 C   0  0  2  0  0  3  0  0  0  0  0  0
    1.0320    5.3530   -7.0880 N   0  0  0  0  0  2  0  0  0  0  0  0
    1.9690    6.3200   -7.3420 C   0  0  2  0  0  3  0  0  0  0  0  0
    1.4420    7.5500   -7.0320 C   0  0  0  0  0  2  0  0  0  0  0  0
    0.1490    7.3060   -6.6240 N   0  0  0  0  0  0  0  0  0  0  0  0
    3.2850    6.0400   -7.8920 C   0  0  0  0  0  0  0  0  0  0  0  0
    4.2500    7.0560   -7.9100 C   0  0  0  0  0  3  0  0  0  0  0  0
    5.5270    6.8180   -8.4220 C   0  0  0  0  0  3  0  0  0  0  0  0
    5.8390    5.5630   -8.9310 C   0  0  0  0  0  0  0  0  0  0  0  0
    7.0710    5.3460   -9.4110 F   0  0  0  0  0  0  0  0  0  0  0  0
    4.8930    4.5360   -8.9530 C   0  0  0  0  0  0  0  0  0  0  0  0
    5.2580    3.1920   -9.5060 C   0  0  0  0  0  1  0  0  0  0  0  0
    3.6180    4.7800   -8.4180 C   0  0  0  0  0  3  0  0  0  0  0  0
   -3.4990    3.5540   -5.6030 N   0  0  0  0  0  0  0  0  0  0  0  0
   -3.5760    4.9990   -5.4060 C   0  0  0  0  0  2  0  0  0  0  0  0
   -2.4420    5.7320   -6.1190 C   0  0  0  0  0  2  0  0  0  0  0  0
   -1.0620    5.1120   -5.8030 C   0  0  1  0  0  3  0  0  0  0  0  0
   -1.0940    3.6100   -6.0840 C   0  0  0  0  0  2  0  0  0  0  0  0
   -2.2210    2.9270   -5.3040 C   0  0  0  0  0  2  0  0  0  0  0  0
   -5.4010    2.3660   -6.5340 C   0  0  0  0  0  0  0  0  0  0  0  0
   -5.9960    1.8940   -7.7010 C   0  0  0  0  0  0  0  0  0  0  0  0
   -7.1960    1.2060   -7.6960 N   0  0  0  0  0  0  0  0  0  0  0  0
   -5.4390    2.0270   -8.9080 N   0  0  0  0  0  0  0  0  0  0  0  0
   -4.2850    2.6920   -8.9550 C   0  0  0  0  0  3  0  0  0  0  0  0
   -3.6260    3.2020   -7.9110 N   0  0  0  0  0  0  0  0  0  0  0  0
   -4.1870    3.0350   -6.7000 C   0  0  0  0  0  0  0  0  0  0  0  0
   -7.4710    0.9230   -8.6290 H   0  0  0  0  0  0  0  0  0  0  0  0
   -7.9370    1.5600   -7.1100 H   0  0  0  0  0  0  0  0  0  0  0  0
   -6.8050    3.4400   -4.7210 C   0  0  0  0  0  1  0  0  0  0  0  0
   -6.0570    2.1980   -5.1860 C   0  0  0  0  0  2  0  0  0  0  0  0
   -0.8400    8.3680   -6.5660 C   0  0  0  0  0  2  0  0  0  0  0  0
   -0.8470    9.1400   -5.2490 C   0  0  0  0  0  3  0  0  0  0  0  0
   -1.2560    8.4120   -3.9470 C   0  0  0  0  0  2  0  0  0  0  0  0
   -0.2340    9.2040   -3.2360 N   0  0  0  0  0  4  0  0  0  0  0  0
    0.5800    8.3500   -2.3320 C   0  0  0  0  0  1  0  0  0  0  0  0
    0.4700    9.4610   -4.5060 C   0  0  0  0  0  2  0  0  0  0  0  0
   -0.6000   10.0490   -2.7790 H   0  0  0  0  0  0  0  0  0  0  0  0
  1  2  1  1  0  0  0
  1 17  1  0  0  0  0
  3  6  1  6  0  0  0
  3  2  1  0  0  0  0
  3  4  1  0  0  0  0
  4  5  1  0  0  0  0
  5 31  1  0  0  0  0
  5  1  1  0  0  0  0
  7  6  1  0  0  0  0
  8  7  2  0  0  0  0
  9  8  1  0  0  0  0
 10  9  1  0  0  0  0
 11  9  2  0  0  0  0
 11 13  1  0  0  0  0
 12 11  1  0  0  0  0
 13  6  2  0  0  0  0
 14 15  1  0  0  0  0
 14 19  1  0  0  0  0
 16 15  1  0  0  0  0
 17 16  1  6  0  0  0
 18 17  1  0  0  0  0
 18 19  1  0  0  0  0
 20 30  1  0  0  0  0
 21 22  1  0  0  0  0
 21 20  2  0  0  0  0
 22 28  1  0  0  0  0
 23 21  1  0  0  0  0
 24 23  2  0  0  0  0
 24 25  1  0  0  0  0
 25 26  2  0  0  0  0
 26 20  1  0  0  0  0
 26 14  1  0  0  0  0
 27 22  1  0  0  0  0
 30 29  1  0  0  0  0
 31 32  1  0  0  0  0
 32 36  1  0  0  0  0
 32 33  1  0  0  0  0
 33 34  1  0  0  0  0
 34 37  1  0  0  0  0
 34 35  1  0  0  0  0
 36 34  1  0  0  0  0
M  END
>  <minimizedAffinity>
-8.84987831

$$$$
