
 OpenBabel11232420123D

 37 41  0  0  1  0  0  0  0  0999 V2000
    0.4180    5.5700   -6.7700 C   0  0  2  0  0  3  0  0  0  0  0  0
    1.1150    6.5020   -6.1390 N   0  0  0  0  0  2  0  0  0  0  0  0
    2.2420    6.7430   -6.8790 C   0  0  2  0  0  3  0  0  0  0  0  0
    2.3140    5.8290   -7.9010 C   0  0  0  0  0  2  0  0  0  0  0  0
    1.2250    5.0030   -7.7360 N   0  0  0  0  0  0  0  0  0  0  0  0
    3.2020    7.7890   -6.5650 C   0  0  0  0  0  0  0  0  0  0  0  0
    3.2610    8.2950   -5.2590 C   0  0  0  0  0  3  0  0  0  0  0  0
    4.1790    9.2920   -4.9210 C   0  0  0  0  0  3  0  0  0  0  0  0
    5.0330    9.7970   -5.8950 C   0  0  0  0  0  0  0  0  0  0  0  0
    5.9130   10.7470   -5.5540 F   0  0  0  0  0  0  0  0  0  0  0  0
    4.9820    9.3350   -7.2110 C   0  0  0  0  0  0  0  0  0  0  0  0
    5.9170    9.8960   -8.2400 C   0  0  0  0  0  1  0  0  0  0  0  0
    4.0690    8.3180   -7.5360 C   0  0  0  0  0  3  0  0  0  0  0  0
   -3.6270    4.0300   -6.5580 N   0  0  0  0  0  0  0  0  0  0  0  0
   -3.3900    5.2560   -7.3170 C   0  0  0  0  0  2  0  0  0  0  0  0
   -1.9100    5.4510   -7.6350 C   0  0  0  0  0  2  0  0  0  0  0  0
   -1.0210    5.2880   -6.3820 C   0  0  1  0  0  3  0  0  0  0  0  0
   -1.3300    3.9560   -5.6990 C   0  0  0  0  0  2  0  0  0  0  0  0
   -2.8200    3.8430   -5.3630 C   0  0  0  0  0  2  0  0  0  0  0  0
   -5.1150    2.2170   -7.1890 C   0  0  0  0  0  0  0  0  0  0  0  0
   -5.2620    1.0810   -7.9780 C   0  0  0  0  0  0  0  0  0  0  0  0
   -6.4160    0.3170   -7.9720 N   0  0  0  0  0  0  0  0  0  0  0  0
   -4.2930    0.6100   -8.7690 N   0  0  0  0  0  0  0  0  0  0  0  0
   -3.1680    1.3240   -8.8090 C   0  0  0  0  0  3  0  0  0  0  0  0
   -2.9130    2.4340   -8.1110 N   0  0  0  0  0  0  0  0  0  0  0  0
   -3.8900    2.8780   -7.3000 C   0  0  0  0  0  0  0  0  0  0  0  0
   -6.3430   -0.4810   -8.5910 H   0  0  0  0  0  0  0  0  0  0  0  0
   -7.3000    0.8040   -7.9870 H   0  0  0  0  0  0  0  0  0  0  0  0
   -6.1530    2.1930   -4.8790 C   0  0  0  0  0  1  0  0  0  0  0  0
   -6.2300    2.7200   -6.3060 C   0  0  0  0  0  2  0  0  0  0  0  0
    1.1500    3.7070   -8.3870 C   0  0  0  0  0  2  0  0  0  0  0  0
    2.5100    3.0810   -8.6850 C   0  0  0  0  0  3  0  0  0  0  0  0
    3.1550    3.2970  -10.0740 C   0  0  0  0  0  2  0  0  0  0  0  0
    4.4680    3.3690   -9.4030 N   0  0  0  0  0  4  0  0  0  0  0  0
    5.2700    4.5140   -9.9080 C   0  0  0  0  0  1  0  0  0  0  0  0
    3.8110    3.6990   -8.1240 C   0  0  0  0  0  2  0  0  0  0  0  0
    4.9840    2.4810   -9.3950 H   0  0  0  0  0  0  0  0  0  0  0  0
  1 17  1  0  0  0  0
  1  2  1  6  0  0  0
  3  6  1  1  0  0  0
  3  2  1  0  0  0  0
  4  5  1  0  0  0  0
  4  3  1  0  0  0  0
  5  1  1  0  0  0  0
  6  7  1  0  0  0  0
  7  8  2  0  0  0  0
  9 10  1  0  0  0  0
  9  8  1  0  0  0  0
 11  9  2  0  0  0  0
 12 11  1  0  0  0  0
 13 11  1  0  0  0  0
 13  6  2  0  0  0  0
 14 19  1  0  0  0  0
 15 14  1  0  0  0  0
 16 15  1  0  0  0  0
 17 16  1  6  0  0  0
 17 18  1  0  0  0  0
 18 19  1  0  0  0  0
 20 30  1  0  0  0  0
 21 22  1  0  0  0  0
 21 20  2  0  0  0  0
 23 21  1  0  0  0  0
 24 23  2  0  0  0  0
 24 25  1  0  0  0  0
 25 26  2  0  0  0  0
 26 20  1  0  0  0  0
 26 14  1  0  0  0  0
 27 22  1  0  0  0  0
 28 22  1  0  0  0  0
 30 29  1  0  0  0  0
 31  5  1  0  0  0  0
 32 31  1  0  0  0  0
 32 36  1  0  0  0  0
 33 34  1  0  0  0  0
 33 32  1  0  0  0  0
 34 37  1  0  0  0  0
 34 36  1  0  0  0  0
 35 34  1  0  0  0  0
M  END
>  <minimizedAffinity>
-8.25969696

$$$$
