
 OpenBabel11232420123D

 37 41  0  0  1  0  0  0  0  0999 V2000
    0.7610    5.4070   -7.3020 C   0  0  2  0  0  3  0  0  0  0  0  0
    0.6950    6.1680   -6.2210 N   0  0  0  0  0  2  0  0  0  0  0  0
    1.8580    6.8890   -6.1550 C   0  0  2  0  0  3  0  0  0  0  0  0
    2.7190    6.4450   -7.1280 C   0  0  0  0  0  2  0  0  0  0  0  0
    2.0630    5.4100   -7.7570 N   0  0  0  0  0  0  0  0  0  0  0  0
    2.1090    7.9220   -5.1640 C   0  0  0  0  0  0  0  0  0  0  0  0
    1.0690    8.3210   -4.3120 C   0  0  0  0  0  3  0  0  0  0  0  0
    1.2790    9.3030   -3.3420 C   0  0  0  0  0  3  0  0  0  0  0  0
    2.5290    9.9010   -3.2300 C   0  0  0  0  0  0  0  0  0  0  0  0
    2.7180   10.8360   -2.2890 F   0  0  0  0  0  0  0  0  0  0  0  0
    3.5780    9.5470   -4.0800 C   0  0  0  0  0  0  0  0  0  0  0  0
    4.9170   10.2060   -3.9340 C   0  0  0  0  0  1  0  0  0  0  0  0
    3.3630    8.5440   -5.0390 C   0  0  0  0  0  3  0  0  0  0  0  0
   -3.1010    3.4820   -7.7040 N   0  0  0  0  0  0  0  0  0  0  0  0
   -1.9230    2.6400   -7.5090 C   0  0  0  0  0  2  0  0  0  0  0  0
   -0.7300    3.4410   -6.9940 C   0  0  0  0  0  2  0  0  0  0  0  0
   -0.4800    4.7140   -7.8330 C   0  0  1  0  0  3  0  0  0  0  0  0
   -1.7680    5.5290   -7.9320 C   0  0  0  0  0  2  0  0  0  0  0  0
   -2.9130    4.6850   -8.5000 C   0  0  0  0  0  2  0  0  0  0  0  0
   -5.0470    2.7300   -6.4600 C   0  0  0  0  0  0  0  0  0  0  0  0
   -5.8410    2.9470   -5.3380 C   0  0  0  0  0  0  0  0  0  0  0  0
   -6.9490    2.1690   -5.0510 N   0  0  0  0  0  0  0  0  0  0  0  0
   -5.6280    3.9450   -4.4750 N   0  0  0  0  0  0  0  0  0  0  0  0
   -4.5640    4.7120   -4.7130 C   0  0  0  0  0  3  0  0  0  0  0  0
   -3.7220    4.5960   -5.7440 N   0  0  0  0  0  0  0  0  0  0  0  0
   -3.9680    3.6030   -6.6170 C   0  0  0  0  0  0  0  0  0  0  0  0
   -7.4180    2.4790   -4.2090 H   0  0  0  0  0  0  0  0  0  0  0  0
   -6.8610    1.1700   -5.1620 H   0  0  0  0  0  0  0  0  0  0  0  0
   -6.2020    1.9930   -8.5900 C   0  0  0  0  0  1  0  0  0  0  0  0
   -5.3170    1.5940   -7.4160 C   0  0  0  0  0  2  0  0  0  0  0  0
    2.7760    4.4530   -8.5870 C   0  0  0  0  0  2  0  0  0  0  0  0
    4.2080    4.1820   -8.1330 C   0  0  0  0  0  3  0  0  0  0  0  0
    4.7380    2.7290   -8.1280 C   0  0  0  0  0  2  0  0  0  0  0  0
    6.0500    3.2530   -8.5570 N   0  0  0  0  0  4  0  0  0  0  0  0
    6.6170    2.4470   -9.6690 C   0  0  0  0  0  1  0  0  0  0  0  0
    5.4080    4.4830   -9.0600 C   0  0  0  0  0  2  0  0  0  0  0  0
    6.7120    3.4090   -7.7860 H   0  0  0  0  0  0  0  0  0  0  0  0
  1  2  1  6  0  0  0
  2  3  1  0  0  0  0
  3  6  1  1  0  0  0
  4  3  1  0  0  0  0
  5  1  1  0  0  0  0
  5  4  1  0  0  0  0
  6 13  2  0  0  0  0
  6  7  1  0  0  0  0
  7  8  2  0  0  0  0
  8  9  1  0  0  0  0
  9 10  1  0  0  0  0
 11 12  1  0  0  0  0
 11  9  2  0  0  0  0
 13 11  1  0  0  0  0
 14 15  1  0  0  0  0
 14 26  1  0  0  0  0
 15 16  1  0  0  0  0
 17 18  1  1  0  0  0
 17  1  1  0  0  0  0
 17 16  1  0  0  0  0
 19 18  1  0  0  0  0
 19 14  1  0  0  0  0
 20 21  1  0  0  0  0
 21 22  1  0  0  0  0
 21 23  2  0  0  0  0
 22 27  1  0  0  0  0
 24 23  1  0  0  0  0
 25 24  2  0  0  0  0
 26 20  2  0  0  0  0
 26 25  1  0  0  0  0
 28 22  1  0  0  0  0
 29 30  1  0  0  0  0
 30 20  1  0  0  0  0
 31 32  1  0  0  0  0
 31  5  1  0  0  0  0
 32 33  1  0  0  0  0
 34 33  1  0  0  0  0
 34 37  1  0  0  0  0
 35 34  1  0  0  0  0
 36 34  1  0  0  0  0
 36 32  1  0  0  0  0
M  END
>  <minimizedAffinity>
-10.3659258

$$$$
