
 OpenBabel11232420123D

 37 41  0  0  1  0  0  0  0  0999 V2000
   -1.7610    5.7530   -5.6790 C   0  0  2  0  0  3  0  0  0  0  0  0
   -3.0480    5.4580   -5.5840 N   0  0  0  0  0  2  0  0  0  0  0  0
   -3.1780    4.1120   -5.8030 C   0  0  2  0  0  3  0  0  0  0  0  0
   -1.9650    3.6000   -6.1940 C   0  0  0  0  0  2  0  0  0  0  0  0
   -1.1090    4.6780   -6.2470 N   0  0  0  0  0  0  0  0  0  0  0  0
   -4.4340    3.3920   -5.6680 C   0  0  0  0  0  0  0  0  0  0  0  0
   -5.2670    3.6670   -4.5740 C   0  0  0  0  0  3  0  0  0  0  0  0
   -6.4850    3.0020   -4.4210 C   0  0  0  0  0  3  0  0  0  0  0  0
   -6.8680    2.0480   -5.3570 C   0  0  0  0  0  0  0  0  0  0  0  0
   -8.0430    1.4240   -5.2010 F   0  0  0  0  0  0  0  0  0  0  0  0
   -6.0500    1.7300   -6.4430 C   0  0  0  0  0  0  0  0  0  0  0  0
   -6.4900    0.6990   -7.4370 C   0  0  0  0  0  1  0  0  0  0  0  0
   -4.8360    2.4190   -6.5990 C   0  0  0  0  0  3  0  0  0  0  0  0
    0.7550    9.0830   -4.5130 N   0  0  0  0  0  0  0  0  0  0  0  0
    0.3170    8.1490   -3.4780 C   0  0  0  0  0  2  0  0  0  0  0  0
   -0.2070    6.8450   -4.0740 C   0  0  0  0  0  2  0  0  0  0  0  0
   -1.2400    7.0940   -5.1950 C   0  0  1  0  0  3  0  0  0  0  0  0
   -0.6540    8.0500   -6.2340 C   0  0  0  0  0  2  0  0  0  0  0  0
   -0.1930    9.3560   -5.5810 C   0  0  0  0  0  2  0  0  0  0  0  0
    3.1160    9.2980   -3.9870 C   0  0  0  0  0  0  0  0  0  0  0  0
    4.4120    9.1890   -4.4800 C   0  0  0  0  0  0  0  0  0  0  0  0
    5.5270    9.4510   -3.7040 N   0  0  0  0  0  0  0  0  0  0  0  0
    4.6860    8.8680   -5.7480 N   0  0  0  0  0  0  0  0  0  0  0  0
    3.6380    8.5990   -6.5270 C   0  0  0  0  0  3  0  0  0  0  0  0
    2.3530    8.6560   -6.1660 N   0  0  0  0  0  0  0  0  0  0  0  0
    2.0950    9.0090   -4.8940 C   0  0  0  0  0  0  0  0  0  0  0  0
    6.3870    9.3390   -4.2280 H   0  0  0  0  0  0  0  0  0  0  0  0
    5.5390    9.0880   -2.7620 H   0  0  0  0  0  0  0  0  0  0  0  0
    3.1660   11.1190   -2.2270 C   0  0  0  0  0  1  0  0  0  0  0  0
    2.8430    9.6660   -2.5490 C   0  0  0  0  0  2  0  0  0  0  0  0
    0.1520    4.6100   -6.9650 C   0  0  0  0  0  2  0  0  0  0  0  0
    0.0150    4.1870   -8.4250 C   0  0  0  0  0  3  0  0  0  0  0  0
    0.2170    2.7020   -8.8050 C   0  0  0  0  0  2  0  0  0  0  0  0
   -0.8580    2.8580   -9.8050 N   0  0  0  0  0  4  0  0  0  0  0  0
   -1.8190    1.7260   -9.7470 C   0  0  0  0  0  1  0  0  0  0  0  0
   -1.3750    4.0360   -9.0840 C   0  0  0  0  0  2  0  0  0  0  0  0
   -0.5220    3.0600  -10.7550 H   0  0  0  0  0  0  0  0  0  0  0  0
  1  2  1  1  0  0  0
  1 17  1  0  0  0  0
  3  6  1  6  0  0  0
  3  2  1  0  0  0  0
  4  3  1  0  0  0  0
  5  4  1  0  0  0  0
  5  1  1  0  0  0  0
  6  7  1  0  0  0  0
  7  8  2  0  0  0  0
  9 10  1  0  0  0  0
  9  8  1  0  0  0  0
 11  9  2  0  0  0  0
 12 11  1  0  0  0  0
 13 11  1  0  0  0  0
 13  6  2  0  0  0  0
 14 15  1  0  0  0  0
 16 15  1  0  0  0  0
 17 18  1  6  0  0  0
 17 16  1  0  0  0  0
 18 19  1  0  0  0  0
 19 14  1  0  0  0  0
 20 30  1  0  0  0  0
 21 20  1  0  0  0  0
 21 22  1  0  0  0  0
 22 28  1  0  0  0  0
 23 21  2  0  0  0  0
 24 25  2  0  0  0  0
 24 23  1  0  0  0  0
 25 26  1  0  0  0  0
 26 14  1  0  0  0  0
 26 20  2  0  0  0  0
 27 22  1  0  0  0  0
 30 29  1  0  0  0  0
 31  5  1  0  0  0  0
 32 31  1  0  0  0  0
 33 32  1  0  0  0  0
 34 35  1  0  0  0  0
 34 36  1  0  0  0  0
 34 33  1  0  0  0  0
 36 32  1  0  0  0  0
 37 34  1  0  0  0  0
M  END
>  <minimizedAffinity>
-8.86794376

$$$$
