
 OpenBabel11232420123D

 37 41  0  0  1  0  0  0  0  0999 V2000
    0.7610    5.4070   -7.3020 C   0  0  2  0  0  3  0  0  0  0  0  0
    0.6950    6.1680   -6.2210 N   0  0  0  0  0  2  0  0  0  0  0  0
    1.8580    6.8890   -6.1550 C   0  0  2  0  0  3  0  0  0  0  0  0
    2.7190    6.4450   -7.1280 C   0  0  0  0  0  2  0  0  0  0  0  0
    2.0630    5.4100   -7.7570 N   0  0  0  0  0  0  0  0  0  0  0  0
    2.1090    7.9220   -5.1640 C   0  0  0  0  0  0  0  0  0  0  0  0
    1.0690    8.3210   -4.3120 C   0  0  0  0  0  3  0  0  0  0  0  0
    1.2790    9.3030   -3.3420 C   0  0  0  0  0  3  0  0  0  0  0  0
    2.5290    9.9010   -3.2300 C   0  0  0  0  0  0  0  0  0  0  0  0
    2.7180   10.8360   -2.2890 F   0  0  0  0  0  0  0  0  0  0  0  0
    3.5780    9.5470   -4.0800 C   0  0  0  0  0  0  0  0  0  0  0  0
    4.9170   10.2060   -3.9340 C   0  0  0  0  0  1  0  0  0  0  0  0
    3.3630    8.5440   -5.0390 C   0  0  0  0  0  3  0  0  0  0  0  0
   -3.1010    3.4820   -7.7040 N   0  0  0  0  0  0  0  0  0  0  0  0
   -1.9230    2.6400   -7.5090 C   0  0  0  0  0  2  0  0  0  0  0  0
   -0.7300    3.4410   -6.9940 C   0  0  0  0  0  2  0  0  0  0  0  0
   -0.4800    4.7140   -7.8330 C   0  0  1  0  0  3  0  0  0  0  0  0
   -1.7680    5.5290   -7.9320 C   0  0  0  0  0  2  0  0  0  0  0  0
   -2.9130    4.6850   -8.5000 C   0  0  0  0  0  2  0  0  0  0  0  0
   -5.0470    2.7300   -6.4600 C   0  0  0  0  0  0  0  0  0  0  0  0
   -5.8410    2.9470   -5.3380 C   0  0  0  0  0  0  0  0  0  0  0  0
   -6.9490    2.1690   -5.0510 N   0  0  0  0  0  0  0  0  0  0  0  0
   -5.6280    3.9450   -4.4750 N   0  0  0  0  0  0  0  0  0  0  0  0
   -4.5640    4.7120   -4.7130 C   0  0  0  0  0  3  0  0  0  0  0  0
   -3.7220    4.5960   -5.7440 N   0  0  0  0  0  0  0  0  0  0  0  0
   -3.9680    3.6030   -6.6170 C   0  0  0  0  0  0  0  0  0  0  0  0
   -7.4180    2.4790   -4.2090 H   0  0  0  0  0  0  0  0  0  0  0  0
   -6.8610    1.1700   -5.1620 H   0  0  0  0  0  0  0  0  0  0  0  0
   -6.2020    1.9930   -8.5900 C   0  0  0  0  0  1  0  0  0  0  0  0
   -5.3170    1.5940   -7.4160 C   0  0  0  0  0  2  0  0  0  0  0  0
    2.7760    4.4530   -8.5870 C   0  0  0  0  0  2  0  0  0  0  0  0
    4.2080    4.1820   -8.1330 C   0  0  0  0  0  3  0  0  0  0  0  0
    4.7380    2.7290   -8.1280 C   0  0  0  0  0  2  0  0  0  0  0  0
    6.0500    3.2530   -8.5570 N   0  0  0  0  0  4  0  0  0  0  0  0
    6.6170    2.4470   -9.6690 C   0  0  0  0  0  1  0  0  0  0  0  0
    5.4080    4.4830   -9.0600 C   0  0  0  0  0  2  0  0  0  0  0  0
    6.7120    3.4090   -7.7860 H   0  0  0  0  0  0  0  0  0  0  0  0
  1  2  1  6  0  0  0
  2  3  1  0  0  0  0
  3  6  1  1  0  0  0
  4  3  1  0  0  0  0
  5  1  1  0  0  0  0
  5  4  1  0  0  0  0
  6 13  2  0  0  0  0
  6  7  1  0  0  0  0
  7  8  2  0  0  0  0
  8  9  1  0  0  0  0
  9 10  1  0  0  0  0
 11 12  1  0  0  0  0
 11  9  2  0  0  0  0
 13 11  1  0  0  0  0
 14 15  1  0  0  0  0
 14 26  1  0  0  0  0
 15 16  1  0  0  0  0
 17 18  1  1  0  0  0
 17  1  1  0  0  0  0
 17 16  1  0  0  0  0
 19 18  1  0  0  0  0
 19 14  1  0  0  0  0
 20 21  1  0  0  0  0
 21 22  1  0  0  0  0
 21 23  2  0  0  0  0
 22 27  1  0  0  0  0
 24 23  1  0  0  0  0
 25 24  2  0  0  0  0
 26 20  2  0  0  0  0
 26 25  1  0  0  0  0
 28 22  1  0  0  0  0
 29 30  1  0  0  0  0
 30 20  1  0  0  0  0
 31 32  1  0  0  0  0
 31  5  1  0  0  0  0
 32 33  1  0  0  0  0
 34 33  1  0  0  0  0
 34 37  1  0  0  0  0
 35 34  1  0  0  0  0
 36 34  1  0  0  0  0
 36 32  1  0  0  0  0
M  END
>  <minimizedAffinity>
-10.3659258

$$$$

 OpenBabel11232420123D

 37 41  0  0  1  0  0  0  0  0999 V2000
   -0.0970    5.5460   -7.2110 C   0  0  2  0  0  3  0  0  0  0  0  0
    1.1520    5.4660   -7.6430 N   0  0  0  0  0  2  0  0  0  0  0  0
    1.8910    6.3740   -6.9300 C   0  0  2  0  0  3  0  0  0  0  0  0
    1.0480    7.1340   -6.1570 C   0  0  0  0  0  2  0  0  0  0  0  0
   -0.2230    6.6910   -6.4520 N   0  0  0  0  0  0  0  0  0  0  0  0
    3.3350    6.5000   -7.0420 C   0  0  0  0  0  0  0  0  0  0  0  0
    4.0110    7.3990   -6.2040 C   0  0  0  0  0  3  0  0  0  0  0  0
    5.3980    7.5370   -6.2780 C   0  0  0  0  0  3  0  0  0  0  0  0
    6.1140    6.7850   -7.2010 C   0  0  0  0  0  0  0  0  0  0  0  0
    7.4460    6.9220   -7.2550 F   0  0  0  0  0  0  0  0  0  0  0  0
    5.4700    5.9000   -8.0690 C   0  0  0  0  0  0  0  0  0  0  0  0
    6.2680    5.1000   -9.0530 C   0  0  0  0  0  1  0  0  0  0  0  0
    4.0770    5.7540   -7.9730 C   0  0  0  0  0  3  0  0  0  0  0  0
   -3.4210    2.7650   -7.2090 N   0  0  0  0  0  0  0  0  0  0  0  0
   -2.1220    2.2940   -6.7330 C   0  0  0  0  0  2  0  0  0  0  0  0
   -1.1780    3.4520   -6.4180 C   0  0  0  0  0  2  0  0  0  0  0  0
   -1.1070    4.4740   -7.5740 C   0  0  1  0  0  3  0  0  0  0  0  0
   -2.5180    4.9210   -7.9550 C   0  0  0  0  0  2  0  0  0  0  0  0
   -3.4010    3.7190   -8.3070 C   0  0  0  0  0  2  0  0  0  0  0  0
   -5.5940    2.2480   -6.2560 C   0  0  0  0  0  0  0  0  0  0  0  0
   -6.4960    2.5430   -5.2390 C   0  0  0  0  0  0  0  0  0  0  0  0
   -7.7210    1.9110   -5.1270 N   0  0  0  0  0  0  0  0  0  0  0  0
   -6.2750    3.4850   -4.3180 N   0  0  0  0  0  0  0  0  0  0  0  0
   -5.1000    4.1120   -4.3860 C   0  0  0  0  0  3  0  0  0  0  0  0
   -4.1500    3.9080   -5.3040 N   0  0  0  0  0  0  0  0  0  0  0  0
   -4.4020    2.9750   -6.2400 C   0  0  0  0  0  0  0  0  0  0  0  0
   -8.2550    2.2610   -4.3410 H   0  0  0  0  0  0  0  0  0  0  0  0
   -7.7470    0.9110   -5.2630 H   0  0  0  0  0  0  0  0  0  0  0  0
   -6.5390    1.7130   -8.5440 C   0  0  0  0  0  1  0  0  0  0  0  0
   -5.8760    1.1780   -7.2820 C   0  0  0  0  0  2  0  0  0  0  0  0
   -1.3970    7.4810   -6.1220 C   0  0  0  0  0  2  0  0  0  0  0  0
   -1.3380    8.1370   -4.7450 C   0  0  0  0  0  3  0  0  0  0  0  0
   -0.2710    7.6680   -3.7280 C   0  0  0  0  0  2  0  0  0  0  0  0
   -0.1450    9.0700   -3.2820 N   0  0  0  0  0  4  0  0  0  0  0  0
    1.2810    9.4700   -3.1520 C   0  0  0  0  0  1  0  0  0  0  0  0
   -0.7180    9.5410   -4.5570 C   0  0  0  0  0  2  0  0  0  0  0  0
   -0.7100    9.2990   -2.4550 H   0  0  0  0  0  0  0  0  0  0  0  0
  1  2  1  1  0  0  0
  1  5  1  0  0  0  0
  2  3  1  0  0  0  0
  3  6  1  6  0  0  0
  3  4  1  0  0  0  0
  5  4  1  0  0  0  0
  5 31  1  0  0  0  0
  6  7  1  0  0  0  0
  8  7  2  0  0  0  0
  9  8  1  0  0  0  0
 10  9  1  0  0  0  0
 11 13  1  0  0  0  0
 11  9  2  0  0  0  0
 12 11  1  0  0  0  0
 13  6  2  0  0  0  0
 14 15  1  0  0  0  0
 14 26  1  0  0  0  0
 15 16  1  0  0  0  0
 17 18  1  1  0  0  0
 17  1  1  0  0  0  0
 17 16  1  0  0  0  0
 19 18  1  0  0  0  0
 19 14  1  0  0  0  0
 20 26  2  0  0  0  0
 20 21  1  0  0  0  0
 21 22  1  0  0  0  0
 21 23  2  0  0  0  0
 22 27  1  0  0  0  0
 24 23  1  0  0  0  0
 25 24  2  0  0  0  0
 26 25  1  0  0  0  0
 28 22  1  0  0  0  0
 29 30  1  0  0  0  0
 30 20  1  0  0  0  0
 31 32  1  0  0  0  0
 32 36  1  0  0  0  0
 32 33  1  0  0  0  0
 33 34  1  0  0  0  0
 34 35  1  0  0  0  0
 34 37  1  0  0  0  0
 36 34  1  0  0  0  0
M  END
>  <minimizedAffinity>
-10.06812

$$$$

 OpenBabel11232420123D

 37 41  0  0  1  0  0  0  0  0999 V2000
   -2.6860    4.7210   -7.2210 C   0  0  2  0  0  3  0  0  0  0  0  0
   -3.8610    4.2830   -6.7950 N   0  0  0  0  0  2  0  0  0  0  0  0
   -4.0380    3.0240   -7.3050 C   0  0  2  0  0  3  0  0  0  0  0  0
   -3.0230    2.7480   -8.1880 C   0  0  0  0  0  2  0  0  0  0  0  0
   -2.2510    3.8880   -8.2310 N   0  0  0  0  0  0  0  0  0  0  0  0
   -5.1630    2.1700   -6.9640 C   0  0  0  0  0  0  0  0  0  0  0  0
   -5.3960    1.0090   -7.7160 C   0  0  0  0  0  3  0  0  0  0  0  0
   -6.4620    0.1610   -7.4090 C   0  0  0  0  0  3  0  0  0  0  0  0
   -7.3090    0.4790   -6.3540 C   0  0  0  0  0  0  0  0  0  0  0  0
   -8.3220   -0.3480   -6.0650 F   0  0  0  0  0  0  0  0  0  0  0  0
   -7.1230    1.6400   -5.6010 C   0  0  0  0  0  0  0  0  0  0  0  0
   -8.0500    1.9560   -4.4670 C   0  0  0  0  0  1  0  0  0  0  0  0
   -6.0360    2.4760   -5.9060 C   0  0  0  0  0  3  0  0  0  0  0  0
    0.1060    7.6330   -5.6390 N   0  0  0  0  0  0  0  0  0  0  0  0
   -0.5060    6.6840   -4.7110 C   0  0  0  0  0  2  0  0  0  0  0  0
   -1.1330    5.4990   -5.4420 C   0  0  0  0  0  2  0  0  0  0  0  0
   -2.0510    5.9510   -6.6000 C   0  0  1  0  0  3  0  0  0  0  0  0
   -1.2900    6.9050   -7.5200 C   0  0  0  0  0  2  0  0  0  0  0  0
   -0.7280    8.0950   -6.7360 C   0  0  0  0  0  2  0  0  0  0  0  0
    2.4440    8.2400   -5.3910 C   0  0  0  0  0  0  0  0  0  0  0  0
    3.7500    7.9400   -5.7660 C   0  0  0  0  0  0  0  0  0  0  0  0
    4.8380    8.6600   -5.3080 N   0  0  0  0  0  0  0  0  0  0  0  0
    4.0550    6.9680   -6.6300 N   0  0  0  0  0  0  0  0  0  0  0  0
    3.0330    6.2450   -7.0890 C   0  0  0  0  0  3  0  0  0  0  0  0
    1.7430    6.4270   -6.7930 N   0  0  0  0  0  0  0  0  0  0  0  0
    1.4520    7.4280   -5.9430 C   0  0  0  0  0  0  0  0  0  0  0  0
    5.7080    8.3160   -5.6960 H   0  0  0  0  0  0  0  0  0  0  0  0
    4.8620    8.9010   -4.3280 H   0  0  0  0  0  0  0  0  0  0  0  0
    2.1540    8.8920   -2.9600 C   0  0  0  0  0  1  0  0  0  0  0  0
    2.1340    9.3480   -4.4140 C   0  0  0  0  0  2  0  0  0  0  0  0
   -1.3080    4.1240   -9.3110 C   0  0  0  0  0  2  0  0  0  0  0  0
   -0.2090    3.0700   -9.4180 C   0  0  0  0  0  3  0  0  0  0  0  0
    0.9050    3.2430  -10.4770 C   0  0  0  0  0  2  0  0  0  0  0  0
    1.8570    2.6750   -9.5030 N   0  0  0  0  0  4  0  0  0  0  0  0
    3.1080    3.4750   -9.4410 C   0  0  0  0  0  1  0  0  0  0  0  0
    0.9480    3.0180   -8.3930 C   0  0  0  0  0  2  0  0  0  0  0  0
    2.0220    1.6670   -9.6160 H   0  0  0  0  0  0  0  0  0  0  0  0
  1  2  1  1  0  0  0
  1 17  1  0  0  0  0
  3  6  1  6  0  0  0
  3  2  1  0  0  0  0
  4  3  1  0  0  0  0
  5  4  1  0  0  0  0
  5  1  1  0  0  0  0
  6 13  1  0  0  0  0
  7  8  1  0  0  0  0
  7  6  2  0  0  0  0
  8  9  2  0  0  0  0
  9 10  1  0  0  0  0
  9 11  1  0  0  0  0
 11 12  1  0  0  0  0
 13 11  2  0  0  0  0
 14 15  1  0  0  0  0
 16 15  1  0  0  0  0
 17 18  1  6  0  0  0
 17 16  1  0  0  0  0
 18 19  1  0  0  0  0
 19 14  1  0  0  0  0
 20 30  1  0  0  0  0
 21 20  1  0  0  0  0
 21 22  1  0  0  0  0
 22 28  1  0  0  0  0
 23 21  2  0  0  0  0
 24 25  2  0  0  0  0
 24 23  1  0  0  0  0
 25 26  1  0  0  0  0
 26 14  1  0  0  0  0
 26 20  2  0  0  0  0
 27 22  1  0  0  0  0
 30 29  1  0  0  0  0
 31  5  1  0  0  0  0
 32 31  1  0  0  0  0
 32 36  1  0  0  0  0
 33 34  1  0  0  0  0
 33 32  1  0  0  0  0
 34 35  1  0  0  0  0
 34 36  1  0  0  0  0
 37 34  1  0  0  0  0
M  END
>  <minimizedAffinity>
-9.83566856

$$$$

 OpenBabel11232420123D

 37 41  0  0  1  0  0  0  0  0999 V2000
    3.6980    5.4080   -8.1350 C   0  0  2  0  0  3  0  0  0  0  0  0
    2.6450    5.1980   -7.3590 N   0  0  0  0  0  2  0  0  0  0  0  0
    2.0370    6.4090   -7.1580 C   0  0  2  0  0  3  0  0  0  0  0  0
    2.8210    7.4020   -7.6910 C   0  0  0  0  0  2  0  0  0  0  0  0
    3.9390    6.7660   -8.1830 N   0  0  0  0  0  0  0  0  0  0  0  0
    0.7780    6.5690   -6.4480 C   0  0  0  0  0  0  0  0  0  0  0  0
   -0.0820    5.4680   -6.3220 C   0  0  0  0  0  3  0  0  0  0  0  0
   -1.2930    5.5840   -5.6370 C   0  0  0  0  0  3  0  0  0  0  0  0
   -1.6550    6.8070   -5.0860 C   0  0  0  0  0  0  0  0  0  0  0  0
   -2.8160    6.9020   -4.4250 F   0  0  0  0  0  0  0  0  0  0  0  0
   -0.8350    7.9300   -5.2160 C   0  0  0  0  0  0  0  0  0  0  0  0
   -1.2500    9.2360   -4.6090 C   0  0  0  0  0  1  0  0  0  0  0  0
    0.3900    7.7980   -5.8900 C   0  0  0  0  0  3  0  0  0  0  0  0
    6.0790    1.8750   -8.9260 N   0  0  0  0  0  0  0  0  0  0  0  0
    6.7140    3.1840   -9.0610 C   0  0  0  0  0  2  0  0  0  0  0  0
    5.9020    4.2830   -8.3810 C   0  0  0  0  0  2  0  0  0  0  0  0
    4.4130    4.2440   -8.7940 C   0  0  1  0  0  3  0  0  0  0  0  0
    3.8520    2.8400   -8.5700 C   0  0  0  0  0  2  0  0  0  0  0  0
    4.6810    1.7900   -9.3170 C   0  0  0  0  0  2  0  0  0  0  0  0
    7.2900    0.0100   -7.9490 C   0  0  0  0  0  0  0  0  0  0  0  0
    7.5870   -0.6690   -6.7720 C   0  0  0  0  0  0  0  0  0  0  0  0
    8.4020   -1.7870   -6.7450 N   0  0  0  0  0  0  0  0  0  0  0  0
    7.0780   -0.3280   -5.5840 N   0  0  0  0  0  0  0  0  0  0  0  0
    6.2940    0.7500   -5.5670 C   0  0  0  0  0  3  0  0  0  0  0  0
    5.9480    1.4900   -6.6240 N   0  0  0  0  0  0  0  0  0  0  0  0
    6.4470    1.1150   -7.8150 C   0  0  0  0  0  0  0  0  0  0  0  0
    8.4950   -2.1630   -5.8090 H   0  0  0  0  0  0  0  0  0  0  0  0
    9.2490   -1.7620   -7.2930 H   0  0  0  0  0  0  0  0  0  0  0  0
    7.0170   -1.4020  -10.0330 C   0  0  0  0  0  1  0  0  0  0  0  0
    7.8800   -0.4030   -9.2740 C   0  0  0  0  0  2  0  0  0  0  0  0
    5.1560    7.4990   -8.4890 C   0  0  0  0  0  2  0  0  0  0  0  0
    5.7270    8.2770   -7.3080 C   0  0  0  0  0  3  0  0  0  0  0  0
    5.1930    9.6970   -7.0070 C   0  0  0  0  0  2  0  0  0  0  0  0
    5.3270    9.3950   -5.5690 N   0  0  0  0  0  4  0  0  0  0  0  0
    4.1170    9.8120   -4.8130 C   0  0  0  0  0  1  0  0  0  0  0  0
    5.3050    7.9480   -5.8570 C   0  0  0  0  0  2  0  0  0  0  0  0
    6.2050    9.7270   -5.1500 H   0  0  0  0  0  0  0  0  0  0  0  0
  1  2  1  6  0  0  0
  2  3  1  0  0  0  0
  3  6  1  1  0  0  0
  4  3  1  0  0  0  0
  5  1  1  0  0  0  0
  5  4  1  0  0  0  0
  6  7  2  0  0  0  0
  6 13  1  0  0  0  0
  7  8  1  0  0  0  0
  8  9  2  0  0  0  0
  9 10  1  0  0  0  0
 11  9  1  0  0  0  0
 11 12  1  0  0  0  0
 13 11  2  0  0  0  0
 14 26  1  0  0  0  0
 15 14  1  0  0  0  0
 15 16  1  0  0  0  0
 17 18  1  1  0  0  0
 17 16  1  0  0  0  0
 17  1  1  0  0  0  0
 19 14  1  0  0  0  0
 19 18  1  0  0  0  0
 20 26  2  0  0  0  0
 20 21  1  0  0  0  0
 21 22  1  0  0  0  0
 21 23  2  0  0  0  0
 22 27  1  0  0  0  0
 23 24  1  0  0  0  0
 25 24  2  0  0  0  0
 26 25  1  0  0  0  0
 28 22  1  0  0  0  0
 29 30  1  0  0  0  0
 30 20  1  0  0  0  0
 31  5  1  0  0  0  0
 31 32  1  0  0  0  0
 32 33  1  0  0  0  0
 32 36  1  0  0  0  0
 33 34  1  0  0  0  0
 34 37  1  0  0  0  0
 34 35  1  0  0  0  0
 36 34  1  0  0  0  0
M  END
>  <minimizedAffinity>
-8.88889313

$$$$

 OpenBabel11232420123D

 37 41  0  0  1  0  0  0  0  0999 V2000
   -1.7610    5.7530   -5.6790 C   0  0  2  0  0  3  0  0  0  0  0  0
   -3.0480    5.4580   -5.5840 N   0  0  0  0  0  2  0  0  0  0  0  0
   -3.1780    4.1120   -5.8030 C   0  0  2  0  0  3  0  0  0  0  0  0
   -1.9650    3.6000   -6.1940 C   0  0  0  0  0  2  0  0  0  0  0  0
   -1.1090    4.6780   -6.2470 N   0  0  0  0  0  0  0  0  0  0  0  0
   -4.4340    3.3920   -5.6680 C   0  0  0  0  0  0  0  0  0  0  0  0
   -5.2670    3.6670   -4.5740 C   0  0  0  0  0  3  0  0  0  0  0  0
   -6.4850    3.0020   -4.4210 C   0  0  0  0  0  3  0  0  0  0  0  0
   -6.8680    2.0480   -5.3570 C   0  0  0  0  0  0  0  0  0  0  0  0
   -8.0430    1.4240   -5.2010 F   0  0  0  0  0  0  0  0  0  0  0  0
   -6.0500    1.7300   -6.4430 C   0  0  0  0  0  0  0  0  0  0  0  0
   -6.4900    0.6990   -7.4370 C   0  0  0  0  0  1  0  0  0  0  0  0
   -4.8360    2.4190   -6.5990 C   0  0  0  0  0  3  0  0  0  0  0  0
    0.7550    9.0830   -4.5130 N   0  0  0  0  0  0  0  0  0  0  0  0
    0.3170    8.1490   -3.4780 C   0  0  0  0  0  2  0  0  0  0  0  0
   -0.2070    6.8450   -4.0740 C   0  0  0  0  0  2  0  0  0  0  0  0
   -1.2400    7.0940   -5.1950 C   0  0  1  0  0  3  0  0  0  0  0  0
   -0.6540    8.0500   -6.2340 C   0  0  0  0  0  2  0  0  0  0  0  0
   -0.1930    9.3560   -5.5810 C   0  0  0  0  0  2  0  0  0  0  0  0
    3.1160    9.2980   -3.9870 C   0  0  0  0  0  0  0  0  0  0  0  0
    4.4120    9.1890   -4.4800 C   0  0  0  0  0  0  0  0  0  0  0  0
    5.5270    9.4510   -3.7040 N   0  0  0  0  0  0  0  0  0  0  0  0
    4.6860    8.8680   -5.7480 N   0  0  0  0  0  0  0  0  0  0  0  0
    3.6380    8.5990   -6.5270 C   0  0  0  0  0  3  0  0  0  0  0  0
    2.3530    8.6560   -6.1660 N   0  0  0  0  0  0  0  0  0  0  0  0
    2.0950    9.0090   -4.8940 C   0  0  0  0  0  0  0  0  0  0  0  0
    6.3870    9.3390   -4.2280 H   0  0  0  0  0  0  0  0  0  0  0  0
    5.5390    9.0880   -2.7620 H   0  0  0  0  0  0  0  0  0  0  0  0
    3.1660   11.1190   -2.2270 C   0  0  0  0  0  1  0  0  0  0  0  0
    2.8430    9.6660   -2.5490 C   0  0  0  0  0  2  0  0  0  0  0  0
    0.1520    4.6100   -6.9650 C   0  0  0  0  0  2  0  0  0  0  0  0
    0.0150    4.1870   -8.4250 C   0  0  0  0  0  3  0  0  0  0  0  0
    0.2170    2.7020   -8.8050 C   0  0  0  0  0  2  0  0  0  0  0  0
   -0.8580    2.8580   -9.8050 N   0  0  0  0  0  4  0  0  0  0  0  0
   -1.8190    1.7260   -9.7470 C   0  0  0  0  0  1  0  0  0  0  0  0
   -1.3750    4.0360   -9.0840 C   0  0  0  0  0  2  0  0  0  0  0  0
   -0.5220    3.0600  -10.7550 H   0  0  0  0  0  0  0  0  0  0  0  0
  1  2  1  1  0  0  0
  1 17  1  0  0  0  0
  3  6  1  6  0  0  0
  3  2  1  0  0  0  0
  4  3  1  0  0  0  0
  5  4  1  0  0  0  0
  5  1  1  0  0  0  0
  6  7  1  0  0  0  0
  7  8  2  0  0  0  0
  9 10  1  0  0  0  0
  9  8  1  0  0  0  0
 11  9  2  0  0  0  0
 12 11  1  0  0  0  0
 13 11  1  0  0  0  0
 13  6  2  0  0  0  0
 14 15  1  0  0  0  0
 16 15  1  0  0  0  0
 17 18  1  6  0  0  0
 17 16  1  0  0  0  0
 18 19  1  0  0  0  0
 19 14  1  0  0  0  0
 20 30  1  0  0  0  0
 21 20  1  0  0  0  0
 21 22  1  0  0  0  0
 22 28  1  0  0  0  0
 23 21  2  0  0  0  0
 24 25  2  0  0  0  0
 24 23  1  0  0  0  0
 25 26  1  0  0  0  0
 26 14  1  0  0  0  0
 26 20  2  0  0  0  0
 27 22  1  0  0  0  0
 30 29  1  0  0  0  0
 31  5  1  0  0  0  0
 32 31  1  0  0  0  0
 33 32  1  0  0  0  0
 34 35  1  0  0  0  0
 34 36  1  0  0  0  0
 34 33  1  0  0  0  0
 36 32  1  0  0  0  0
 37 34  1  0  0  0  0
M  END
>  <minimizedAffinity>
-8.86794376

$$$$

 OpenBabel11232420123D

 37 41  0  0  1  0  0  0  0  0999 V2000
    0.0090    5.9400   -6.4880 C   0  0  2  0  0  3  0  0  0  0  0  0
    1.0320    5.3530   -7.0880 N   0  0  0  0  0  2  0  0  0  0  0  0
    1.9690    6.3200   -7.3420 C   0  0  2  0  0  3  0  0  0  0  0  0
    1.4420    7.5500   -7.0320 C   0  0  0  0  0  2  0  0  0  0  0  0
    0.1490    7.3060   -6.6240 N   0  0  0  0  0  0  0  0  0  0  0  0
    3.2850    6.0400   -7.8920 C   0  0  0  0  0  0  0  0  0  0  0  0
    4.2500    7.0560   -7.9100 C   0  0  0  0  0  3  0  0  0  0  0  0
    5.5270    6.8180   -8.4220 C   0  0  0  0  0  3  0  0  0  0  0  0
    5.8390    5.5630   -8.9310 C   0  0  0  0  0  0  0  0  0  0  0  0
    7.0710    5.3460   -9.4110 F   0  0  0  0  0  0  0  0  0  0  0  0
    4.8930    4.5360   -8.9530 C   0  0  0  0  0  0  0  0  0  0  0  0
    5.2580    3.1920   -9.5060 C   0  0  0  0  0  1  0  0  0  0  0  0
    3.6180    4.7800   -8.4180 C   0  0  0  0  0  3  0  0  0  0  0  0
   -3.4990    3.5540   -5.6030 N   0  0  0  0  0  0  0  0  0  0  0  0
   -3.5760    4.9990   -5.4060 C   0  0  0  0  0  2  0  0  0  0  0  0
   -2.4420    5.7320   -6.1190 C   0  0  0  0  0  2  0  0  0  0  0  0
   -1.0620    5.1120   -5.8030 C   0  0  1  0  0  3  0  0  0  0  0  0
   -1.0940    3.6100   -6.0840 C   0  0  0  0  0  2  0  0  0  0  0  0
   -2.2210    2.9270   -5.3040 C   0  0  0  0  0  2  0  0  0  0  0  0
   -5.4010    2.3660   -6.5340 C   0  0  0  0  0  0  0  0  0  0  0  0
   -5.9960    1.8940   -7.7010 C   0  0  0  0  0  0  0  0  0  0  0  0
   -7.1960    1.2060   -7.6960 N   0  0  0  0  0  0  0  0  0  0  0  0
   -5.4390    2.0270   -8.9080 N   0  0  0  0  0  0  0  0  0  0  0  0
   -4.2850    2.6920   -8.9550 C   0  0  0  0  0  3  0  0  0  0  0  0
   -3.6260    3.2020   -7.9110 N   0  0  0  0  0  0  0  0  0  0  0  0
   -4.1870    3.0350   -6.7000 C   0  0  0  0  0  0  0  0  0  0  0  0
   -7.4710    0.9230   -8.6290 H   0  0  0  0  0  0  0  0  0  0  0  0
   -7.9370    1.5600   -7.1100 H   0  0  0  0  0  0  0  0  0  0  0  0
   -6.8050    3.4400   -4.7210 C   0  0  0  0  0  1  0  0  0  0  0  0
   -6.0570    2.1980   -5.1860 C   0  0  0  0  0  2  0  0  0  0  0  0
   -0.8400    8.3680   -6.5660 C   0  0  0  0  0  2  0  0  0  0  0  0
   -0.8470    9.1400   -5.2490 C   0  0  0  0  0  3  0  0  0  0  0  0
   -1.2560    8.4120   -3.9470 C   0  0  0  0  0  2  0  0  0  0  0  0
   -0.2340    9.2040   -3.2360 N   0  0  0  0  0  4  0  0  0  0  0  0
    0.5800    8.3500   -2.3320 C   0  0  0  0  0  1  0  0  0  0  0  0
    0.4700    9.4610   -4.5060 C   0  0  0  0  0  2  0  0  0  0  0  0
   -0.6000   10.0490   -2.7790 H   0  0  0  0  0  0  0  0  0  0  0  0
  1  2  1  1  0  0  0
  1 17  1  0  0  0  0
  3  6  1  6  0  0  0
  3  2  1  0  0  0  0
  3  4  1  0  0  0  0
  4  5  1  0  0  0  0
  5 31  1  0  0  0  0
  5  1  1  0  0  0  0
  7  6  1  0  0  0  0
  8  7  2  0  0  0  0
  9  8  1  0  0  0  0
 10  9  1  0  0  0  0
 11  9  2  0  0  0  0
 11 13  1  0  0  0  0
 12 11  1  0  0  0  0
 13  6  2  0  0  0  0
 14 15  1  0  0  0  0
 14 19  1  0  0  0  0
 16 15  1  0  0  0  0
 17 16  1  6  0  0  0
 18 17  1  0  0  0  0
 18 19  1  0  0  0  0
 20 30  1  0  0  0  0
 21 22  1  0  0  0  0
 21 20  2  0  0  0  0
 22 28  1  0  0  0  0
 23 21  1  0  0  0  0
 24 23  2  0  0  0  0
 24 25  1  0  0  0  0
 25 26  2  0  0  0  0
 26 20  1  0  0  0  0
 26 14  1  0  0  0  0
 27 22  1  0  0  0  0
 30 29  1  0  0  0  0
 31 32  1  0  0  0  0
 32 36  1  0  0  0  0
 32 33  1  0  0  0  0
 33 34  1  0  0  0  0
 34 37  1  0  0  0  0
 34 35  1  0  0  0  0
 36 34  1  0  0  0  0
M  END
>  <minimizedAffinity>
-8.84987831

$$$$

 OpenBabel11232420123D

 37 41  0  0  1  0  0  0  0  0999 V2000
    2.9950    4.7410   -7.9080 C   0  0  2  0  0  3  0  0  0  0  0  0
    1.7760    4.2720   -7.6880 N   0  0  0  0  0  2  0  0  0  0  0  0
    0.9850    5.3340   -7.3380 C   0  0  2  0  0  3  0  0  0  0  0  0
    1.7700    6.4510   -7.1890 C   0  0  0  0  0  2  0  0  0  0  0  0
    3.0610    6.0280   -7.4170 N   0  0  0  0  0  0  0  0  0  0  0  0
   -0.4500    5.2330   -7.1280 C   0  0  0  0  0  0  0  0  0  0  0  0
   -1.0180    5.8170   -5.9870 C   0  0  0  0  0  3  0  0  0  0  0  0
   -2.3940    5.7480   -5.7610 C   0  0  0  0  0  3  0  0  0  0  0  0
   -3.2060    5.0810   -6.6700 C   0  0  0  0  0  0  0  0  0  0  0  0
   -4.5260    5.0290   -6.4440 F   0  0  0  0  0  0  0  0  0  0  0  0
   -2.6700    4.4650   -7.8030 C   0  0  0  0  0  0  0  0  0  0  0  0
   -3.5700    3.7550   -8.7680 C   0  0  0  0  0  1  0  0  0  0  0  0
   -1.2870    4.5570   -8.0320 C   0  0  0  0  0  3  0  0  0  0  0  0
    6.1900    1.9520   -8.8010 N   0  0  0  0  0  0  0  0  0  0  0  0
    6.5300    3.3610   -8.6180 C   0  0  0  0  0  2  0  0  0  0  0  0
    5.4060    4.1340   -7.9320 C   0  0  0  0  0  2  0  0  0  0  0  0
    4.0370    3.8830   -8.6020 C   0  0  1  0  0  3  0  0  0  0  0  0
    3.7760    2.3810   -8.7010 C   0  0  0  0  0  2  0  0  0  0  0  0
    4.9150    1.6720   -9.4410 C   0  0  0  0  0  2  0  0  0  0  0  0
    7.4880    0.0660   -7.9920 C   0  0  0  0  0  0  0  0  0  0  0  0
    7.7770   -0.7370   -6.8930 C   0  0  0  0  0  0  0  0  0  0  0  0
    8.6720   -1.7890   -6.9570 N   0  0  0  0  0  0  0  0  0  0  0  0
    7.1840   -0.5870   -5.7050 N   0  0  0  0  0  0  0  0  0  0  0  0
    6.3200    0.4230   -5.6010 C   0  0  0  0  0  3  0  0  0  0  0  0
    5.9710    1.2660   -6.5760 N   0  0  0  0  0  0  0  0  0  0  0  0
    6.5570    1.0830   -7.7730 C   0  0  0  0  0  0  0  0  0  0  0  0
    8.7460   -2.2750   -6.0710 H   0  0  0  0  0  0  0  0  0  0  0  0
    9.5410   -1.6360   -7.4460 H   0  0  0  0  0  0  0  0  0  0  0  0
    7.4260   -1.0760  -10.2520 C   0  0  0  0  0  1  0  0  0  0  0  0
    8.1750   -0.1320   -9.3210 C   0  0  0  0  0  2  0  0  0  0  0  0
    4.2030    6.8220   -6.9980 C   0  0  0  0  0  2  0  0  0  0  0  0
    3.8610    8.2670   -6.6450 C   0  0  0  0  0  3  0  0  0  0  0  0
    3.7950    8.6880   -5.1590 C   0  0  0  0  0  2  0  0  0  0  0  0
    4.3780    9.9870   -5.5470 N   0  0  0  0  0  4  0  0  0  0  0  0
    5.4740   10.3860   -4.6250 C   0  0  0  0  0  1  0  0  0  0  0  0
    4.9120    9.3920   -6.7870 C   0  0  0  0  0  2  0  0  0  0  0  0
    3.6850   10.7300   -5.7010 H   0  0  0  0  0  0  0  0  0  0  0  0
  1  2  1  6  0  0  0
  1  5  1  0  0  0  0
  2  3  1  0  0  0  0
  3  4  1  0  0  0  0
  3  6  1  1  0  0  0
  5  4  1  0  0  0  0
  5 31  1  0  0  0  0
  6  7  1  0  0  0  0
  7  8  2  0  0  0  0
  9 10  1  0  0  0  0
  9  8  1  0  0  0  0
 11  9  2  0  0  0  0
 12 11  1  0  0  0  0
 13 11  1  0  0  0  0
 13  6  2  0  0  0  0
 14 15  1  0  0  0  0
 14 26  1  0  0  0  0
 15 16  1  0  0  0  0
 17 18  1  1  0  0  0
 17 16  1  0  0  0  0
 17  1  1  0  0  0  0
 19 14  1  0  0  0  0
 19 18  1  0  0  0  0
 20 26  2  0  0  0  0
 20 21  1  0  0  0  0
 21 23  2  0  0  0  0
 22 21  1  0  0  0  0
 22 27  1  0  0  0  0
 23 24  1  0  0  0  0
 25 24  2  0  0  0  0
 26 25  1  0  0  0  0
 28 22  1  0  0  0  0
 29 30  1  0  0  0  0
 30 20  1  0  0  0  0
 31 32  1  0  0  0  0
 32 33  1  0  0  0  0
 34 33  1  0  0  0  0
 34 35  1  0  0  0  0
 36 32  1  0  0  0  0
 36 34  1  0  0  0  0
 37 34  1  0  0  0  0
M  END
>  <minimizedAffinity>
-8.58581638

$$$$

 OpenBabel11232420123D

 37 41  0  0  1  0  0  0  0  0999 V2000
   -0.9680    4.2420   -7.3450 C   0  0  2  0  0  3  0  0  0  0  0  0
   -1.8050    3.2410   -7.5690 N   0  0  0  0  0  2  0  0  0  0  0  0
   -2.9280    3.4700   -6.8190 C   0  0  2  0  0  3  0  0  0  0  0  0
   -2.7100    4.5500   -5.9990 C   0  0  0  0  0  2  0  0  0  0  0  0
   -1.4120    4.9420   -6.2430 N   0  0  0  0  0  0  0  0  0  0  0  0
   -4.1220    2.6450   -6.8860 C   0  0  0  0  0  0  0  0  0  0  0  0
   -4.2920    1.7720   -7.9710 C   0  0  0  0  0  3  0  0  0  0  0  0
   -5.4230    0.9580   -8.0610 C   0  0  0  0  0  3  0  0  0  0  0  0
   -6.3960    1.0230   -7.0710 C   0  0  0  0  0  0  0  0  0  0  0  0
   -7.4710    0.2290   -7.1660 F   0  0  0  0  0  0  0  0  0  0  0  0
   -6.2710    1.8990   -5.9910 C   0  0  0  0  0  0  0  0  0  0  0  0
   -7.3350    1.9460   -4.9360 C   0  0  0  0  0  1  0  0  0  0  0  0
   -5.1220    2.7000   -5.8990 C   0  0  0  0  0  3  0  0  0  0  0  0
    2.9790    4.1490   -9.1320 N   0  0  0  0  0  0  0  0  0  0  0  0
    2.6620    5.2360   -8.2090 C   0  0  0  0  0  2  0  0  0  0  0  0
    1.4230    4.9270   -7.3720 C   0  0  0  0  0  2  0  0  0  0  0  0
    0.2370    4.4550   -8.2430 C   0  0  1  0  0  3  0  0  0  0  0  0
    0.6800    3.2940   -9.1320 C   0  0  0  0  0  2  0  0  0  0  0  0
    1.8940    3.6820   -9.9810 C   0  0  0  0  0  2  0  0  0  0  0  0
    5.1270    3.4930   -8.2080 C   0  0  0  0  0  0  0  0  0  0  0  0
    5.9030    2.4270   -7.7610 C   0  0  0  0  0  0  0  0  0  0  0  0
    7.1930    2.5940   -7.2900 N   0  0  0  0  0  0  0  0  0  0  0  0
    5.4860    1.1580   -7.7920 N   0  0  0  0  0  0  0  0  0  0  0  0
    4.2440    0.9560   -8.2320 C   0  0  0  0  0  3  0  0  0  0  0  0
    3.4020    1.8950   -8.6730 N   0  0  0  0  0  0  0  0  0  0  0  0
    3.8480    3.1640   -8.6610 C   0  0  0  0  0  0  0  0  0  0  0  0
    7.6140    1.7120   -7.0240 H   0  0  0  0  0  0  0  0  0  0  0  0
    7.3670    3.3680   -6.6650 H   0  0  0  0  0  0  0  0  0  0  0  0
    6.2200    5.3890   -9.4830 C   0  0  0  0  0  1  0  0  0  0  0  0
    5.6300    4.9150   -8.1610 C   0  0  0  0  0  2  0  0  0  0  0  0
   -0.6960    5.8070   -5.3200 C   0  0  0  0  0  2  0  0  0  0  0  0
   -1.1120    7.2730   -5.3910 C   0  0  0  0  0  3  0  0  0  0  0  0
   -2.0350    7.8520   -4.2950 C   0  0  0  0  0  2  0  0  0  0  0  0
   -1.2750    9.1140   -4.3830 N   0  0  0  0  0  4  0  0  0  0  0  0
   -0.9330    9.6350   -3.0330 C   0  0  0  0  0  1  0  0  0  0  0  0
   -0.1330    8.3990   -4.9850 C   0  0  0  0  0  2  0  0  0  0  0  0
   -1.7010    9.8200   -4.9970 H   0  0  0  0  0  0  0  0  0  0  0  0
  1  2  1  6  0  0  0
  1  5  1  0  0  0  0
  2  3  1  0  0  0  0
  3  6  1  1  0  0  0
  3  4  1  0  0  0  0
  5  4  1  0  0  0  0
  5 31  1  0  0  0  0
  6 13  1  0  0  0  0
  7  6  2  0  0  0  0
  8  7  1  0  0  0  0
  8  9  2  0  0  0  0
  9 11  1  0  0  0  0
 10  9  1  0  0  0  0
 11 13  2  0  0  0  0
 11 12  1  0  0  0  0
 14 26  1  0  0  0  0
 14 15  1  0  0  0  0
 15 16  1  0  0  0  0
 17 18  1  1  0  0  0
 17 16  1  0  0  0  0
 17  1  1  0  0  0  0
 19 14  1  0  0  0  0
 19 18  1  0  0  0  0
 20 30  1  0  0  0  0
 20 21  1  0  0  0  0
 21 22  1  0  0  0  0
 22 27  1  0  0  0  0
 22 28  1  0  0  0  0
 23 21  2  0  0  0  0
 24 23  1  0  0  0  0
 25 26  1  0  0  0  0
 25 24  2  0  0  0  0
 26 20  2  0  0  0  0
 29 30  1  0  0  0  0
 32 31  1  0  0  0  0
 32 36  1  0  0  0  0
 32 33  1  0  0  0  0
 34 33  1  0  0  0  0
 34 35  1  0  0  0  0
 36 34  1  0  0  0  0
 37 34  1  0  0  0  0
M  END
>  <minimizedAffinity>
-8.54436398

$$$$

 OpenBabel11232420123D

 37 41  0  0  1  0  0  0  0  0999 V2000
    0.4180    5.5700   -6.7700 C   0  0  2  0  0  3  0  0  0  0  0  0
    1.1150    6.5020   -6.1390 N   0  0  0  0  0  2  0  0  0  0  0  0
    2.2420    6.7430   -6.8790 C   0  0  2  0  0  3  0  0  0  0  0  0
    2.3140    5.8290   -7.9010 C   0  0  0  0  0  2  0  0  0  0  0  0
    1.2250    5.0030   -7.7360 N   0  0  0  0  0  0  0  0  0  0  0  0
    3.2020    7.7890   -6.5650 C   0  0  0  0  0  0  0  0  0  0  0  0
    3.2610    8.2950   -5.2590 C   0  0  0  0  0  3  0  0  0  0  0  0
    4.1790    9.2920   -4.9210 C   0  0  0  0  0  3  0  0  0  0  0  0
    5.0330    9.7970   -5.8950 C   0  0  0  0  0  0  0  0  0  0  0  0
    5.9130   10.7470   -5.5540 F   0  0  0  0  0  0  0  0  0  0  0  0
    4.9820    9.3350   -7.2110 C   0  0  0  0  0  0  0  0  0  0  0  0
    5.9170    9.8960   -8.2400 C   0  0  0  0  0  1  0  0  0  0  0  0
    4.0690    8.3180   -7.5360 C   0  0  0  0  0  3  0  0  0  0  0  0
   -3.6270    4.0300   -6.5580 N   0  0  0  0  0  0  0  0  0  0  0  0
   -3.3900    5.2560   -7.3170 C   0  0  0  0  0  2  0  0  0  0  0  0
   -1.9100    5.4510   -7.6350 C   0  0  0  0  0  2  0  0  0  0  0  0
   -1.0210    5.2880   -6.3820 C   0  0  1  0  0  3  0  0  0  0  0  0
   -1.3300    3.9560   -5.6990 C   0  0  0  0  0  2  0  0  0  0  0  0
   -2.8200    3.8430   -5.3630 C   0  0  0  0  0  2  0  0  0  0  0  0
   -5.1150    2.2170   -7.1890 C   0  0  0  0  0  0  0  0  0  0  0  0
   -5.2620    1.0810   -7.9780 C   0  0  0  0  0  0  0  0  0  0  0  0
   -6.4160    0.3170   -7.9720 N   0  0  0  0  0  0  0  0  0  0  0  0
   -4.2930    0.6100   -8.7690 N   0  0  0  0  0  0  0  0  0  0  0  0
   -3.1680    1.3240   -8.8090 C   0  0  0  0  0  3  0  0  0  0  0  0
   -2.9130    2.4340   -8.1110 N   0  0  0  0  0  0  0  0  0  0  0  0
   -3.8900    2.8780   -7.3000 C   0  0  0  0  0  0  0  0  0  0  0  0
   -6.3430   -0.4810   -8.5910 H   0  0  0  0  0  0  0  0  0  0  0  0
   -7.3000    0.8040   -7.9870 H   0  0  0  0  0  0  0  0  0  0  0  0
   -6.1530    2.1930   -4.8790 C   0  0  0  0  0  1  0  0  0  0  0  0
   -6.2300    2.7200   -6.3060 C   0  0  0  0  0  2  0  0  0  0  0  0
    1.1500    3.7070   -8.3870 C   0  0  0  0  0  2  0  0  0  0  0  0
    2.5100    3.0810   -8.6850 C   0  0  0  0  0  3  0  0  0  0  0  0
    3.1550    3.2970  -10.0740 C   0  0  0  0  0  2  0  0  0  0  0  0
    4.4680    3.3690   -9.4030 N   0  0  0  0  0  4  0  0  0  0  0  0
    5.2700    4.5140   -9.9080 C   0  0  0  0  0  1  0  0  0  0  0  0
    3.8110    3.6990   -8.1240 C   0  0  0  0  0  2  0  0  0  0  0  0
    4.9840    2.4810   -9.3950 H   0  0  0  0  0  0  0  0  0  0  0  0
  1 17  1  0  0  0  0
  1  2  1  6  0  0  0
  3  6  1  1  0  0  0
  3  2  1  0  0  0  0
  4  5  1  0  0  0  0
  4  3  1  0  0  0  0
  5  1  1  0  0  0  0
  6  7  1  0  0  0  0
  7  8  2  0  0  0  0
  9 10  1  0  0  0  0
  9  8  1  0  0  0  0
 11  9  2  0  0  0  0
 12 11  1  0  0  0  0
 13 11  1  0  0  0  0
 13  6  2  0  0  0  0
 14 19  1  0  0  0  0
 15 14  1  0  0  0  0
 16 15  1  0  0  0  0
 17 16  1  6  0  0  0
 17 18  1  0  0  0  0
 18 19  1  0  0  0  0
 20 30  1  0  0  0  0
 21 22  1  0  0  0  0
 21 20  2  0  0  0  0
 23 21  1  0  0  0  0
 24 23  2  0  0  0  0
 24 25  1  0  0  0  0
 25 26  2  0  0  0  0
 26 20  1  0  0  0  0
 26 14  1  0  0  0  0
 27 22  1  0  0  0  0
 28 22  1  0  0  0  0
 30 29  1  0  0  0  0
 31  5  1  0  0  0  0
 32 31  1  0  0  0  0
 32 36  1  0  0  0  0
 33 34  1  0  0  0  0
 33 32  1  0  0  0  0
 34 37  1  0  0  0  0
 34 36  1  0  0  0  0
 35 34  1  0  0  0  0
M  END
>  <minimizedAffinity>
-8.25969696

$$$$
