
 OpenBabel11232420123D

 37 41  0  0  1  0  0  0  0  0999 V2000
   -0.9680    4.2420   -7.3450 C   0  0  2  0  0  3  0  0  0  0  0  0
   -1.8050    3.2410   -7.5690 N   0  0  0  0  0  2  0  0  0  0  0  0
   -2.9280    3.4700   -6.8190 C   0  0  2  0  0  3  0  0  0  0  0  0
   -2.7100    4.5500   -5.9990 C   0  0  0  0  0  2  0  0  0  0  0  0
   -1.4120    4.9420   -6.2430 N   0  0  0  0  0  0  0  0  0  0  0  0
   -4.1220    2.6450   -6.8860 C   0  0  0  0  0  0  0  0  0  0  0  0
   -4.2920    1.7720   -7.9710 C   0  0  0  0  0  3  0  0  0  0  0  0
   -5.4230    0.9580   -8.0610 C   0  0  0  0  0  3  0  0  0  0  0  0
   -6.3960    1.0230   -7.0710 C   0  0  0  0  0  0  0  0  0  0  0  0
   -7.4710    0.2290   -7.1660 F   0  0  0  0  0  0  0  0  0  0  0  0
   -6.2710    1.8990   -5.9910 C   0  0  0  0  0  0  0  0  0  0  0  0
   -7.3350    1.9460   -4.9360 C   0  0  0  0  0  1  0  0  0  0  0  0
   -5.1220    2.7000   -5.8990 C   0  0  0  0  0  3  0  0  0  0  0  0
    2.9790    4.1490   -9.1320 N   0  0  0  0  0  0  0  0  0  0  0  0
    2.6620    5.2360   -8.2090 C   0  0  0  0  0  2  0  0  0  0  0  0
    1.4230    4.9270   -7.3720 C   0  0  0  0  0  2  0  0  0  0  0  0
    0.2370    4.4550   -8.2430 C   0  0  1  0  0  3  0  0  0  0  0  0
    0.6800    3.2940   -9.1320 C   0  0  0  0  0  2  0  0  0  0  0  0
    1.8940    3.6820   -9.9810 C   0  0  0  0  0  2  0  0  0  0  0  0
    5.1270    3.4930   -8.2080 C   0  0  0  0  0  0  0  0  0  0  0  0
    5.9030    2.4270   -7.7610 C   0  0  0  0  0  0  0  0  0  0  0  0
    7.1930    2.5940   -7.2900 N   0  0  0  0  0  0  0  0  0  0  0  0
    5.4860    1.1580   -7.7920 N   0  0  0  0  0  0  0  0  0  0  0  0
    4.2440    0.9560   -8.2320 C   0  0  0  0  0  3  0  0  0  0  0  0
    3.4020    1.8950   -8.6730 N   0  0  0  0  0  0  0  0  0  0  0  0
    3.8480    3.1640   -8.6610 C   0  0  0  0  0  0  0  0  0  0  0  0
    7.6140    1.7120   -7.0240 H   0  0  0  0  0  0  0  0  0  0  0  0
    7.3670    3.3680   -6.6650 H   0  0  0  0  0  0  0  0  0  0  0  0
    6.2200    5.3890   -9.4830 C   0  0  0  0  0  1  0  0  0  0  0  0
    5.6300    4.9150   -8.1610 C   0  0  0  0  0  2  0  0  0  0  0  0
   -0.6960    5.8070   -5.3200 C   0  0  0  0  0  2  0  0  0  0  0  0
   -1.1120    7.2730   -5.3910 C   0  0  0  0  0  3  0  0  0  0  0  0
   -2.0350    7.8520   -4.2950 C   0  0  0  0  0  2  0  0  0  0  0  0
   -1.2750    9.1140   -4.3830 N   0  0  0  0  0  4  0  0  0  0  0  0
   -0.9330    9.6350   -3.0330 C   0  0  0  0  0  1  0  0  0  0  0  0
   -0.1330    8.3990   -4.9850 C   0  0  0  0  0  2  0  0  0  0  0  0
   -1.7010    9.8200   -4.9970 H   0  0  0  0  0  0  0  0  0  0  0  0
  1  2  1  6  0  0  0
  1  5  1  0  0  0  0
  2  3  1  0  0  0  0
  3  6  1  1  0  0  0
  3  4  1  0  0  0  0
  5  4  1  0  0  0  0
  5 31  1  0  0  0  0
  6 13  1  0  0  0  0
  7  6  2  0  0  0  0
  8  7  1  0  0  0  0
  8  9  2  0  0  0  0
  9 11  1  0  0  0  0
 10  9  1  0  0  0  0
 11 13  2  0  0  0  0
 11 12  1  0  0  0  0
 14 26  1  0  0  0  0
 14 15  1  0  0  0  0
 15 16  1  0  0  0  0
 17 18  1  1  0  0  0
 17 16  1  0  0  0  0
 17  1  1  0  0  0  0
 19 14  1  0  0  0  0
 19 18  1  0  0  0  0
 20 30  1  0  0  0  0
 20 21  1  0  0  0  0
 21 22  1  0  0  0  0
 22 27  1  0  0  0  0
 22 28  1  0  0  0  0
 23 21  2  0  0  0  0
 24 23  1  0  0  0  0
 25 26  1  0  0  0  0
 25 24  2  0  0  0  0
 26 20  2  0  0  0  0
 29 30  1  0  0  0  0
 32 31  1  0  0  0  0
 32 36  1  0  0  0  0
 32 33  1  0  0  0  0
 34 33  1  0  0  0  0
 34 35  1  0  0  0  0
 36 34  1  0  0  0  0
 37 34  1  0  0  0  0
M  END
>  <minimizedAffinity>
-8.54436398

$$$$
