
 OpenBabel11232419373D

 41 46  0  0  1  0  0  0  0  0999 V2000
   63.9010  -44.0220   14.7950 C   0  0  0  0  0  0  0  0  0  0  0  0
   64.0540  -44.2830   13.4270 C   0  0  0  0  0  3  0  0  0  0  0  0
   62.9280  -44.5080   12.6310 C   0  0  0  0  0  3  0  0  0  0  0  0
   61.6590  -44.5030   13.2090 C   0  0  0  0  0  0  0  0  0  0  0  0
   61.5090  -44.2560   14.5790 C   0  0  0  0  0  0  0  0  0  0  0  0
   62.6300  -44.0250   15.3770 C   0  0  0  0  0  3  0  0  0  0  0  0
   60.1650  -44.2260   15.1050 C   0  0  0  0  0  0  0  0  0  0  0  0
   59.7290  -43.8610   16.2860 N   0  0  0  0  0  0  0  0  0  0  0  0
   58.3510  -44.0050   16.2460 C   0  0  0  0  0  0  0  0  0  0  0  0
   57.9510  -44.4890   15.0030 C   0  0  0  0  0  0  0  0  0  0  0  0
   59.1320  -44.6100   14.3030 N   0  0  0  0  0  0  0  0  0  0  0  0
   59.3560  -45.1400   12.9720 C   0  0  0  0  0  2  0  0  0  0  0  0
   60.5890  -44.6870   12.3710 O   0  0  0  0  0  0  0  0  0  0  0  0
   56.6580  -44.8160   14.4180 C   0  0  0  0  0  0  0  0  0  0  0  0
   56.5170  -44.9070   13.0290 C   0  0  0  0  0  3  0  0  0  0  0  0
   55.2730  -45.2010   12.4680 C   0  0  0  0  0  3  0  0  0  0  0  0
   54.1680  -45.4040   13.2930 C   0  0  0  0  0  3  0  0  0  0  0  0
   54.3020  -45.3140   14.6780 C   0  0  0  0  0  3  0  0  0  0  0  0
   55.5450  -45.0200   15.2420 C   0  0  0  0  0  3  0  0  0  0  0  0
   57.5460  -43.6590   17.4170 C   0  0  0  0  0  0  0  0  0  0  0  0
   57.2620  -42.3530   17.8150 C   0  0  0  0  0  3  0  0  0  0  0  0
   56.4740  -42.0980   18.9480 C   0  0  0  0  0  3  0  0  0  0  0  0
   55.9210  -43.1310   19.7320 C   0  0  0  0  0  0  0  0  0  0  0  0
   56.2110  -44.4400   19.3100 C   0  0  0  0  0  3  0  0  0  0  0  0
   57.0040  -44.6970   18.1850 C   0  0  0  0  0  3  0  0  0  0  0  0
   55.0030  -42.8400   20.9780 C   0  0  1  0  0  0  0  0  0  0  0  0
   53.4910  -43.2180   20.9380 C   0  0  0  0  0  2  0  0  0  0  0  0
   53.5880  -43.4400   22.4780 C   0  0  1  0  0  0  0  0  0  0  0  0
   52.7250  -44.5630   23.0190 C   0  0  0  0  0  1  0  0  0  0  0  0
   55.0910  -43.7680   22.2310 C   0  0  0  0  0  2  0  0  0  0  0  0
   55.1790  -41.4090   21.3430 N   0  0  0  0  0  4  0  0  0  0  0  0
   56.1450  -41.1910   21.6050 H   0  0  0  0  0  0  0  0  0  0  0  0
   54.9160  -40.7850   20.5720 H   0  0  0  0  0  0  0  0  0  0  0  0
   54.5710  -41.1760   22.1530 H   0  0  0  0  0  0  0  0  0  0  0  0
   53.3970  -42.2160   23.2370 O   0  0  0  0  0  0  0  0  0  0  0  0
   53.0600  -42.4930   24.1160 H   0  0  0  0  0  0  0  0  0  0  0  0
   65.6840  -41.5940   14.5850 C   0  0  0  0  0  1  0  0  0  0  0  0
   65.8890  -42.7210   15.4660 N   0  0  0  0  0  0  0  0  0  0  0  0
   65.0720  -43.8020   15.6710 C   0  0  0  0  0  0  0  0  0  0  0  0
   65.2920  -44.5840   16.5910 O   0  0  0  0  0  0  0  0  0  0  0  0
   66.6840  -42.6960   16.0950 H   0  0  0  0  0  0  0  0  0  0  0  0
  1  6  1  0  0  0  0
  1 39  1  0  0  0  0
  2  1  2  0  0  0  0
  3  4  2  0  0  0  0
  3  2  1  0  0  0  0
  4  5  1  0  0  0  0
  5  7  1  0  0  0  0
  5  6  2  0  0  0  0
  7  8  2  0  0  0  0
  9  8  1  0  0  0  0
  9 20  1  0  0  0  0
 10  9  2  0  0  0  0
 11 10  1  0  0  0  0
 11  7  1  0  0  0  0
 12 11  1  0  0  0  0
 13 12  1  0  0  0  0
 13  4  1  0  0  0  0
 14 10  1  0  0  0  0
 14 19  1  0  0  0  0
 15 14  2  0  0  0  0
 16 15  1  0  0  0  0
 16 17  2  0  0  0  0
 17 18  1  0  0  0  0
 18 19  2  0  0  0  0
 20 21  2  0  0  0  0
 20 25  1  0  0  0  0
 21 22  1  0  0  0  0
 22 23  2  0  0  0  0
 23 26  1  0  0  0  0
 24 23  1  0  0  0  0
 25 24  2  0  0  0  0
 26 31  1  1  0  0  0
 26 30  1  0  0  0  0
 27 26  1  0  0  0  0
 27 28  1  0  0  0  0
 28 29  1  1  0  0  0
 28 35  1  0  0  0  0
 30 28  1  0  0  0  0
 31 32  1  0  0  0  0
 31 34  1  0  0  0  0
 33 31  1  0  0  0  0
 35 36  1  0  0  0  0
 37 38  1  0  0  0  0
 38 39  1  0  0  0  0
 38 41  1  0  0  0  0
 39 40  2  0  0  0  0
M  END
>  <minimizedAffinity>
-1.53056097

$$$$
