
 OpenBabel11232419373D

 41 46  0  0  1  0  0  0  0  0999 V2000
   64.4880  -42.6540   16.3670 C   0  0  0  0  0  0  0  0  0  0  0  0
   64.9580  -42.4530   15.0630 C   0  0  0  0  0  3  0  0  0  0  0  0
   64.0520  -42.3290   14.0060 C   0  0  0  0  0  3  0  0  0  0  0  0
   62.6840  -42.4380   14.2520 C   0  0  0  0  0  0  0  0  0  0  0  0
   62.2160  -42.6530   15.5540 C   0  0  0  0  0  0  0  0  0  0  0  0
   63.1160  -42.7710   16.6130 C   0  0  0  0  0  3  0  0  0  0  0  0
   60.7860  -42.7160   15.7430 C   0  0  0  0  0  0  0  0  0  0  0  0
   60.0810  -42.7390   16.8490 N   0  0  0  0  0  0  0  0  0  0  0  0
   58.7530  -42.7760   16.4540 C   0  0  0  0  0  0  0  0  0  0  0  0
   58.6610  -42.7930   15.0650 C   0  0  0  0  0  0  0  0  0  0  0  0
   59.9740  -42.7460   14.6490 N   0  0  0  0  0  0  0  0  0  0  0  0
   60.5100  -42.8160   13.3030 C   0  0  0  0  0  2  0  0  0  0  0  0
   61.8410  -42.2660   13.1830 O   0  0  0  0  0  0  0  0  0  0  0  0
   57.5460  -42.8250   14.1300 C   0  0  0  0  0  0  0  0  0  0  0  0
   57.2010  -41.6780   13.4050 C   0  0  0  0  0  3  0  0  0  0  0  0
   56.1200  -41.7040   12.5220 C   0  0  0  0  0  3  0  0  0  0  0  0
   55.3790  -42.8740   12.3630 C   0  0  0  0  0  3  0  0  0  0  0  0
   55.7170  -44.0200   13.0840 C   0  0  0  0  0  3  0  0  0  0  0  0
   56.7980  -43.9960   13.9660 C   0  0  0  0  0  3  0  0  0  0  0  0
   57.6920  -42.7900   17.4610 C   0  0  0  0  0  0  0  0  0  0  0  0
   56.7820  -43.8340   17.6250 C   0  0  0  0  0  3  0  0  0  0  0  0
   55.7940  -43.7810   18.6200 C   0  0  0  0  0  3  0  0  0  0  0  0
   55.6730  -42.6930   19.5080 C   0  0  0  0  0  0  0  0  0  0  0  0
   56.6050  -41.6540   19.3320 C   0  0  0  0  0  3  0  0  0  0  0  0
   57.5860  -41.7010   18.3340 C   0  0  0  0  0  3  0  0  0  0  0  0
   54.5890  -42.6570   20.6500 C   0  0  1  0  0  0  0  0  0  0  0  0
   53.5580  -43.8190   20.7820 C   0  0  0  0  0  2  0  0  0  0  0  0
   53.5530  -43.5330   22.3150 C   0  0  1  0  0  0  0  0  0  0  0  0
   53.3880  -44.7570   23.1950 C   0  0  0  0  0  1  0  0  0  0  0  0
   55.0040  -43.0040   22.1150 C   0  0  0  0  0  2  0  0  0  0  0  0
   53.8970  -41.3440   20.5730 N   0  0  0  0  0  4  0  0  0  0  0  0
   54.5370  -40.5570   20.7210 H   0  0  0  0  0  0  0  0  0  0  0  0
   53.4390  -41.2070   19.6640 H   0  0  0  0  0  0  0  0  0  0  0  0
   53.1580  -41.2930   21.3030 H   0  0  0  0  0  0  0  0  0  0  0  0
   52.6190  -42.4850   22.6900 O   0  0  0  0  0  0  0  0  0  0  0  0
   52.3760  -42.6620   23.6230 H   0  0  0  0  0  0  0  0  0  0  0  0
   64.2230  -41.0980   18.9410 C   0  0  0  0  0  1  0  0  0  0  0  0
   65.2920  -42.0110   18.6110 N   0  0  0  0  0  0  0  0  0  0  0  0
   65.4190  -42.8110   17.5050 C   0  0  0  0  0  0  0  0  0  0  0  0
   66.2910  -43.6720   17.4550 O   0  0  0  0  0  0  0  0  0  0  0  0
   66.0110  -42.1750   19.3060 H   0  0  0  0  0  0  0  0  0  0  0  0
  1  6  1  0  0  0  0
  1 39  1  0  0  0  0
  2  1  2  0  0  0  0
  3  4  2  0  0  0  0
  3  2  1  0  0  0  0
  4  5  1  0  0  0  0
  5  7  1  0  0  0  0
  5  6  2  0  0  0  0
  7  8  2  0  0  0  0
  9  8  1  0  0  0  0
  9 20  1  0  0  0  0
 10  9  2  0  0  0  0
 11 10  1  0  0  0  0
 11  7  1  0  0  0  0
 12 11  1  0  0  0  0
 13 12  1  0  0  0  0
 13  4  1  0  0  0  0
 14 10  1  0  0  0  0
 15 14  2  0  0  0  0
 16 15  1  0  0  0  0
 17 16  2  0  0  0  0
 17 18  1  0  0  0  0
 18 19  2  0  0  0  0
 19 14  1  0  0  0  0
 20 21  2  0  0  0  0
 20 25  1  0  0  0  0
 21 22  1  0  0  0  0
 22 23  2  0  0  0  0
 23 26  1  0  0  0  0
 24 23  1  0  0  0  0
 25 24  2  0  0  0  0
 26 31  1  6  0  0  0
 26 27  1  0  0  0  0
 26 30  1  0  0  0  0
 27 28  1  0  0  0  0
 28 35  1  0  0  0  0
 28 29  1  1  0  0  0
 30 28  1  0  0  0  0
 31 32  1  0  0  0  0
 31 34  1  0  0  0  0
 33 31  1  0  0  0  0
 35 36  1  0  0  0  0
 38 37  1  0  0  0  0
 38 41  1  0  0  0  0
 39 38  1  0  0  0  0
 40 39  2  0  0  0  0
M  END
>  <minimizedAffinity>
-4.16727352

$$$$
