
 OpenBabel11232419373D

 41 46  0  0  1  0  0  0  0  0999 V2000
   65.2730  -43.7580   14.0080 C   0  0  0  0  0  0  0  0  0  0  0  0
   66.3960  -43.0220   14.4040 C   0  0  0  0  0  3  0  0  0  0  0  0
   66.2830  -42.0730   15.4250 C   0  0  0  0  0  3  0  0  0  0  0  0
   65.0440  -41.8440   16.0210 C   0  0  0  0  0  0  0  0  0  0  0  0
   63.9190  -42.5710   15.6140 C   0  0  0  0  0  0  0  0  0  0  0  0
   64.0280  -43.5230   14.6000 C   0  0  0  0  0  3  0  0  0  0  0  0
   62.6760  -42.3110   16.3000 C   0  0  0  0  0  0  0  0  0  0  0  0
   61.5310  -42.9470   16.2440 N   0  0  0  0  0  0  0  0  0  0  0  0
   60.6850  -42.2910   17.1240 C   0  0  0  0  0  0  0  0  0  0  0  0
   61.3410  -41.2140   17.7150 C   0  0  0  0  0  0  0  0  0  0  0  0
   62.6070  -41.2650   17.1710 N   0  0  0  0  0  0  0  0  0  0  0  0
   63.7170  -40.3480   17.3520 C   0  0  0  0  0  2  0  0  0  0  0  0
   65.0030  -40.9320   17.0450 O   0  0  0  0  0  0  0  0  0  0  0  0
   60.9490  -40.2100   18.6920 C   0  0  0  0  0  0  0  0  0  0  0  0
   60.5230  -40.5970   19.9680 C   0  0  0  0  0  3  0  0  0  0  0  0
   60.1300  -39.6340   20.8980 C   0  0  0  0  0  3  0  0  0  0  0  0
   60.1600  -38.2820   20.5570 C   0  0  0  0  0  3  0  0  0  0  0  0
   60.5830  -37.8910   19.2870 C   0  0  0  0  0  3  0  0  0  0  0  0
   60.9770  -38.8520   18.3550 C   0  0  0  0  0  3  0  0  0  0  0  0
   59.3160  -42.7680   17.3130 C   0  0  0  0  0  0  0  0  0  0  0  0
   58.3540  -42.8090   16.3040 C   0  0  0  0  0  3  0  0  0  0  0  0
   57.0590  -43.2880   16.5590 C   0  0  0  0  0  3  0  0  0  0  0  0
   56.6640  -43.7610   17.8270 C   0  0  0  0  0  0  0  0  0  0  0  0
   57.6500  -43.7200   18.8280 C   0  0  0  0  0  3  0  0  0  0  0  0
   58.9400  -43.2340   18.5790 C   0  0  0  0  0  3  0  0  0  0  0  0
   55.2240  -44.3360   18.0970 C   0  0  1  0  0  0  0  0  0  0  0  0
   54.9400  -45.1490   19.3970 C   0  0  0  0  0  2  0  0  0  0  0  0
   53.4820  -44.6000   19.3260 C   0  0  1  0  0  0  0  0  0  0  0  0
   52.8340  -44.3270   20.6700 C   0  0  0  0  0  1  0  0  0  0  0  0
   54.0900  -43.3760   18.5790 C   0  0  0  0  0  2  0  0  0  0  0  0
   54.8130  -45.1070   16.8940 N   0  0  0  0  0  4  0  0  0  0  0  0
   54.7670  -44.5220   16.0540 H   0  0  0  0  0  0  0  0  0  0  0  0
   55.4590  -45.8820   16.7000 H   0  0  0  0  0  0  0  0  0  0  0  0
   53.8710  -45.5200   17.0450 H   0  0  0  0  0  0  0  0  0  0  0  0
   52.6190  -45.4040   18.4780 O   0  0  0  0  0  0  0  0  0  0  0  0
   51.7070  -45.2640   18.8120 H   0  0  0  0  0  0  0  0  0  0  0  0
   62.8350  -44.9510   12.6830 C   0  0  0  0  0  1  0  0  0  0  0  0
   64.2060  -45.3180   12.4190 N   0  0  0  0  0  0  0  0  0  0  0  0
   65.3520  -44.7530   12.9170 C   0  0  0  0  0  0  0  0  0  0  0  0
   66.4470  -45.0530   12.4530 O   0  0  0  0  0  0  0  0  0  0  0  0
   64.3830  -46.0190   11.7080 H   0  0  0  0  0  0  0  0  0  0  0  0
  1  2  2  0  0  0  0
  1  6  1  0  0  0  0
  2  3  1  0  0  0  0
  3  4  2  0  0  0  0
  4 13  1  0  0  0  0
  5  4  1  0  0  0  0
  5  7  1  0  0  0  0
  6  5  2  0  0  0  0
  7 11  1  0  0  0  0
  8  7  2  0  0  0  0
  8  9  1  0  0  0  0
  9 20  1  0  0  0  0
  9 10  2  0  0  0  0
 10 14  1  0  0  0  0
 11 12  1  0  0  0  0
 11 10  1  0  0  0  0
 13 12  1  0  0  0  0
 14 15  1  0  0  0  0
 15 16  2  0  0  0  0
 17 16  1  0  0  0  0
 18 17  2  0  0  0  0
 19 14  2  0  0  0  0
 19 18  1  0  0  0  0
 20 25  1  0  0  0  0
 21 22  1  0  0  0  0
 21 20  2  0  0  0  0
 22 23  2  0  0  0  0
 23 26  1  0  0  0  0
 23 24  1  0  0  0  0
 25 24  2  0  0  0  0
 26 31  1  6  0  0  0
 26 30  1  0  0  0  0
 26 27  1  0  0  0  0
 28 27  1  0  0  0  0
 28 29  1  1  0  0  0
 30 28  1  0  0  0  0
 31 34  1  0  0  0  0
 32 31  1  0  0  0  0
 33 31  1  0  0  0  0
 35 36  1  0  0  0  0
 35 28  1  0  0  0  0
 38 37  1  0  0  0  0
 38 39  1  0  0  0  0
 39  1  1  0  0  0  0
 40 39  2  0  0  0  0
 41 38  1  0  0  0  0
M  END
>  <minimizedAffinity>
-3.72269869

$$$$
