
 OpenBabel11232419373D

 41 46  0  0  1  0  0  0  0  0999 V2000
   64.3760  -43.0110   16.4470 C   0  0  0  0  0  0  0  0  0  0  0  0
   64.7680  -43.0030   15.1020 C   0  0  0  0  0  3  0  0  0  0  0  0
   63.7990  -42.9810   14.0940 C   0  0  0  0  0  3  0  0  0  0  0  0
   62.4470  -43.0000   14.4340 C   0  0  0  0  0  0  0  0  0  0  0  0
   62.0580  -43.0210   15.7790 C   0  0  0  0  0  0  0  0  0  0  0  0
   63.0210  -43.0370   16.7880 C   0  0  0  0  0  3  0  0  0  0  0  0
   60.6420  -42.9990   16.0600 C   0  0  0  0  0  0  0  0  0  0  0  0
   60.0100  -42.8470   17.1990 N   0  0  0  0  0  0  0  0  0  0  0  0
   58.6580  -42.8790   16.8930 C   0  0  0  0  0  0  0  0  0  0  0  0
   58.4760  -43.0750   15.5270 C   0  0  0  0  0  0  0  0  0  0  0  0
   59.7600  -43.1390   15.0310 N   0  0  0  0  0  0  0  0  0  0  0  0
   60.2050  -43.4070   13.6760 C   0  0  0  0  0  2  0  0  0  0  0  0
   61.5430  -42.9340   13.4050 O   0  0  0  0  0  0  0  0  0  0  0  0
   57.3020  -43.1820   14.6730 C   0  0  0  0  0  0  0  0  0  0  0  0
   56.7390  -42.0350   14.1020 C   0  0  0  0  0  3  0  0  0  0  0  0
   55.6020  -42.1370   13.2980 C   0  0  0  0  0  3  0  0  0  0  0  0
   55.0230  -43.3840   13.0650 C   0  0  0  0  0  3  0  0  0  0  0  0
   55.5790  -44.5300   13.6320 C   0  0  0  0  0  3  0  0  0  0  0  0
   56.7170  -44.4320   14.4360 C   0  0  0  0  0  3  0  0  0  0  0  0
   57.6660  -42.7170   17.9540 C   0  0  0  0  0  0  0  0  0  0  0  0
   56.9490  -41.5420   18.1840 C   0  0  0  0  0  3  0  0  0  0  0  0
   56.0050  -41.4640   19.2200 C   0  0  0  0  0  3  0  0  0  0  0  0
   55.7190  -42.5530   20.0670 C   0  0  0  0  0  0  0  0  0  0  0  0
   56.4450  -43.7300   19.8140 C   0  0  0  0  0  3  0  0  0  0  0  0
   57.3940  -43.8090   18.7870 C   0  0  0  0  0  3  0  0  0  0  0  0
   54.6290  -42.4720   21.2000 C   0  0  1  0  0  0  0  0  0  0  0  0
   54.9110  -41.6540   22.4970 C   0  0  0  0  0  2  0  0  0  0  0  0
   53.3790  -41.3760   22.5600 C   0  0  1  0  0  0  0  0  0  0  0  0
   52.9960  -40.0120   23.1010 C   0  0  0  0  0  1  0  0  0  0  0  0
   53.3910  -41.5390   21.0110 C   0  0  0  0  0  2  0  0  0  0  0  0
   54.2200  -43.8630   21.5330 N   0  0  0  0  0  4  0  0  0  0  0  0
   53.8060  -44.3480   20.7310 H   0  0  0  0  0  0  0  0  0  0  0  0
   55.0140  -44.4240   21.8620 H   0  0  0  0  0  0  0  0  0  0  0  0
   53.5130  -43.8490   22.2940 H   0  0  0  0  0  0  0  0  0  0  0  0
   52.6410  -42.4340   23.2310 O   0  0  0  0  0  0  0  0  0  0  0  0
   51.8310  -42.0130   23.5880 H   0  0  0  0  0  0  0  0  0  0  0  0
   64.2260  -41.2460   18.8920 C   0  0  0  0  0  1  0  0  0  0  0  0
   65.2940  -42.1670   18.5780 N   0  0  0  0  0  0  0  0  0  0  0  0
   65.3740  -43.0560   17.5380 C   0  0  0  0  0  0  0  0  0  0  0  0
   66.2590  -43.9050   17.5100 O   0  0  0  0  0  0  0  0  0  0  0  0
   66.0550  -42.2600   19.2420 H   0  0  0  0  0  0  0  0  0  0  0  0
  1  6  1  0  0  0  0
  1 39  1  0  0  0  0
  2  1  2  0  0  0  0
  3  4  2  0  0  0  0
  3  2  1  0  0  0  0
  4  5  1  0  0  0  0
  5  7  1  0  0  0  0
  5  6  2  0  0  0  0
  7  8  2  0  0  0  0
  9  8  1  0  0  0  0
  9 20  1  0  0  0  0
 10  9  2  0  0  0  0
 11 10  1  0  0  0  0
 11  7  1  0  0  0  0
 12 11  1  0  0  0  0
 13 12  1  0  0  0  0
 13  4  1  0  0  0  0
 14 10  1  0  0  0  0
 15 14  2  0  0  0  0
 16 15  1  0  0  0  0
 17 16  2  0  0  0  0
 17 18  1  0  0  0  0
 18 19  2  0  0  0  0
 19 14  1  0  0  0  0
 20 21  2  0  0  0  0
 20 25  1  0  0  0  0
 21 22  1  0  0  0  0
 22 23  2  0  0  0  0
 23 26  1  0  0  0  0
 24 23  1  0  0  0  0
 25 24  2  0  0  0  0
 26 31  1  1  0  0  0
 26 27  1  0  0  0  0
 27 28  1  0  0  0  0
 28 29  1  1  0  0  0
 28 35  1  0  0  0  0
 30 26  1  0  0  0  0
 30 28  1  0  0  0  0
 31 33  1  0  0  0  0
 31 34  1  0  0  0  0
 32 31  1  0  0  0  0
 35 36  1  0  0  0  0
 38 37  1  0  0  0  0
 38 41  1  0  0  0  0
 39 38  1  0  0  0  0
 40 39  2  0  0  0  0
M  END
>  <minimizedAffinity>
-4.41883516

$$$$
