
 OpenBabel11232419373D

 41 46  0  0  1  0  0  0  0  0999 V2000
   64.3760  -43.0110   16.4470 C   0  0  0  0  0  0  0  0  0  0  0  0
   64.7680  -43.0030   15.1020 C   0  0  0  0  0  3  0  0  0  0  0  0
   63.7990  -42.9810   14.0940 C   0  0  0  0  0  3  0  0  0  0  0  0
   62.4470  -43.0000   14.4340 C   0  0  0  0  0  0  0  0  0  0  0  0
   62.0580  -43.0210   15.7790 C   0  0  0  0  0  0  0  0  0  0  0  0
   63.0210  -43.0370   16.7880 C   0  0  0  0  0  3  0  0  0  0  0  0
   60.6420  -42.9990   16.0600 C   0  0  0  0  0  0  0  0  0  0  0  0
   60.0100  -42.8470   17.1990 N   0  0  0  0  0  0  0  0  0  0  0  0
   58.6580  -42.8790   16.8930 C   0  0  0  0  0  0  0  0  0  0  0  0
   58.4760  -43.0750   15.5270 C   0  0  0  0  0  0  0  0  0  0  0  0
   59.7600  -43.1390   15.0310 N   0  0  0  0  0  0  0  0  0  0  0  0
   60.2050  -43.4070   13.6760 C   0  0  0  0  0  2  0  0  0  0  0  0
   61.5430  -42.9340   13.4050 O   0  0  0  0  0  0  0  0  0  0  0  0
   57.3020  -43.1820   14.6730 C   0  0  0  0  0  0  0  0  0  0  0  0
   56.7390  -42.0350   14.1020 C   0  0  0  0  0  3  0  0  0  0  0  0
   55.6020  -42.1370   13.2980 C   0  0  0  0  0  3  0  0  0  0  0  0
   55.0230  -43.3840   13.0650 C   0  0  0  0  0  3  0  0  0  0  0  0
   55.5790  -44.5300   13.6320 C   0  0  0  0  0  3  0  0  0  0  0  0
   56.7170  -44.4320   14.4360 C   0  0  0  0  0  3  0  0  0  0  0  0
   57.6660  -42.7170   17.9540 C   0  0  0  0  0  0  0  0  0  0  0  0
   56.9490  -41.5420   18.1840 C   0  0  0  0  0  3  0  0  0  0  0  0
   56.0050  -41.4640   19.2200 C   0  0  0  0  0  3  0  0  0  0  0  0
   55.7190  -42.5530   20.0670 C   0  0  0  0  0  0  0  0  0  0  0  0
   56.4450  -43.7300   19.8140 C   0  0  0  0  0  3  0  0  0  0  0  0
   57.3940  -43.8090   18.7870 C   0  0  0  0  0  3  0  0  0  0  0  0
   54.6290  -42.4720   21.2000 C   0  0  1  0  0  0  0  0  0  0  0  0
   54.9110  -41.6540   22.4970 C   0  0  0  0  0  2  0  0  0  0  0  0
   53.3790  -41.3760   22.5600 C   0  0  1  0  0  0  0  0  0  0  0  0
   52.9960  -40.0120   23.1010 C   0  0  0  0  0  1  0  0  0  0  0  0
   53.3910  -41.5390   21.0110 C   0  0  0  0  0  2  0  0  0  0  0  0
   54.2200  -43.8630   21.5330 N   0  0  0  0  0  4  0  0  0  0  0  0
   53.8060  -44.3480   20.7310 H   0  0  0  0  0  0  0  0  0  0  0  0
   55.0140  -44.4240   21.8620 H   0  0  0  0  0  0  0  0  0  0  0  0
   53.5130  -43.8490   22.2940 H   0  0  0  0  0  0  0  0  0  0  0  0
   52.6410  -42.4340   23.2310 O   0  0  0  0  0  0  0  0  0  0  0  0
   51.8310  -42.0130   23.5880 H   0  0  0  0  0  0  0  0  0  0  0  0
   64.2260  -41.2460   18.8920 C   0  0  0  0  0  1  0  0  0  0  0  0
   65.2940  -42.1670   18.5780 N   0  0  0  0  0  0  0  0  0  0  0  0
   65.3740  -43.0560   17.5380 C   0  0  0  0  0  0  0  0  0  0  0  0
   66.2590  -43.9050   17.5100 O   0  0  0  0  0  0  0  0  0  0  0  0
   66.0550  -42.2600   19.2420 H   0  0  0  0  0  0  0  0  0  0  0  0
  1  6  1  0  0  0  0
  1 39  1  0  0  0  0
  2  1  2  0  0  0  0
  3  4  2  0  0  0  0
  3  2  1  0  0  0  0
  4  5  1  0  0  0  0
  5  7  1  0  0  0  0
  5  6  2  0  0  0  0
  7  8  2  0  0  0  0
  9  8  1  0  0  0  0
  9 20  1  0  0  0  0
 10  9  2  0  0  0  0
 11 10  1  0  0  0  0
 11  7  1  0  0  0  0
 12 11  1  0  0  0  0
 13 12  1  0  0  0  0
 13  4  1  0  0  0  0
 14 10  1  0  0  0  0
 15 14  2  0  0  0  0
 16 15  1  0  0  0  0
 17 16  2  0  0  0  0
 17 18  1  0  0  0  0
 18 19  2  0  0  0  0
 19 14  1  0  0  0  0
 20 21  2  0  0  0  0
 20 25  1  0  0  0  0
 21 22  1  0  0  0  0
 22 23  2  0  0  0  0
 23 26  1  0  0  0  0
 24 23  1  0  0  0  0
 25 24  2  0  0  0  0
 26 31  1  1  0  0  0
 26 27  1  0  0  0  0
 27 28  1  0  0  0  0
 28 29  1  1  0  0  0
 28 35  1  0  0  0  0
 30 26  1  0  0  0  0
 30 28  1  0  0  0  0
 31 33  1  0  0  0  0
 31 34  1  0  0  0  0
 32 31  1  0  0  0  0
 35 36  1  0  0  0  0
 38 37  1  0  0  0  0
 38 41  1  0  0  0  0
 39 38  1  0  0  0  0
 40 39  2  0  0  0  0
M  END
>  <minimizedAffinity>
-4.41883516

$$$$

 OpenBabel11232419373D

 41 46  0  0  1  0  0  0  0  0999 V2000
   64.4880  -42.6540   16.3670 C   0  0  0  0  0  0  0  0  0  0  0  0
   64.9580  -42.4530   15.0630 C   0  0  0  0  0  3  0  0  0  0  0  0
   64.0520  -42.3290   14.0060 C   0  0  0  0  0  3  0  0  0  0  0  0
   62.6840  -42.4380   14.2520 C   0  0  0  0  0  0  0  0  0  0  0  0
   62.2160  -42.6530   15.5540 C   0  0  0  0  0  0  0  0  0  0  0  0
   63.1160  -42.7710   16.6130 C   0  0  0  0  0  3  0  0  0  0  0  0
   60.7860  -42.7160   15.7430 C   0  0  0  0  0  0  0  0  0  0  0  0
   60.0810  -42.7390   16.8490 N   0  0  0  0  0  0  0  0  0  0  0  0
   58.7530  -42.7760   16.4540 C   0  0  0  0  0  0  0  0  0  0  0  0
   58.6610  -42.7930   15.0650 C   0  0  0  0  0  0  0  0  0  0  0  0
   59.9740  -42.7460   14.6490 N   0  0  0  0  0  0  0  0  0  0  0  0
   60.5100  -42.8160   13.3030 C   0  0  0  0  0  2  0  0  0  0  0  0
   61.8410  -42.2660   13.1830 O   0  0  0  0  0  0  0  0  0  0  0  0
   57.5460  -42.8250   14.1300 C   0  0  0  0  0  0  0  0  0  0  0  0
   57.2010  -41.6780   13.4050 C   0  0  0  0  0  3  0  0  0  0  0  0
   56.1200  -41.7040   12.5220 C   0  0  0  0  0  3  0  0  0  0  0  0
   55.3790  -42.8740   12.3630 C   0  0  0  0  0  3  0  0  0  0  0  0
   55.7170  -44.0200   13.0840 C   0  0  0  0  0  3  0  0  0  0  0  0
   56.7980  -43.9960   13.9660 C   0  0  0  0  0  3  0  0  0  0  0  0
   57.6920  -42.7900   17.4610 C   0  0  0  0  0  0  0  0  0  0  0  0
   56.7820  -43.8340   17.6250 C   0  0  0  0  0  3  0  0  0  0  0  0
   55.7940  -43.7810   18.6200 C   0  0  0  0  0  3  0  0  0  0  0  0
   55.6730  -42.6930   19.5080 C   0  0  0  0  0  0  0  0  0  0  0  0
   56.6050  -41.6540   19.3320 C   0  0  0  0  0  3  0  0  0  0  0  0
   57.5860  -41.7010   18.3340 C   0  0  0  0  0  3  0  0  0  0  0  0
   54.5890  -42.6570   20.6500 C   0  0  1  0  0  0  0  0  0  0  0  0
   53.5580  -43.8190   20.7820 C   0  0  0  0  0  2  0  0  0  0  0  0
   53.5530  -43.5330   22.3150 C   0  0  1  0  0  0  0  0  0  0  0  0
   53.3880  -44.7570   23.1950 C   0  0  0  0  0  1  0  0  0  0  0  0
   55.0040  -43.0040   22.1150 C   0  0  0  0  0  2  0  0  0  0  0  0
   53.8970  -41.3440   20.5730 N   0  0  0  0  0  4  0  0  0  0  0  0
   54.5370  -40.5570   20.7210 H   0  0  0  0  0  0  0  0  0  0  0  0
   53.4390  -41.2070   19.6640 H   0  0  0  0  0  0  0  0  0  0  0  0
   53.1580  -41.2930   21.3030 H   0  0  0  0  0  0  0  0  0  0  0  0
   52.6190  -42.4850   22.6900 O   0  0  0  0  0  0  0  0  0  0  0  0
   52.3760  -42.6620   23.6230 H   0  0  0  0  0  0  0  0  0  0  0  0
   64.2230  -41.0980   18.9410 C   0  0  0  0  0  1  0  0  0  0  0  0
   65.2920  -42.0110   18.6110 N   0  0  0  0  0  0  0  0  0  0  0  0
   65.4190  -42.8110   17.5050 C   0  0  0  0  0  0  0  0  0  0  0  0
   66.2910  -43.6720   17.4550 O   0  0  0  0  0  0  0  0  0  0  0  0
   66.0110  -42.1750   19.3060 H   0  0  0  0  0  0  0  0  0  0  0  0
  1  6  1  0  0  0  0
  1 39  1  0  0  0  0
  2  1  2  0  0  0  0
  3  4  2  0  0  0  0
  3  2  1  0  0  0  0
  4  5  1  0  0  0  0
  5  7  1  0  0  0  0
  5  6  2  0  0  0  0
  7  8  2  0  0  0  0
  9  8  1  0  0  0  0
  9 20  1  0  0  0  0
 10  9  2  0  0  0  0
 11 10  1  0  0  0  0
 11  7  1  0  0  0  0
 12 11  1  0  0  0  0
 13 12  1  0  0  0  0
 13  4  1  0  0  0  0
 14 10  1  0  0  0  0
 15 14  2  0  0  0  0
 16 15  1  0  0  0  0
 17 16  2  0  0  0  0
 17 18  1  0  0  0  0
 18 19  2  0  0  0  0
 19 14  1  0  0  0  0
 20 21  2  0  0  0  0
 20 25  1  0  0  0  0
 21 22  1  0  0  0  0
 22 23  2  0  0  0  0
 23 26  1  0  0  0  0
 24 23  1  0  0  0  0
 25 24  2  0  0  0  0
 26 31  1  6  0  0  0
 26 27  1  0  0  0  0
 26 30  1  0  0  0  0
 27 28  1  0  0  0  0
 28 35  1  0  0  0  0
 28 29  1  1  0  0  0
 30 28  1  0  0  0  0
 31 32  1  0  0  0  0
 31 34  1  0  0  0  0
 33 31  1  0  0  0  0
 35 36  1  0  0  0  0
 38 37  1  0  0  0  0
 38 41  1  0  0  0  0
 39 38  1  0  0  0  0
 40 39  2  0  0  0  0
M  END
>  <minimizedAffinity>
-4.16727352

$$$$

 OpenBabel11232419373D

 41 46  0  0  1  0  0  0  0  0999 V2000
   65.2730  -43.7580   14.0080 C   0  0  0  0  0  0  0  0  0  0  0  0
   66.3960  -43.0220   14.4040 C   0  0  0  0  0  3  0  0  0  0  0  0
   66.2830  -42.0730   15.4250 C   0  0  0  0  0  3  0  0  0  0  0  0
   65.0440  -41.8440   16.0210 C   0  0  0  0  0  0  0  0  0  0  0  0
   63.9190  -42.5710   15.6140 C   0  0  0  0  0  0  0  0  0  0  0  0
   64.0280  -43.5230   14.6000 C   0  0  0  0  0  3  0  0  0  0  0  0
   62.6760  -42.3110   16.3000 C   0  0  0  0  0  0  0  0  0  0  0  0
   61.5310  -42.9470   16.2440 N   0  0  0  0  0  0  0  0  0  0  0  0
   60.6850  -42.2910   17.1240 C   0  0  0  0  0  0  0  0  0  0  0  0
   61.3410  -41.2140   17.7150 C   0  0  0  0  0  0  0  0  0  0  0  0
   62.6070  -41.2650   17.1710 N   0  0  0  0  0  0  0  0  0  0  0  0
   63.7170  -40.3480   17.3520 C   0  0  0  0  0  2  0  0  0  0  0  0
   65.0030  -40.9320   17.0450 O   0  0  0  0  0  0  0  0  0  0  0  0
   60.9490  -40.2100   18.6920 C   0  0  0  0  0  0  0  0  0  0  0  0
   60.5230  -40.5970   19.9680 C   0  0  0  0  0  3  0  0  0  0  0  0
   60.1300  -39.6340   20.8980 C   0  0  0  0  0  3  0  0  0  0  0  0
   60.1600  -38.2820   20.5570 C   0  0  0  0  0  3  0  0  0  0  0  0
   60.5830  -37.8910   19.2870 C   0  0  0  0  0  3  0  0  0  0  0  0
   60.9770  -38.8520   18.3550 C   0  0  0  0  0  3  0  0  0  0  0  0
   59.3160  -42.7680   17.3130 C   0  0  0  0  0  0  0  0  0  0  0  0
   58.3540  -42.8090   16.3040 C   0  0  0  0  0  3  0  0  0  0  0  0
   57.0590  -43.2880   16.5590 C   0  0  0  0  0  3  0  0  0  0  0  0
   56.6640  -43.7610   17.8270 C   0  0  0  0  0  0  0  0  0  0  0  0
   57.6500  -43.7200   18.8280 C   0  0  0  0  0  3  0  0  0  0  0  0
   58.9400  -43.2340   18.5790 C   0  0  0  0  0  3  0  0  0  0  0  0
   55.2240  -44.3360   18.0970 C   0  0  1  0  0  0  0  0  0  0  0  0
   54.9400  -45.1490   19.3970 C   0  0  0  0  0  2  0  0  0  0  0  0
   53.4820  -44.6000   19.3260 C   0  0  1  0  0  0  0  0  0  0  0  0
   52.8340  -44.3270   20.6700 C   0  0  0  0  0  1  0  0  0  0  0  0
   54.0900  -43.3760   18.5790 C   0  0  0  0  0  2  0  0  0  0  0  0
   54.8130  -45.1070   16.8940 N   0  0  0  0  0  4  0  0  0  0  0  0
   54.7670  -44.5220   16.0540 H   0  0  0  0  0  0  0  0  0  0  0  0
   55.4590  -45.8820   16.7000 H   0  0  0  0  0  0  0  0  0  0  0  0
   53.8710  -45.5200   17.0450 H   0  0  0  0  0  0  0  0  0  0  0  0
   52.6190  -45.4040   18.4780 O   0  0  0  0  0  0  0  0  0  0  0  0
   51.7070  -45.2640   18.8120 H   0  0  0  0  0  0  0  0  0  0  0  0
   62.8350  -44.9510   12.6830 C   0  0  0  0  0  1  0  0  0  0  0  0
   64.2060  -45.3180   12.4190 N   0  0  0  0  0  0  0  0  0  0  0  0
   65.3520  -44.7530   12.9170 C   0  0  0  0  0  0  0  0  0  0  0  0
   66.4470  -45.0530   12.4530 O   0  0  0  0  0  0  0  0  0  0  0  0
   64.3830  -46.0190   11.7080 H   0  0  0  0  0  0  0  0  0  0  0  0
  1  2  2  0  0  0  0
  1  6  1  0  0  0  0
  2  3  1  0  0  0  0
  3  4  2  0  0  0  0
  4 13  1  0  0  0  0
  5  4  1  0  0  0  0
  5  7  1  0  0  0  0
  6  5  2  0  0  0  0
  7 11  1  0  0  0  0
  8  7  2  0  0  0  0
  8  9  1  0  0  0  0
  9 20  1  0  0  0  0
  9 10  2  0  0  0  0
 10 14  1  0  0  0  0
 11 12  1  0  0  0  0
 11 10  1  0  0  0  0
 13 12  1  0  0  0  0
 14 15  1  0  0  0  0
 15 16  2  0  0  0  0
 17 16  1  0  0  0  0
 18 17  2  0  0  0  0
 19 14  2  0  0  0  0
 19 18  1  0  0  0  0
 20 25  1  0  0  0  0
 21 22  1  0  0  0  0
 21 20  2  0  0  0  0
 22 23  2  0  0  0  0
 23 26  1  0  0  0  0
 23 24  1  0  0  0  0
 25 24  2  0  0  0  0
 26 31  1  6  0  0  0
 26 30  1  0  0  0  0
 26 27  1  0  0  0  0
 28 27  1  0  0  0  0
 28 29  1  1  0  0  0
 30 28  1  0  0  0  0
 31 34  1  0  0  0  0
 32 31  1  0  0  0  0
 33 31  1  0  0  0  0
 35 36  1  0  0  0  0
 35 28  1  0  0  0  0
 38 37  1  0  0  0  0
 38 39  1  0  0  0  0
 39  1  1  0  0  0  0
 40 39  2  0  0  0  0
 41 38  1  0  0  0  0
M  END
>  <minimizedAffinity>
-3.72269869

$$$$

 OpenBabel11232419373D

 41 46  0  0  1  0  0  0  0  0999 V2000
   64.5200  -43.5210   16.1570 C   0  0  0  0  0  0  0  0  0  0  0  0
   64.9300  -44.3570   15.1100 C   0  0  0  0  0  3  0  0  0  0  0  0
   63.9810  -44.8980   14.2390 C   0  0  0  0  0  3  0  0  0  0  0  0
   62.6270  -44.6280   14.4350 C   0  0  0  0  0  0  0  0  0  0  0  0
   62.2180  -43.8040   15.4900 C   0  0  0  0  0  0  0  0  0  0  0  0
   63.1620  -43.2560   16.3590 C   0  0  0  0  0  3  0  0  0  0  0  0
   60.8050  -43.5340   15.6120 C   0  0  0  0  0  0  0  0  0  0  0  0
   60.1710  -42.6840   16.3840 N   0  0  0  0  0  0  0  0  0  0  0  0
   58.8270  -42.8190   16.0770 C   0  0  0  0  0  0  0  0  0  0  0  0
   58.6480  -43.7960   15.1010 C   0  0  0  0  0  0  0  0  0  0  0  0
   59.9300  -44.2220   14.8260 N   0  0  0  0  0  0  0  0  0  0  0  0
   60.3700  -45.2850   13.9420 C   0  0  0  0  0  2  0  0  0  0  0  0
   61.7470  -45.1530   13.5230 O   0  0  0  0  0  0  0  0  0  0  0  0
   57.4810  -44.3340   14.4170 C   0  0  0  0  0  0  0  0  0  0  0  0
   56.3870  -44.8020   15.1530 C   0  0  0  0  0  3  0  0  0  0  0  0
   55.2760  -45.3350   14.4970 C   0  0  0  0  0  3  0  0  0  0  0  0
   55.2560  -45.4040   13.1050 C   0  0  0  0  0  3  0  0  0  0  0  0
   56.3440  -44.9400   12.3660 C   0  0  0  0  0  3  0  0  0  0  0  0
   57.4560  -44.4050   13.0190 C   0  0  0  0  0  3  0  0  0  0  0  0
   57.8350  -41.9870   16.7580 C   0  0  0  0  0  0  0  0  0  0  0  0
   58.1420  -41.0590   17.7540 C   0  0  0  0  0  3  0  0  0  0  0  0
   57.1360  -40.2890   18.3580 C   0  0  0  0  0  3  0  0  0  0  0  0
   55.7790  -40.3970   17.9920 C   0  0  0  0  0  0  0  0  0  0  0  0
   55.4910  -41.3310   16.9820 C   0  0  0  0  0  3  0  0  0  0  0  0
   56.4920  -42.1070   16.3830 C   0  0  0  0  0  3  0  0  0  0  0  0
   54.6600  -39.5010   18.6440 C   0  0  1  0  0  0  0  0  0  0  0  0
   54.9100  -37.9780   18.8640 C   0  0  0  0  0  2  0  0  0  0  0  0
   53.3770  -37.7790   18.6660 C   0  0  1  0  0  0  0  0  0  0  0  0
   52.9820  -36.4910   17.9680 C   0  0  0  0  0  1  0  0  0  0  0  0
   53.4290  -39.0650   17.7880 C   0  0  0  0  0  2  0  0  0  0  0  0
   54.2410  -40.1550   19.9120 N   0  0  0  0  0  4  0  0  0  0  0  0
   53.8480  -41.0880   19.7570 H   0  0  0  0  0  0  0  0  0  0  0  0
   55.0260  -40.2520   20.5670 H   0  0  0  0  0  0  0  0  0  0  0  0
   53.5150  -39.5790   20.3810 H   0  0  0  0  0  0  0  0  0  0  0  0
   52.6220  -37.9660   19.8930 O   0  0  0  0  0  0  0  0  0  0  0  0
   51.8030  -37.4360   19.7890 H   0  0  0  0  0  0  0  0  0  0  0  0
   65.1600  -44.7900   18.8210 C   0  0  0  0  0  1  0  0  0  0  0  0
   65.6740  -43.5290   18.3390 N   0  0  0  0  0  0  0  0  0  0  0  0
   65.4940  -42.9490   17.1110 C   0  0  0  0  0  0  0  0  0  0  0  0
   66.1490  -41.9640   16.7850 O   0  0  0  0  0  0  0  0  0  0  0  0
   66.3300  -43.0260   18.9260 H   0  0  0  0  0  0  0  0  0  0  0  0
  1  6  1  0  0  0  0
  1 39  1  0  0  0  0
  2  1  2  0  0  0  0
  3  4  2  0  0  0  0
  3  2  1  0  0  0  0
  4  5  1  0  0  0  0
  5  7  1  0  0  0  0
  5  6  2  0  0  0  0
  7  8  2  0  0  0  0
  9  8  1  0  0  0  0
  9 20  1  0  0  0  0
 10  9  2  0  0  0  0
 11 10  1  0  0  0  0
 11  7  1  0  0  0  0
 12 11  1  0  0  0  0
 13 12  1  0  0  0  0
 13  4  1  0  0  0  0
 14 10  1  0  0  0  0
 14 15  1  0  0  0  0
 16 15  2  0  0  0  0
 17 16  1  0  0  0  0
 18 19  1  0  0  0  0
 18 17  2  0  0  0  0
 19 14  2  0  0  0  0
 20 21  1  0  0  0  0
 21 22  2  0  0  0  0
 23 22  1  0  0  0  0
 23 26  1  0  0  0  0
 24 23  2  0  0  0  0
 25 20  2  0  0  0  0
 25 24  1  0  0  0  0
 26 27  1  0  0  0  0
 26 31  1  1  0  0  0
 28 29  1  6  0  0  0
 28 27  1  0  0  0  0
 28 35  1  0  0  0  0
 30 26  1  0  0  0  0
 30 28  1  0  0  0  0
 31 34  1  0  0  0  0
 31 33  1  0  0  0  0
 32 31  1  0  0  0  0
 36 35  1  0  0  0  0
 38 37  1  0  0  0  0
 38 41  1  0  0  0  0
 39 38  1  0  0  0  0
 40 39  2  0  0  0  0
M  END
>  <minimizedAffinity>
-2.29479599

$$$$

 OpenBabel11232419373D

 41 46  0  0  1  0  0  0  0  0999 V2000
   63.9010  -44.0220   14.7950 C   0  0  0  0  0  0  0  0  0  0  0  0
   64.0540  -44.2830   13.4270 C   0  0  0  0  0  3  0  0  0  0  0  0
   62.9280  -44.5080   12.6310 C   0  0  0  0  0  3  0  0  0  0  0  0
   61.6590  -44.5030   13.2090 C   0  0  0  0  0  0  0  0  0  0  0  0
   61.5090  -44.2560   14.5790 C   0  0  0  0  0  0  0  0  0  0  0  0
   62.6300  -44.0250   15.3770 C   0  0  0  0  0  3  0  0  0  0  0  0
   60.1650  -44.2260   15.1050 C   0  0  0  0  0  0  0  0  0  0  0  0
   59.7290  -43.8610   16.2860 N   0  0  0  0  0  0  0  0  0  0  0  0
   58.3510  -44.0050   16.2460 C   0  0  0  0  0  0  0  0  0  0  0  0
   57.9510  -44.4890   15.0030 C   0  0  0  0  0  0  0  0  0  0  0  0
   59.1320  -44.6100   14.3030 N   0  0  0  0  0  0  0  0  0  0  0  0
   59.3560  -45.1400   12.9720 C   0  0  0  0  0  2  0  0  0  0  0  0
   60.5890  -44.6870   12.3710 O   0  0  0  0  0  0  0  0  0  0  0  0
   56.6580  -44.8160   14.4180 C   0  0  0  0  0  0  0  0  0  0  0  0
   56.5170  -44.9070   13.0290 C   0  0  0  0  0  3  0  0  0  0  0  0
   55.2730  -45.2010   12.4680 C   0  0  0  0  0  3  0  0  0  0  0  0
   54.1680  -45.4040   13.2930 C   0  0  0  0  0  3  0  0  0  0  0  0
   54.3020  -45.3140   14.6780 C   0  0  0  0  0  3  0  0  0  0  0  0
   55.5450  -45.0200   15.2420 C   0  0  0  0  0  3  0  0  0  0  0  0
   57.5460  -43.6590   17.4170 C   0  0  0  0  0  0  0  0  0  0  0  0
   57.2620  -42.3530   17.8150 C   0  0  0  0  0  3  0  0  0  0  0  0
   56.4740  -42.0980   18.9480 C   0  0  0  0  0  3  0  0  0  0  0  0
   55.9210  -43.1310   19.7320 C   0  0  0  0  0  0  0  0  0  0  0  0
   56.2110  -44.4400   19.3100 C   0  0  0  0  0  3  0  0  0  0  0  0
   57.0040  -44.6970   18.1850 C   0  0  0  0  0  3  0  0  0  0  0  0
   55.0030  -42.8400   20.9780 C   0  0  1  0  0  0  0  0  0  0  0  0
   53.4910  -43.2180   20.9380 C   0  0  0  0  0  2  0  0  0  0  0  0
   53.5880  -43.4400   22.4780 C   0  0  1  0  0  0  0  0  0  0  0  0
   52.7250  -44.5630   23.0190 C   0  0  0  0  0  1  0  0  0  0  0  0
   55.0910  -43.7680   22.2310 C   0  0  0  0  0  2  0  0  0  0  0  0
   55.1790  -41.4090   21.3430 N   0  0  0  0  0  4  0  0  0  0  0  0
   56.1450  -41.1910   21.6050 H   0  0  0  0  0  0  0  0  0  0  0  0
   54.9160  -40.7850   20.5720 H   0  0  0  0  0  0  0  0  0  0  0  0
   54.5710  -41.1760   22.1530 H   0  0  0  0  0  0  0  0  0  0  0  0
   53.3970  -42.2160   23.2370 O   0  0  0  0  0  0  0  0  0  0  0  0
   53.0600  -42.4930   24.1160 H   0  0  0  0  0  0  0  0  0  0  0  0
   65.6840  -41.5940   14.5850 C   0  0  0  0  0  1  0  0  0  0  0  0
   65.8890  -42.7210   15.4660 N   0  0  0  0  0  0  0  0  0  0  0  0
   65.0720  -43.8020   15.6710 C   0  0  0  0  0  0  0  0  0  0  0  0
   65.2920  -44.5840   16.5910 O   0  0  0  0  0  0  0  0  0  0  0  0
   66.6840  -42.6960   16.0950 H   0  0  0  0  0  0  0  0  0  0  0  0
  1  6  1  0  0  0  0
  1 39  1  0  0  0  0
  2  1  2  0  0  0  0
  3  4  2  0  0  0  0
  3  2  1  0  0  0  0
  4  5  1  0  0  0  0
  5  7  1  0  0  0  0
  5  6  2  0  0  0  0
  7  8  2  0  0  0  0
  9  8  1  0  0  0  0
  9 20  1  0  0  0  0
 10  9  2  0  0  0  0
 11 10  1  0  0  0  0
 11  7  1  0  0  0  0
 12 11  1  0  0  0  0
 13 12  1  0  0  0  0
 13  4  1  0  0  0  0
 14 10  1  0  0  0  0
 14 19  1  0  0  0  0
 15 14  2  0  0  0  0
 16 15  1  0  0  0  0
 16 17  2  0  0  0  0
 17 18  1  0  0  0  0
 18 19  2  0  0  0  0
 20 21  2  0  0  0  0
 20 25  1  0  0  0  0
 21 22  1  0  0  0  0
 22 23  2  0  0  0  0
 23 26  1  0  0  0  0
 24 23  1  0  0  0  0
 25 24  2  0  0  0  0
 26 31  1  1  0  0  0
 26 30  1  0  0  0  0
 27 26  1  0  0  0  0
 27 28  1  0  0  0  0
 28 29  1  1  0  0  0
 28 35  1  0  0  0  0
 30 28  1  0  0  0  0
 31 32  1  0  0  0  0
 31 34  1  0  0  0  0
 33 31  1  0  0  0  0
 35 36  1  0  0  0  0
 37 38  1  0  0  0  0
 38 39  1  0  0  0  0
 38 41  1  0  0  0  0
 39 40  2  0  0  0  0
M  END
>  <minimizedAffinity>
-1.53056097

$$$$
