
 OpenBabel11232419333D

 38 44  0  0  1  0  0  0  0  0999 V2000
   33.1020   44.6160   16.6000 C   0  0  0  0  0  0  0  0  0  0  0  0
   33.4840   45.6880   17.4330 C   0  0  0  0  0  3  0  0  0  0  0  0
   34.7020   45.6970   18.1260 C   0  0  0  0  0  3  0  0  0  0  0  0
   35.6030   44.6430   17.9880 C   0  0  0  0  0  0  0  0  0  0  0  0
   35.2660   43.5730   17.1620 C   0  0  0  0  0  3  0  0  0  0  0  0
   34.0400   43.5620   16.4880 C   0  0  0  0  0  3  0  0  0  0  0  0
   36.8430   44.6580   18.7350 C   0  0  0  0  0  0  0  0  0  0  0  0
   36.9230   44.1660   20.0180 N   0  0  0  0  0  0  0  0  0  0  0  0
   38.1790   44.3330   20.3720 C   0  0  0  0  0  0  0  0  0  0  0  0
   38.8950   44.9320   19.3740 N   0  0  0  0  0  0  0  0  0  0  0  0
   38.0680   45.1450   18.2970 C   0  0  0  0  0  0  0  0  0  0  0  0
   40.3190   45.1870   19.5000 C   0  0  0  0  0  2  0  0  0  0  0  0
   40.7760   45.2730   20.8660 O   0  0  0  0  0  0  0  0  0  0  0  0
   40.1420   44.4800   21.7820 C   0  0  0  0  0  0  0  0  0  0  0  0
   40.7780   44.1960   22.9780 C   0  0  0  0  0  3  0  0  0  0  0  0
   40.2260   43.4480   23.9620 N   0  0  0  0  0  0  0  0  0  0  0  0
   38.9750   42.9810   23.7510 C   0  0  0  0  0  3  0  0  0  0  0  0
   38.2470   43.2300   22.6000 C   0  0  0  0  0  3  0  0  0  0  0  0
   38.8480   43.9930   21.6040 C   0  0  0  0  0  0  0  0  0  0  0  0
   38.4730   45.7950   17.0590 C   0  0  0  0  0  0  0  0  0  0  0  0
   38.0270   45.2960   15.8300 C   0  0  0  0  0  3  0  0  0  0  0  0
   38.4010   45.9200   14.6390 C   0  0  0  0  0  3  0  0  0  0  0  0
   39.2280   47.0420   14.6690 C   0  0  0  0  0  3  0  0  0  0  0  0
   39.6810   47.5410   15.8910 C   0  0  0  0  0  3  0  0  0  0  0  0
   39.3060   46.9200   17.0830 C   0  0  0  0  0  3  0  0  0  0  0  0
   31.7160   44.5750   15.8190 C   0  0  2  0  0  0  0  0  0  0  0  0
   30.3760   44.6530   16.5860 C   0  0  0  0  0  2  0  0  0  0  0  0
   30.0780   43.1590   16.2430 C   0  0  1  0  0  0  0  0  0  0  0  0
   31.2590   43.2200   15.2250 C   0  0  0  0  0  2  0  0  0  0  0  0
   31.7790   45.6310   14.7780 N   0  0  0  0  0  4  0  0  0  0  0  0
   30.9180   45.6780   14.2170 H   0  0  0  0  0  0  0  0  0  0  0  0
   32.5630   45.4790   14.1310 H   0  0  0  0  0  0  0  0  0  0  0  0
   31.9220   46.5580   15.2020 H   0  0  0  0  0  0  0  0  0  0  0  0
   30.1720   42.2080   17.4280 C   0  0  0  0  0  3  0  0  0  0  0  0
   30.1880   40.7090   17.2930 C   0  0  0  0  0  2  0  0  0  0  0  0
   31.3850   41.4270   17.8520 C   0  0  0  0  0  2  0  0  0  0  0  0
   28.8130   43.0290   15.5540 O   0  0  0  0  0  0  0  0  0  0  0  0
   28.6180   42.0710   15.5420 H   0  0  0  0  0  0  0  0  0  0  0  0
  1  2  1  0  0  0  0
  2  3  2  0  0  0  0
  4  3  1  0  0  0  0
  4  7  1  0  0  0  0
  5  4  2  0  0  0  0
  6  1  2  0  0  0  0
  6  5  1  0  0  0  0
  7  8  1  0  0  0  0
  8  9  2  0  0  0  0
  9 19  1  0  0  0  0
 10 12  1  0  0  0  0
 10  9  1  0  0  0  0
 11  7  2  0  0  0  0
 11 10  1  0  0  0  0
 12 13  1  0  0  0  0
 13 14  1  0  0  0  0
 14 15  1  0  0  0  0
 15 16  2  0  0  0  0
 17 16  1  0  0  0  0
 18 17  2  0  0  0  0
 19 14  2  0  0  0  0
 19 18  1  0  0  0  0
 20 25  1  0  0  0  0
 20 11  1  0  0  0  0
 21 20  2  0  0  0  0
 22 23  2  0  0  0  0
 22 21  1  0  0  0  0
 23 24  1  0  0  0  0
 24 25  2  0  0  0  0
 26 30  1  6  0  0  0
 26 27  1  0  0  0  0
 26  1  1  0  0  0  0
 28 37  1  6  0  0  0
 28 27  1  0  0  0  0
 28 34  1  0  0  0  0
 29 26  1  0  0  0  0
 29 28  1  0  0  0  0
 30 33  1  0  0  0  0
 31 30  1  0  0  0  0
 32 30  1  0  0  0  0
 34 36  1  0  0  0  0
 35 34  1  0  0  0  0
 35 36  1  0  0  0  0
 38 37  1  0  0  0  0
M  END
>  <minimizedAffinity>
-11.1589956

$$$$
