
 OpenBabel11232419333D

 38 44  0  0  1  0  0  0  0  0999 V2000
   32.4180   43.1890   17.2300 C   0  0  0  0  0  0  0  0  0  0  0  0
   32.6190   44.4690   17.7880 C   0  0  0  0  0  3  0  0  0  0  0  0
   33.8990   44.9950   18.0060 C   0  0  0  0  0  3  0  0  0  0  0  0
   35.0330   44.2700   17.6440 C   0  0  0  0  0  0  0  0  0  0  0  0
   34.8730   43.0080   17.0750 C   0  0  0  0  0  3  0  0  0  0  0  0
   33.5920   42.4810   16.8780 C   0  0  0  0  0  3  0  0  0  0  0  0
   36.3480   44.8190   17.9030 C   0  0  0  0  0  0  0  0  0  0  0  0
   36.9520   45.6950   17.0310 N   0  0  0  0  0  0  0  0  0  0  0  0
   38.1100   45.9850   17.5830 C   0  0  0  0  0  0  0  0  0  0  0  0
   38.2770   45.3100   18.7600 N   0  0  0  0  0  0  0  0  0  0  0  0
   37.1530   44.5560   19.0040 C   0  0  0  0  0  0  0  0  0  0  0  0
   39.4560   45.4910   19.5870 C   0  0  0  0  0  2  0  0  0  0  0  0
   40.6090   45.9660   18.8600 O   0  0  0  0  0  0  0  0  0  0  0  0
   40.3740   46.8140   17.8130 C   0  0  0  0  0  0  0  0  0  0  0  0
   41.4030   47.6210   17.3590 C   0  0  0  0  0  3  0  0  0  0  0  0
   41.2840   48.4700   16.3120 N   0  0  0  0  0  0  0  0  0  0  0  0
   40.0910   48.5000   15.6780 C   0  0  0  0  0  3  0  0  0  0  0  0
   39.0080   47.7170   16.0410 C   0  0  0  0  0  3  0  0  0  0  0  0
   39.1610   46.8620   17.1270 C   0  0  0  0  0  0  0  0  0  0  0  0
   36.9810   43.6770   20.1510 C   0  0  0  0  0  0  0  0  0  0  0  0
   37.4430   44.0720   21.4110 C   0  0  0  0  0  3  0  0  0  0  0  0
   37.2710   43.2400   22.5180 C   0  0  0  0  0  3  0  0  0  0  0  0
   36.6410   42.0050   22.3700 C   0  0  0  0  0  3  0  0  0  0  0  0
   36.1830   41.6010   21.1160 C   0  0  0  0  0  3  0  0  0  0  0  0
   36.3520   42.4340   20.0080 C   0  0  0  0  0  3  0  0  0  0  0  0
   30.9730   42.5640   16.9910 C   0  0  2  0  0  0  0  0  0  0  0  0
   30.1960   41.9070   18.1550 C   0  0  0  0  0  2  0  0  0  0  0  0
   30.3990   40.4980   17.5120 C   0  0  1  0  0  0  0  0  0  0  0  0
   30.8830   41.2250   16.2190 C   0  0  0  0  0  2  0  0  0  0  0  0
   30.1500   43.6180   16.3490 N   0  0  0  0  0  4  0  0  0  0  0  0
   29.1910   43.3010   16.1540 H   0  0  0  0  0  0  0  0  0  0  0  0
   30.5600   43.9300   15.4600 H   0  0  0  0  0  0  0  0  0  0  0  0
   30.0830   44.4500   16.9510 H   0  0  0  0  0  0  0  0  0  0  0  0
   31.3700   39.5960   18.2610 C   0  0  0  0  0  3  0  0  0  0  0  0
   31.3250   39.3780   19.7490 C   0  0  0  0  0  2  0  0  0  0  0  0
   31.0750   38.2290   18.8120 C   0  0  0  0  0  2  0  0  0  0  0  0
   29.1280   39.8440   17.2890 O   0  0  0  0  0  0  0  0  0  0  0  0
   29.3450   38.9180   17.0650 H   0  0  0  0  0  0  0  0  0  0  0  0
  1  2  1  0  0  0  0
  2  3  2  0  0  0  0
  4  7  1  0  0  0  0
  4  3  1  0  0  0  0
  5  4  2  0  0  0  0
  6  5  1  0  0  0  0
  6  1  2  0  0  0  0
  7 11  2  0  0  0  0
  8  9  2  0  0  0  0
  8  7  1  0  0  0  0
  9 10  1  0  0  0  0
 10 11  1  0  0  0  0
 10 12  1  0  0  0  0
 11 20  1  0  0  0  0
 13 12  1  0  0  0  0
 14 13  1  0  0  0  0
 15 14  1  0  0  0  0
 16 15  2  0  0  0  0
 17 18  2  0  0  0  0
 17 16  1  0  0  0  0
 18 19  1  0  0  0  0
 19  9  1  0  0  0  0
 19 14  2  0  0  0  0
 20 21  1  0  0  0  0
 21 22  2  0  0  0  0
 23 22  1  0  0  0  0
 24 23  2  0  0  0  0
 25 20  2  0  0  0  0
 25 24  1  0  0  0  0
 26 30  1  6  0  0  0
 26  1  1  0  0  0  0
 26 27  1  0  0  0  0
 28 37  1  6  0  0  0
 28 27  1  0  0  0  0
 28 34  1  0  0  0  0
 29 26  1  0  0  0  0
 29 28  1  0  0  0  0
 30 33  1  0  0  0  0
 31 30  1  0  0  0  0
 32 30  1  0  0  0  0
 34 36  1  0  0  0  0
 34 35  1  0  0  0  0
 36 35  1  0  0  0  0
 38 37  1  0  0  0  0
M  END
>  <minimizedAffinity>
-10.354373

$$$$
