
 OpenBabel11232419333D

 38 44  0  0  1  0  0  0  0  0999 V2000
   32.7010   43.0230   17.4370 C   0  0  0  0  0  0  0  0  0  0  0  0
   33.8880   42.5190   16.8650 C   0  0  0  0  0  3  0  0  0  0  0  0
   35.1490   43.0320   17.1920 C   0  0  0  0  0  3  0  0  0  0  0  0
   35.2760   44.0540   18.1320 C   0  0  0  0  0  0  0  0  0  0  0  0
   34.1260   44.5660   18.7290 C   0  0  0  0  0  3  0  0  0  0  0  0
   32.8680   44.0620   18.3830 C   0  0  0  0  0  3  0  0  0  0  0  0
   36.5860   44.5890   18.4360 C   0  0  0  0  0  0  0  0  0  0  0  0
   37.2380   45.4430   17.5750 N   0  0  0  0  0  0  0  0  0  0  0  0
   38.3770   45.7270   18.1690 C   0  0  0  0  0  0  0  0  0  0  0  0
   38.4860   45.0690   19.3630 N   0  0  0  0  0  0  0  0  0  0  0  0
   37.3430   44.3350   19.5730 C   0  0  0  0  0  0  0  0  0  0  0  0
   39.6320   45.2490   20.2350 C   0  0  0  0  0  2  0  0  0  0  0  0
   40.8200   45.6960   19.5480 O   0  0  0  0  0  0  0  0  0  0  0  0
   40.6410   46.5290   18.4780 C   0  0  0  0  0  0  0  0  0  0  0  0
   41.6990   47.3140   18.0530 C   0  0  0  0  0  3  0  0  0  0  0  0
   41.6340   48.1470   16.9890 N   0  0  0  0  0  0  0  0  0  0  0  0
   40.4680   48.1820   16.3060 C   0  0  0  0  0  3  0  0  0  0  0  0
   39.3610   47.4200   16.6370 C   0  0  0  0  0  3  0  0  0  0  0  0
   39.4570   46.5820   17.7420 C   0  0  0  0  0  0  0  0  0  0  0  0
   37.1110   43.4780   20.7260 C   0  0  0  0  0  0  0  0  0  0  0  0
   37.4250   43.9340   22.0110 C   0  0  0  0  0  3  0  0  0  0  0  0
   37.1950   43.1230   23.1230 C   0  0  0  0  0  3  0  0  0  0  0  0
   36.6560   41.8490   22.9560 C   0  0  0  0  0  3  0  0  0  0  0  0
   36.3460   41.3840   21.6780 C   0  0  0  0  0  3  0  0  0  0  0  0
   36.5730   42.1950   20.5650 C   0  0  0  0  0  3  0  0  0  0  0  0
   31.2550   42.4690   17.0650 C   0  0  2  0  0  0  0  0  0  0  0  0
   30.6920   42.6310   15.6340 C   0  0  0  0  0  2  0  0  0  0  0  0
   29.6480   43.6720   16.1500 C   0  0  1  0  0  0  0  0  0  0  0  0
   30.0240   43.2410   17.6020 C   0  0  0  0  0  2  0  0  0  0  0  0
   31.2240   41.0430   17.4760 N   0  0  0  0  0  4  0  0  0  0  0  0
   30.3190   40.5980   17.2730 H   0  0  0  0  0  0  0  0  0  0  0  0
   31.4050   40.9340   18.4810 H   0  0  0  0  0  0  0  0  0  0  0  0
   31.9490   40.5030   16.9840 H   0  0  0  0  0  0  0  0  0  0  0  0
   29.9150   45.1050   15.7120 C   0  0  0  0  0  3  0  0  0  0  0  0
   31.2870   45.6370   15.3970 C   0  0  0  0  0  2  0  0  0  0  0  0
   30.2410   45.5660   14.3180 C   0  0  0  0  0  2  0  0  0  0  0  0
   28.3010   43.2570   15.8240 O   0  0  0  0  0  0  0  0  0  0  0  0
   27.7360   44.0320   16.0100 H   0  0  0  0  0  0  0  0  0  0  0  0
  1  6  1  0  0  0  0
  2  3  1  0  0  0  0
  2  1  2  0  0  0  0
  3  4  2  0  0  0  0
  4  7  1  0  0  0  0
  4  5  1  0  0  0  0
  6  5  2  0  0  0  0
  7 11  2  0  0  0  0
  8  9  2  0  0  0  0
  8  7  1  0  0  0  0
  9 10  1  0  0  0  0
 10 11  1  0  0  0  0
 10 12  1  0  0  0  0
 11 20  1  0  0  0  0
 13 12  1  0  0  0  0
 14 13  1  0  0  0  0
 15 14  1  0  0  0  0
 16 15  2  0  0  0  0
 17 18  2  0  0  0  0
 17 16  1  0  0  0  0
 18 19  1  0  0  0  0
 19  9  1  0  0  0  0
 19 14  2  0  0  0  0
 20 21  1  0  0  0  0
 21 22  2  0  0  0  0
 23 22  1  0  0  0  0
 24 23  2  0  0  0  0
 25 20  2  0  0  0  0
 25 24  1  0  0  0  0
 26  1  1  0  0  0  0
 26 30  1  1  0  0  0
 26 29  1  0  0  0  0
 27 28  1  0  0  0  0
 27 26  1  0  0  0  0
 28 37  1  6  0  0  0
 28 29  1  0  0  0  0
 30 32  1  0  0  0  0
 31 30  1  0  0  0  0
 33 30  1  0  0  0  0
 34 28  1  0  0  0  0
 35 34  1  0  0  0  0
 36 35  1  0  0  0  0
 36 34  1  0  0  0  0
 37 38  1  0  0  0  0
M  END
>  <minimizedAffinity>
-11.4084024

$$$$
