
 OpenBabel11232419333D

 38 44  0  0  1  0  0  0  0  0999 V2000
   33.0050   43.5360   16.9600 C   0  0  0  0  0  0  0  0  0  0  0  0
   34.1480   42.8340   16.5240 C   0  0  0  0  0  3  0  0  0  0  0  0
   35.4460   43.3170   16.7350 C   0  0  0  0  0  3  0  0  0  0  0  0
   35.6530   44.5130   17.4210 C   0  0  0  0  0  0  0  0  0  0  0  0
   34.5480   45.2260   17.8810 C   0  0  0  0  0  3  0  0  0  0  0  0
   33.2540   44.7470   17.6490 C   0  0  0  0  0  3  0  0  0  0  0  0
   37.0000   45.0100   17.6050 C   0  0  0  0  0  0  0  0  0  0  0  0
   37.6890   44.8210   18.7820 N   0  0  0  0  0  0  0  0  0  0  0  0
   38.8600   45.3880   18.5900 C   0  0  0  0  0  0  0  0  0  0  0  0
   38.9360   45.9500   17.3460 N   0  0  0  0  0  0  0  0  0  0  0  0
   37.7580   45.7140   16.6780 C   0  0  0  0  0  0  0  0  0  0  0  0
   40.1440   46.6000   16.8710 C   0  0  0  0  0  2  0  0  0  0  0  0
   41.0030   47.0740   17.9300 O   0  0  0  0  0  0  0  0  0  0  0  0
   41.0340   46.3360   19.0800 C   0  0  0  0  0  0  0  0  0  0  0  0
   42.1100   46.4750   19.9390 C   0  0  0  0  0  3  0  0  0  0  0  0
   42.2220   45.8150   21.1150 N   0  0  0  0  0  0  0  0  0  0  0  0
   41.2030   44.9950   21.4590 C   0  0  0  0  0  3  0  0  0  0  0  0
   40.0740   44.8050   20.6800 C   0  0  0  0  0  3  0  0  0  0  0  0
   39.9960   45.4910   19.4730 C   0  0  0  0  0  0  0  0  0  0  0  0
   37.4580   46.1920   15.3360 C   0  0  0  0  0  0  0  0  0  0  0  0
   37.2760   45.2780   14.2930 C   0  0  0  0  0  3  0  0  0  0  0  0
   36.9770   45.7270   13.0060 C   0  0  0  0  0  3  0  0  0  0  0  0
   36.8650   47.0930   12.7530 C   0  0  0  0  0  3  0  0  0  0  0  0
   37.0520   48.0120   13.7870 C   0  0  0  0  0  3  0  0  0  0  0  0
   37.3480   47.5640   15.0760 C   0  0  0  0  0  3  0  0  0  0  0  0
   31.5210   43.0150   16.7130 C   0  0  2  0  0  0  0  0  0  0  0  0
   30.8860   43.0810   15.3050 C   0  0  0  0  0  2  0  0  0  0  0  0
   29.9130   44.2050   15.7830 C   0  0  1  0  0  0  0  0  0  0  0  0
   30.3520   43.8820   17.2450 C   0  0  0  0  0  2  0  0  0  0  0  0
   31.4570   41.6320   17.2460 N   0  0  0  0  0  4  0  0  0  0  0  0
   30.5260   41.2110   17.1300 H   0  0  0  0  0  0  0  0  0  0  0  0
   31.6900   41.6000   18.2460 H   0  0  0  0  0  0  0  0  0  0  0  0
   32.1330   41.0220   16.7660 H   0  0  0  0  0  0  0  0  0  0  0  0
   30.2100   45.5840   15.2090 C   0  0  0  0  0  3  0  0  0  0  0  0
   31.5140   45.9480   14.5510 C   0  0  0  0  0  2  0  0  0  0  0  0
   30.2390   45.9570   13.7530 C   0  0  0  0  0  2  0  0  0  0  0  0
   28.5340   43.8230   15.5650 O   0  0  0  0  0  0  0  0  0  0  0  0
   28.0110   44.6350   15.7120 H   0  0  0  0  0  0  0  0  0  0  0  0
  1  6  1  0  0  0  0
  2  3  1  0  0  0  0
  2  1  2  0  0  0  0
  3  4  2  0  0  0  0
  4  7  1  0  0  0  0
  4  5  1  0  0  0  0
  6  5  2  0  0  0  0
  7  8  1  0  0  0  0
  9  8  2  0  0  0  0
  9 19  1  0  0  0  0
 10  9  1  0  0  0  0
 11 10  1  0  0  0  0
 11  7  2  0  0  0  0
 12 10  1  0  0  0  0
 12 13  1  0  0  0  0
 13 14  1  0  0  0  0
 14 19  2  0  0  0  0
 14 15  1  0  0  0  0
 15 16  2  0  0  0  0
 16 17  1  0  0  0  0
 18 17  2  0  0  0  0
 19 18  1  0  0  0  0
 20 11  1  0  0  0  0
 21 20  2  0  0  0  0
 22 21  1  0  0  0  0
 23 22  2  0  0  0  0
 23 24  1  0  0  0  0
 24 25  2  0  0  0  0
 25 20  1  0  0  0  0
 26  1  1  0  0  0  0
 26 29  1  0  0  0  0
 26 30  1  1  0  0  0
 27 28  1  0  0  0  0
 27 26  1  0  0  0  0
 28 37  1  6  0  0  0
 28 29  1  0  0  0  0
 30 32  1  0  0  0  0
 31 30  1  0  0  0  0
 33 30  1  0  0  0  0
 34 28  1  0  0  0  0
 35 34  1  0  0  0  0
 36 35  1  0  0  0  0
 36 34  1  0  0  0  0
 37 38  1  0  0  0  0
M  END
>  <minimizedAffinity>
-12.4464483

$$$$
