
 OpenBabel11232419333D

 38 44  0  0  1  0  0  0  0  0999 V2000
   32.6990   44.0500   16.9590 C   0  0  0  0  0  0  0  0  0  0  0  0
   33.7640   43.2760   16.4540 C   0  0  0  0  0  3  0  0  0  0  0  0
   35.1000   43.6820   16.5670 C   0  0  0  0  0  3  0  0  0  0  0  0
   35.4260   44.8700   17.2190 C   0  0  0  0  0  0  0  0  0  0  0  0
   34.4010   45.6540   17.7450 C   0  0  0  0  0  3  0  0  0  0  0  0
   33.0670   45.2510   17.6110 C   0  0  0  0  0  3  0  0  0  0  0  0
   36.8100   45.2870   17.3010 C   0  0  0  0  0  0  0  0  0  0  0  0
   37.5350   45.1720   18.4650 N   0  0  0  0  0  0  0  0  0  0  0  0
   38.7320   45.6310   18.1720 C   0  0  0  0  0  0  0  0  0  0  0  0
   38.7910   46.0560   16.8740 N   0  0  0  0  0  0  0  0  0  0  0  0
   37.5720   45.8370   16.2780 C   0  0  0  0  0  0  0  0  0  0  0  0
   40.0180   46.5660   16.2900 C   0  0  0  0  0  2  0  0  0  0  0  0
   40.9520   47.0850   17.2600 O   0  0  0  0  0  0  0  0  0  0  0  0
   40.9840   46.4680   18.4810 C   0  0  0  0  0  0  0  0  0  0  0  0
   42.1030   46.6180   19.2800 C   0  0  0  0  0  3  0  0  0  0  0  0
   42.2220   46.0760   20.5150 N   0  0  0  0  0  0  0  0  0  0  0  0
   41.1670   45.3700   20.9790 C   0  0  0  0  0  3  0  0  0  0  0  0
   39.9950   45.1820   20.2670 C   0  0  0  0  0  3  0  0  0  0  0  0
   39.9100   45.7440   18.9970 C   0  0  0  0  0  0  0  0  0  0  0  0
   37.2470   46.1950   14.9050 C   0  0  0  0  0  0  0  0  0  0  0  0
   37.0990   47.5400   14.5490 C   0  0  0  0  0  3  0  0  0  0  0  0
   36.7990   47.8920   13.2320 C   0  0  0  0  0  3  0  0  0  0  0  0
   36.6400   46.9000   12.2650 C   0  0  0  0  0  3  0  0  0  0  0  0
   36.7790   45.5570   12.6140 C   0  0  0  0  0  3  0  0  0  0  0  0
   37.0820   45.2030   13.9300 C   0  0  0  0  0  3  0  0  0  0  0  0
   31.1720   43.6180   16.8250 C   0  0  2  0  0  0  0  0  0  0  0  0
   30.4480   42.9090   17.9930 C   0  0  0  0  0  2  0  0  0  0  0  0
   30.4110   41.5780   17.1780 C   0  0  1  0  0  0  0  0  0  0  0  0
   30.8410   42.4020   15.9250 C   0  0  0  0  0  2  0  0  0  0  0  0
   30.4200   44.8260   16.4050 N   0  0  0  0  0  4  0  0  0  0  0  0
   29.4140   44.6400   16.2920 H   0  0  0  0  0  0  0  0  0  0  0  0
   30.7690   45.2000   15.5140 H   0  0  0  0  0  0  0  0  0  0  0  0
   30.5170   45.5800   17.1000 H   0  0  0  0  0  0  0  0  0  0  0  0
   31.3390   40.4910   17.7030 C   0  0  0  0  0  3  0  0  0  0  0  0
   31.8250   40.4260   19.1250 C   0  0  0  0  0  2  0  0  0  0  0  0
   30.9510   39.3310   18.5780 C   0  0  0  0  0  2  0  0  0  0  0  0
   29.0540   41.0970   17.0360 O   0  0  0  0  0  0  0  0  0  0  0  0
   29.1330   40.1880   16.6860 H   0  0  0  0  0  0  0  0  0  0  0  0
  1  6  1  0  0  0  0
  2  3  1  0  0  0  0
  2  1  2  0  0  0  0
  3  4  2  0  0  0  0
  4  7  1  0  0  0  0
  4  5  1  0  0  0  0
  6  5  2  0  0  0  0
  7  8  1  0  0  0  0
  9  8  2  0  0  0  0
  9 19  1  0  0  0  0
 10  9  1  0  0  0  0
 11 10  1  0  0  0  0
 11  7  2  0  0  0  0
 12 10  1  0  0  0  0
 12 13  1  0  0  0  0
 13 14  1  0  0  0  0
 14 19  2  0  0  0  0
 14 15  1  0  0  0  0
 15 16  2  0  0  0  0
 16 17  1  0  0  0  0
 18 17  2  0  0  0  0
 19 18  1  0  0  0  0
 20 11  1  0  0  0  0
 21 20  1  0  0  0  0
 22 21  2  0  0  0  0
 23 24  2  0  0  0  0
 23 22  1  0  0  0  0
 24 25  1  0  0  0  0
 25 20  2  0  0  0  0
 26 30  1  6  0  0  0
 26  1  1  0  0  0  0
 26 27  1  0  0  0  0
 28 37  1  6  0  0  0
 28 34  1  0  0  0  0
 28 27  1  0  0  0  0
 29 26  1  0  0  0  0
 29 28  1  0  0  0  0
 30 33  1  0  0  0  0
 31 30  1  0  0  0  0
 32 30  1  0  0  0  0
 34 36  1  0  0  0  0
 34 35  1  0  0  0  0
 36 35  1  0  0  0  0
 38 37  1  0  0  0  0
M  END
>  <minimizedAffinity>
-12.1065292

$$$$
