
 OpenBabel11232419333D

 38 44  0  0  1  0  0  0  0  0999 V2000
   33.0050   43.5360   16.9600 C   0  0  0  0  0  0  0  0  0  0  0  0
   34.1480   42.8340   16.5240 C   0  0  0  0  0  3  0  0  0  0  0  0
   35.4460   43.3170   16.7350 C   0  0  0  0  0  3  0  0  0  0  0  0
   35.6530   44.5130   17.4210 C   0  0  0  0  0  0  0  0  0  0  0  0
   34.5480   45.2260   17.8810 C   0  0  0  0  0  3  0  0  0  0  0  0
   33.2540   44.7470   17.6490 C   0  0  0  0  0  3  0  0  0  0  0  0
   37.0000   45.0100   17.6050 C   0  0  0  0  0  0  0  0  0  0  0  0
   37.6890   44.8210   18.7820 N   0  0  0  0  0  0  0  0  0  0  0  0
   38.8600   45.3880   18.5900 C   0  0  0  0  0  0  0  0  0  0  0  0
   38.9360   45.9500   17.3460 N   0  0  0  0  0  0  0  0  0  0  0  0
   37.7580   45.7140   16.6780 C   0  0  0  0  0  0  0  0  0  0  0  0
   40.1440   46.6000   16.8710 C   0  0  0  0  0  2  0  0  0  0  0  0
   41.0030   47.0740   17.9300 O   0  0  0  0  0  0  0  0  0  0  0  0
   41.0340   46.3360   19.0800 C   0  0  0  0  0  0  0  0  0  0  0  0
   42.1100   46.4750   19.9390 C   0  0  0  0  0  3  0  0  0  0  0  0
   42.2220   45.8150   21.1150 N   0  0  0  0  0  0  0  0  0  0  0  0
   41.2030   44.9950   21.4590 C   0  0  0  0  0  3  0  0  0  0  0  0
   40.0740   44.8050   20.6800 C   0  0  0  0  0  3  0  0  0  0  0  0
   39.9960   45.4910   19.4730 C   0  0  0  0  0  0  0  0  0  0  0  0
   37.4580   46.1920   15.3360 C   0  0  0  0  0  0  0  0  0  0  0  0
   37.2760   45.2780   14.2930 C   0  0  0  0  0  3  0  0  0  0  0  0
   36.9770   45.7270   13.0060 C   0  0  0  0  0  3  0  0  0  0  0  0
   36.8650   47.0930   12.7530 C   0  0  0  0  0  3  0  0  0  0  0  0
   37.0520   48.0120   13.7870 C   0  0  0  0  0  3  0  0  0  0  0  0
   37.3480   47.5640   15.0760 C   0  0  0  0  0  3  0  0  0  0  0  0
   31.5210   43.0150   16.7130 C   0  0  2  0  0  0  0  0  0  0  0  0
   30.8860   43.0810   15.3050 C   0  0  0  0  0  2  0  0  0  0  0  0
   29.9130   44.2050   15.7830 C   0  0  1  0  0  0  0  0  0  0  0  0
   30.3520   43.8820   17.2450 C   0  0  0  0  0  2  0  0  0  0  0  0
   31.4570   41.6320   17.2460 N   0  0  0  0  0  4  0  0  0  0  0  0
   30.5260   41.2110   17.1300 H   0  0  0  0  0  0  0  0  0  0  0  0
   31.6900   41.6000   18.2460 H   0  0  0  0  0  0  0  0  0  0  0  0
   32.1330   41.0220   16.7660 H   0  0  0  0  0  0  0  0  0  0  0  0
   30.2100   45.5840   15.2090 C   0  0  0  0  0  3  0  0  0  0  0  0
   31.5140   45.9480   14.5510 C   0  0  0  0  0  2  0  0  0  0  0  0
   30.2390   45.9570   13.7530 C   0  0  0  0  0  2  0  0  0  0  0  0
   28.5340   43.8230   15.5650 O   0  0  0  0  0  0  0  0  0  0  0  0
   28.0110   44.6350   15.7120 H   0  0  0  0  0  0  0  0  0  0  0  0
  1  6  1  0  0  0  0
  2  3  1  0  0  0  0
  2  1  2  0  0  0  0
  3  4  2  0  0  0  0
  4  7  1  0  0  0  0
  4  5  1  0  0  0  0
  6  5  2  0  0  0  0
  7  8  1  0  0  0  0
  9  8  2  0  0  0  0
  9 19  1  0  0  0  0
 10  9  1  0  0  0  0
 11 10  1  0  0  0  0
 11  7  2  0  0  0  0
 12 10  1  0  0  0  0
 12 13  1  0  0  0  0
 13 14  1  0  0  0  0
 14 19  2  0  0  0  0
 14 15  1  0  0  0  0
 15 16  2  0  0  0  0
 16 17  1  0  0  0  0
 18 17  2  0  0  0  0
 19 18  1  0  0  0  0
 20 11  1  0  0  0  0
 21 20  2  0  0  0  0
 22 21  1  0  0  0  0
 23 22  2  0  0  0  0
 23 24  1  0  0  0  0
 24 25  2  0  0  0  0
 25 20  1  0  0  0  0
 26  1  1  0  0  0  0
 26 29  1  0  0  0  0
 26 30  1  1  0  0  0
 27 28  1  0  0  0  0
 27 26  1  0  0  0  0
 28 37  1  6  0  0  0
 28 29  1  0  0  0  0
 30 32  1  0  0  0  0
 31 30  1  0  0  0  0
 33 30  1  0  0  0  0
 34 28  1  0  0  0  0
 35 34  1  0  0  0  0
 36 35  1  0  0  0  0
 36 34  1  0  0  0  0
 37 38  1  0  0  0  0
M  END
>  <minimizedAffinity>
-12.4464483

$$$$

 OpenBabel11232419333D

 38 44  0  0  1  0  0  0  0  0999 V2000
   32.6990   44.0500   16.9590 C   0  0  0  0  0  0  0  0  0  0  0  0
   33.7640   43.2760   16.4540 C   0  0  0  0  0  3  0  0  0  0  0  0
   35.1000   43.6820   16.5670 C   0  0  0  0  0  3  0  0  0  0  0  0
   35.4260   44.8700   17.2190 C   0  0  0  0  0  0  0  0  0  0  0  0
   34.4010   45.6540   17.7450 C   0  0  0  0  0  3  0  0  0  0  0  0
   33.0670   45.2510   17.6110 C   0  0  0  0  0  3  0  0  0  0  0  0
   36.8100   45.2870   17.3010 C   0  0  0  0  0  0  0  0  0  0  0  0
   37.5350   45.1720   18.4650 N   0  0  0  0  0  0  0  0  0  0  0  0
   38.7320   45.6310   18.1720 C   0  0  0  0  0  0  0  0  0  0  0  0
   38.7910   46.0560   16.8740 N   0  0  0  0  0  0  0  0  0  0  0  0
   37.5720   45.8370   16.2780 C   0  0  0  0  0  0  0  0  0  0  0  0
   40.0180   46.5660   16.2900 C   0  0  0  0  0  2  0  0  0  0  0  0
   40.9520   47.0850   17.2600 O   0  0  0  0  0  0  0  0  0  0  0  0
   40.9840   46.4680   18.4810 C   0  0  0  0  0  0  0  0  0  0  0  0
   42.1030   46.6180   19.2800 C   0  0  0  0  0  3  0  0  0  0  0  0
   42.2220   46.0760   20.5150 N   0  0  0  0  0  0  0  0  0  0  0  0
   41.1670   45.3700   20.9790 C   0  0  0  0  0  3  0  0  0  0  0  0
   39.9950   45.1820   20.2670 C   0  0  0  0  0  3  0  0  0  0  0  0
   39.9100   45.7440   18.9970 C   0  0  0  0  0  0  0  0  0  0  0  0
   37.2470   46.1950   14.9050 C   0  0  0  0  0  0  0  0  0  0  0  0
   37.0990   47.5400   14.5490 C   0  0  0  0  0  3  0  0  0  0  0  0
   36.7990   47.8920   13.2320 C   0  0  0  0  0  3  0  0  0  0  0  0
   36.6400   46.9000   12.2650 C   0  0  0  0  0  3  0  0  0  0  0  0
   36.7790   45.5570   12.6140 C   0  0  0  0  0  3  0  0  0  0  0  0
   37.0820   45.2030   13.9300 C   0  0  0  0  0  3  0  0  0  0  0  0
   31.1720   43.6180   16.8250 C   0  0  2  0  0  0  0  0  0  0  0  0
   30.4480   42.9090   17.9930 C   0  0  0  0  0  2  0  0  0  0  0  0
   30.4110   41.5780   17.1780 C   0  0  1  0  0  0  0  0  0  0  0  0
   30.8410   42.4020   15.9250 C   0  0  0  0  0  2  0  0  0  0  0  0
   30.4200   44.8260   16.4050 N   0  0  0  0  0  4  0  0  0  0  0  0
   29.4140   44.6400   16.2920 H   0  0  0  0  0  0  0  0  0  0  0  0
   30.7690   45.2000   15.5140 H   0  0  0  0  0  0  0  0  0  0  0  0
   30.5170   45.5800   17.1000 H   0  0  0  0  0  0  0  0  0  0  0  0
   31.3390   40.4910   17.7030 C   0  0  0  0  0  3  0  0  0  0  0  0
   31.8250   40.4260   19.1250 C   0  0  0  0  0  2  0  0  0  0  0  0
   30.9510   39.3310   18.5780 C   0  0  0  0  0  2  0  0  0  0  0  0
   29.0540   41.0970   17.0360 O   0  0  0  0  0  0  0  0  0  0  0  0
   29.1330   40.1880   16.6860 H   0  0  0  0  0  0  0  0  0  0  0  0
  1  6  1  0  0  0  0
  2  3  1  0  0  0  0
  2  1  2  0  0  0  0
  3  4  2  0  0  0  0
  4  7  1  0  0  0  0
  4  5  1  0  0  0  0
  6  5  2  0  0  0  0
  7  8  1  0  0  0  0
  9  8  2  0  0  0  0
  9 19  1  0  0  0  0
 10  9  1  0  0  0  0
 11 10  1  0  0  0  0
 11  7  2  0  0  0  0
 12 10  1  0  0  0  0
 12 13  1  0  0  0  0
 13 14  1  0  0  0  0
 14 19  2  0  0  0  0
 14 15  1  0  0  0  0
 15 16  2  0  0  0  0
 16 17  1  0  0  0  0
 18 17  2  0  0  0  0
 19 18  1  0  0  0  0
 20 11  1  0  0  0  0
 21 20  1  0  0  0  0
 22 21  2  0  0  0  0
 23 24  2  0  0  0  0
 23 22  1  0  0  0  0
 24 25  1  0  0  0  0
 25 20  2  0  0  0  0
 26 30  1  6  0  0  0
 26  1  1  0  0  0  0
 26 27  1  0  0  0  0
 28 37  1  6  0  0  0
 28 34  1  0  0  0  0
 28 27  1  0  0  0  0
 29 26  1  0  0  0  0
 29 28  1  0  0  0  0
 30 33  1  0  0  0  0
 31 30  1  0  0  0  0
 32 30  1  0  0  0  0
 34 36  1  0  0  0  0
 34 35  1  0  0  0  0
 36 35  1  0  0  0  0
 38 37  1  0  0  0  0
M  END
>  <minimizedAffinity>
-12.1065292

$$$$

 OpenBabel11232419333D

 38 44  0  0  1  0  0  0  0  0999 V2000
   31.4750   42.8250   17.2710 C   0  0  0  0  0  0  0  0  0  0  0  0
   32.2800   41.8980   17.9660 C   0  0  0  0  0  3  0  0  0  0  0  0
   33.5360   42.2410   18.4810 C   0  0  0  0  0  3  0  0  0  0  0  0
   34.0250   43.5400   18.3480 C   0  0  0  0  0  0  0  0  0  0  0  0
   33.2510   44.4870   17.6810 C   0  0  0  0  0  3  0  0  0  0  0  0
   32.0050   44.1320   17.1520 C   0  0  0  0  0  3  0  0  0  0  0  0
   35.3380   43.8670   18.8640 C   0  0  0  0  0  0  0  0  0  0  0  0
   35.6980   43.5880   20.1630 N   0  0  0  0  0  0  0  0  0  0  0  0
   36.9390   44.0090   20.2740 C   0  0  0  0  0  0  0  0  0  0  0  0
   37.3760   44.5660   19.1050 N   0  0  0  0  0  0  0  0  0  0  0  0
   36.3730   44.4810   18.1690 C   0  0  0  0  0  0  0  0  0  0  0  0
   38.7300   45.0670   18.9530 C   0  0  0  0  0  2  0  0  0  0  0  0
   39.3600   45.4250   20.2010 O   0  0  0  0  0  0  0  0  0  0  0  0
   39.0280   44.6810   21.2990 C   0  0  0  0  0  0  0  0  0  0  0  0
   39.8760   44.6820   22.3930 C   0  0  0  0  0  3  0  0  0  0  0  0
   39.6240   44.0050   23.5380 N   0  0  0  0  0  0  0  0  0  0  0  0
   38.4650   43.3130   23.6010 C   0  0  0  0  0  3  0  0  0  0  0  0
   37.5410   43.2680   22.5700 C   0  0  0  0  0  3  0  0  0  0  0  0
   37.8340   43.9660   21.4040 C   0  0  0  0  0  0  0  0  0  0  0  0
   36.4620   45.0010   16.8120 C   0  0  0  0  0  0  0  0  0  0  0  0
   36.3940   46.3790   16.5860 C   0  0  0  0  0  3  0  0  0  0  0  0
   36.4900   46.8870   15.2890 C   0  0  0  0  0  3  0  0  0  0  0  0
   36.6480   46.0180   14.2110 C   0  0  0  0  0  3  0  0  0  0  0  0
   36.7100   44.6410   14.4280 C   0  0  0  0  0  3  0  0  0  0  0  0
   36.6170   44.1320   15.7240 C   0  0  0  0  0  3  0  0  0  0  0  0
   30.0530   42.4520   16.6590 C   0  0  2  0  0  0  0  0  0  0  0  0
   28.8200   42.2820   17.5760 C   0  0  0  0  0  2  0  0  0  0  0  0
   28.8170   40.7440   17.3080 C   0  0  1  0  0  0  0  0  0  0  0  0
   29.8380   41.0030   16.1570 C   0  0  0  0  0  2  0  0  0  0  0  0
   29.7720   43.4440   15.5910 N   0  0  0  0  0  4  0  0  0  0  0  0
   28.8650   43.2800   15.1340 H   0  0  0  0  0  0  0  0  0  0  0  0
   30.4950   43.4300   14.8610 H   0  0  0  0  0  0  0  0  0  0  0  0
   29.7560   44.4000   15.9730 H   0  0  0  0  0  0  0  0  0  0  0  0
   29.2430   39.8950   18.4970 C   0  0  0  0  0  3  0  0  0  0  0  0
   28.3630   38.8540   19.1350 C   0  0  0  0  0  2  0  0  0  0  0  0
   29.6450   38.4470   18.4620 C   0  0  0  0  0  2  0  0  0  0  0  0
   27.5420   40.3140   16.7760 O   0  0  0  0  0  0  0  0  0  0  0  0
   27.5590   39.3380   16.8110 H   0  0  0  0  0  0  0  0  0  0  0  0
  1  2  1  0  0  0  0
  2  3  2  0  0  0  0
  4  3  1  0  0  0  0
  4  7  1  0  0  0  0
  5  4  2  0  0  0  0
  6  1  2  0  0  0  0
  6  5  1  0  0  0  0
  7  8  1  0  0  0  0
  8  9  2  0  0  0  0
  9 19  1  0  0  0  0
 10  9  1  0  0  0  0
 11  7  2  0  0  0  0
 11 10  1  0  0  0  0
 12 10  1  0  0  0  0
 12 13  1  0  0  0  0
 13 14  1  0  0  0  0
 14 19  2  0  0  0  0
 14 15  1  0  0  0  0
 15 16  2  0  0  0  0
 16 17  1  0  0  0  0
 18 17  2  0  0  0  0
 19 18  1  0  0  0  0
 20 11  1  0  0  0  0
 21 20  1  0  0  0  0
 22 21  2  0  0  0  0
 23 24  2  0  0  0  0
 23 22  1  0  0  0  0
 24 25  1  0  0  0  0
 25 20  2  0  0  0  0
 26 30  1  6  0  0  0
 26  1  1  0  0  0  0
 26 27  1  0  0  0  0
 28 37  1  6  0  0  0
 28 27  1  0  0  0  0
 28 34  1  0  0  0  0
 29 26  1  0  0  0  0
 29 28  1  0  0  0  0
 30 33  1  0  0  0  0
 31 30  1  0  0  0  0
 32 30  1  0  0  0  0
 34 35  1  0  0  0  0
 36 34  1  0  0  0  0
 36 35  1  0  0  0  0
 37 38  1  0  0  0  0
M  END
>  <minimizedAffinity>
-11.5387173

$$$$

 OpenBabel11232419333D

 38 44  0  0  1  0  0  0  0  0999 V2000
   32.8630   43.2380   17.5360 C   0  0  0  0  0  0  0  0  0  0  0  0
   33.9180   42.3080   17.6430 C   0  0  0  0  0  3  0  0  0  0  0  0
   35.2030   42.6840   18.0550 C   0  0  0  0  0  3  0  0  0  0  0  0
   35.4770   44.0050   18.4070 C   0  0  0  0  0  0  0  0  0  0  0  0
   34.4540   44.9490   18.3280 C   0  0  0  0  0  3  0  0  0  0  0  0
   33.1780   44.5690   17.8970 C   0  0  0  0  0  3  0  0  0  0  0  0
   36.8180   44.3780   18.8030 C   0  0  0  0  0  0  0  0  0  0  0  0
   37.2980   44.1250   20.0670 N   0  0  0  0  0  0  0  0  0  0  0  0
   38.5300   44.5850   20.0670 C   0  0  0  0  0  0  0  0  0  0  0  0
   38.8450   45.1420   18.8590 N   0  0  0  0  0  0  0  0  0  0  0  0
   37.7680   45.0160   18.0150 C   0  0  0  0  0  0  0  0  0  0  0  0
   40.1650   45.6830   18.5860 C   0  0  0  0  0  2  0  0  0  0  0  0
   40.8890   46.0750   19.7710 O   0  0  0  0  0  0  0  0  0  0  0  0
   40.6780   45.3320   20.9000 C   0  0  0  0  0  0  0  0  0  0  0  0
   41.6170   45.3720   21.9150 C   0  0  0  0  0  3  0  0  0  0  0  0
   41.4880   44.7000   23.0830 N   0  0  0  0  0  0  0  0  0  0  0  0
   40.3610   43.9730   23.2530 C   0  0  0  0  0  3  0  0  0  0  0  0
   39.3530   43.8880   22.3080 C   0  0  0  0  0  3  0  0  0  0  0  0
   39.5210   44.5830   21.1140 C   0  0  0  0  0  0  0  0  0  0  0  0
   37.7220   45.5230   16.6510 C   0  0  0  0  0  0  0  0  0  0  0  0
   38.2420   46.7880   16.3580 C   0  0  0  0  0  3  0  0  0  0  0  0
   38.2120   47.2780   15.0510 C   0  0  0  0  0  3  0  0  0  0  0  0
   37.6570   46.5070   14.0310 C   0  0  0  0  0  3  0  0  0  0  0  0
   37.1310   45.2460   14.3170 C   0  0  0  0  0  3  0  0  0  0  0  0
   37.1630   44.7540   15.6230 C   0  0  0  0  0  3  0  0  0  0  0  0
   31.4000   42.8380   17.0510 C   0  0  2  0  0  0  0  0  0  0  0  0
   30.9890   42.9980   15.5690 C   0  0  0  0  0  2  0  0  0  0  0  0
   30.0340   44.1740   15.9480 C   0  0  1  0  0  0  0  0  0  0  0  0
   30.2270   43.7700   17.4430 C   0  0  0  0  0  2  0  0  0  0  0  0
   31.1630   41.4450   17.5070 N   0  0  0  0  0  4  0  0  0  0  0  0
   30.2330   41.0990   17.2370 H   0  0  0  0  0  0  0  0  0  0  0  0
   31.2410   41.3630   18.5280 H   0  0  0  0  0  0  0  0  0  0  0  0
   31.8600   40.8030   17.1050 H   0  0  0  0  0  0  0  0  0  0  0  0
   30.5080   45.5450   15.4860 C   0  0  0  0  0  3  0  0  0  0  0  0
   31.7530   45.7640   14.6700 C   0  0  0  0  0  2  0  0  0  0  0  0
   30.4060   46.1020   14.0930 C   0  0  0  0  0  2  0  0  0  0  0  0
   28.6820   43.9030   15.5130 O   0  0  0  0  0  0  0  0  0  0  0  0
   28.1980   44.7450   15.6180 H   0  0  0  0  0  0  0  0  0  0  0  0
  1  2  2  0  0  0  0
  1  6  1  0  0  0  0
  2  3  1  0  0  0  0
  3  4  2  0  0  0  0
  4  7  1  0  0  0  0
  5  4  1  0  0  0  0
  6  5  2  0  0  0  0
  7  8  1  0  0  0  0
  8  9  2  0  0  0  0
  9 19  1  0  0  0  0
 10  9  1  0  0  0  0
 11  7  2  0  0  0  0
 11 10  1  0  0  0  0
 12 10  1  0  0  0  0
 12 13  1  0  0  0  0
 13 14  1  0  0  0  0
 14 19  2  0  0  0  0
 14 15  1  0  0  0  0
 15 16  2  0  0  0  0
 16 17  1  0  0  0  0
 18 17  2  0  0  0  0
 19 18  1  0  0  0  0
 20 11  1  0  0  0  0
 21 20  1  0  0  0  0
 22 21  2  0  0  0  0
 23 24  2  0  0  0  0
 23 22  1  0  0  0  0
 24 25  1  0  0  0  0
 25 20  2  0  0  0  0
 26 29  1  0  0  0  0
 26 30  1  1  0  0  0
 26  1  1  0  0  0  0
 27 28  1  0  0  0  0
 27 26  1  0  0  0  0
 28 37  1  6  0  0  0
 28 29  1  0  0  0  0
 30 32  1  0  0  0  0
 31 30  1  0  0  0  0
 33 30  1  0  0  0  0
 34 28  1  0  0  0  0
 35 34  1  0  0  0  0
 36 35  1  0  0  0  0
 36 34  1  0  0  0  0
 37 38  1  0  0  0  0
M  END
>  <minimizedAffinity>
-11.4458561

$$$$

 OpenBabel11232419333D

 38 44  0  0  1  0  0  0  0  0999 V2000
   32.7010   43.0230   17.4370 C   0  0  0  0  0  0  0  0  0  0  0  0
   33.8880   42.5190   16.8650 C   0  0  0  0  0  3  0  0  0  0  0  0
   35.1490   43.0320   17.1920 C   0  0  0  0  0  3  0  0  0  0  0  0
   35.2760   44.0540   18.1320 C   0  0  0  0  0  0  0  0  0  0  0  0
   34.1260   44.5660   18.7290 C   0  0  0  0  0  3  0  0  0  0  0  0
   32.8680   44.0620   18.3830 C   0  0  0  0  0  3  0  0  0  0  0  0
   36.5860   44.5890   18.4360 C   0  0  0  0  0  0  0  0  0  0  0  0
   37.2380   45.4430   17.5750 N   0  0  0  0  0  0  0  0  0  0  0  0
   38.3770   45.7270   18.1690 C   0  0  0  0  0  0  0  0  0  0  0  0
   38.4860   45.0690   19.3630 N   0  0  0  0  0  0  0  0  0  0  0  0
   37.3430   44.3350   19.5730 C   0  0  0  0  0  0  0  0  0  0  0  0
   39.6320   45.2490   20.2350 C   0  0  0  0  0  2  0  0  0  0  0  0
   40.8200   45.6960   19.5480 O   0  0  0  0  0  0  0  0  0  0  0  0
   40.6410   46.5290   18.4780 C   0  0  0  0  0  0  0  0  0  0  0  0
   41.6990   47.3140   18.0530 C   0  0  0  0  0  3  0  0  0  0  0  0
   41.6340   48.1470   16.9890 N   0  0  0  0  0  0  0  0  0  0  0  0
   40.4680   48.1820   16.3060 C   0  0  0  0  0  3  0  0  0  0  0  0
   39.3610   47.4200   16.6370 C   0  0  0  0  0  3  0  0  0  0  0  0
   39.4570   46.5820   17.7420 C   0  0  0  0  0  0  0  0  0  0  0  0
   37.1110   43.4780   20.7260 C   0  0  0  0  0  0  0  0  0  0  0  0
   37.4250   43.9340   22.0110 C   0  0  0  0  0  3  0  0  0  0  0  0
   37.1950   43.1230   23.1230 C   0  0  0  0  0  3  0  0  0  0  0  0
   36.6560   41.8490   22.9560 C   0  0  0  0  0  3  0  0  0  0  0  0
   36.3460   41.3840   21.6780 C   0  0  0  0  0  3  0  0  0  0  0  0
   36.5730   42.1950   20.5650 C   0  0  0  0  0  3  0  0  0  0  0  0
   31.2550   42.4690   17.0650 C   0  0  2  0  0  0  0  0  0  0  0  0
   30.6920   42.6310   15.6340 C   0  0  0  0  0  2  0  0  0  0  0  0
   29.6480   43.6720   16.1500 C   0  0  1  0  0  0  0  0  0  0  0  0
   30.0240   43.2410   17.6020 C   0  0  0  0  0  2  0  0  0  0  0  0
   31.2240   41.0430   17.4760 N   0  0  0  0  0  4  0  0  0  0  0  0
   30.3190   40.5980   17.2730 H   0  0  0  0  0  0  0  0  0  0  0  0
   31.4050   40.9340   18.4810 H   0  0  0  0  0  0  0  0  0  0  0  0
   31.9490   40.5030   16.9840 H   0  0  0  0  0  0  0  0  0  0  0  0
   29.9150   45.1050   15.7120 C   0  0  0  0  0  3  0  0  0  0  0  0
   31.2870   45.6370   15.3970 C   0  0  0  0  0  2  0  0  0  0  0  0
   30.2410   45.5660   14.3180 C   0  0  0  0  0  2  0  0  0  0  0  0
   28.3010   43.2570   15.8240 O   0  0  0  0  0  0  0  0  0  0  0  0
   27.7360   44.0320   16.0100 H   0  0  0  0  0  0  0  0  0  0  0  0
  1  6  1  0  0  0  0
  2  3  1  0  0  0  0
  2  1  2  0  0  0  0
  3  4  2  0  0  0  0
  4  7  1  0  0  0  0
  4  5  1  0  0  0  0
  6  5  2  0  0  0  0
  7 11  2  0  0  0  0
  8  9  2  0  0  0  0
  8  7  1  0  0  0  0
  9 10  1  0  0  0  0
 10 11  1  0  0  0  0
 10 12  1  0  0  0  0
 11 20  1  0  0  0  0
 13 12  1  0  0  0  0
 14 13  1  0  0  0  0
 15 14  1  0  0  0  0
 16 15  2  0  0  0  0
 17 18  2  0  0  0  0
 17 16  1  0  0  0  0
 18 19  1  0  0  0  0
 19  9  1  0  0  0  0
 19 14  2  0  0  0  0
 20 21  1  0  0  0  0
 21 22  2  0  0  0  0
 23 22  1  0  0  0  0
 24 23  2  0  0  0  0
 25 20  2  0  0  0  0
 25 24  1  0  0  0  0
 26  1  1  0  0  0  0
 26 30  1  1  0  0  0
 26 29  1  0  0  0  0
 27 28  1  0  0  0  0
 27 26  1  0  0  0  0
 28 37  1  6  0  0  0
 28 29  1  0  0  0  0
 30 32  1  0  0  0  0
 31 30  1  0  0  0  0
 33 30  1  0  0  0  0
 34 28  1  0  0  0  0
 35 34  1  0  0  0  0
 36 35  1  0  0  0  0
 36 34  1  0  0  0  0
 37 38  1  0  0  0  0
M  END
>  <minimizedAffinity>
-11.4084024

$$$$

 OpenBabel11232419333D

 38 44  0  0  1  0  0  0  0  0999 V2000
   33.1020   44.6160   16.6000 C   0  0  0  0  0  0  0  0  0  0  0  0
   33.4840   45.6880   17.4330 C   0  0  0  0  0  3  0  0  0  0  0  0
   34.7020   45.6970   18.1260 C   0  0  0  0  0  3  0  0  0  0  0  0
   35.6030   44.6430   17.9880 C   0  0  0  0  0  0  0  0  0  0  0  0
   35.2660   43.5730   17.1620 C   0  0  0  0  0  3  0  0  0  0  0  0
   34.0400   43.5620   16.4880 C   0  0  0  0  0  3  0  0  0  0  0  0
   36.8430   44.6580   18.7350 C   0  0  0  0  0  0  0  0  0  0  0  0
   36.9230   44.1660   20.0180 N   0  0  0  0  0  0  0  0  0  0  0  0
   38.1790   44.3330   20.3720 C   0  0  0  0  0  0  0  0  0  0  0  0
   38.8950   44.9320   19.3740 N   0  0  0  0  0  0  0  0  0  0  0  0
   38.0680   45.1450   18.2970 C   0  0  0  0  0  0  0  0  0  0  0  0
   40.3190   45.1870   19.5000 C   0  0  0  0  0  2  0  0  0  0  0  0
   40.7760   45.2730   20.8660 O   0  0  0  0  0  0  0  0  0  0  0  0
   40.1420   44.4800   21.7820 C   0  0  0  0  0  0  0  0  0  0  0  0
   40.7780   44.1960   22.9780 C   0  0  0  0  0  3  0  0  0  0  0  0
   40.2260   43.4480   23.9620 N   0  0  0  0  0  0  0  0  0  0  0  0
   38.9750   42.9810   23.7510 C   0  0  0  0  0  3  0  0  0  0  0  0
   38.2470   43.2300   22.6000 C   0  0  0  0  0  3  0  0  0  0  0  0
   38.8480   43.9930   21.6040 C   0  0  0  0  0  0  0  0  0  0  0  0
   38.4730   45.7950   17.0590 C   0  0  0  0  0  0  0  0  0  0  0  0
   38.0270   45.2960   15.8300 C   0  0  0  0  0  3  0  0  0  0  0  0
   38.4010   45.9200   14.6390 C   0  0  0  0  0  3  0  0  0  0  0  0
   39.2280   47.0420   14.6690 C   0  0  0  0  0  3  0  0  0  0  0  0
   39.6810   47.5410   15.8910 C   0  0  0  0  0  3  0  0  0  0  0  0
   39.3060   46.9200   17.0830 C   0  0  0  0  0  3  0  0  0  0  0  0
   31.7160   44.5750   15.8190 C   0  0  2  0  0  0  0  0  0  0  0  0
   30.3760   44.6530   16.5860 C   0  0  0  0  0  2  0  0  0  0  0  0
   30.0780   43.1590   16.2430 C   0  0  1  0  0  0  0  0  0  0  0  0
   31.2590   43.2200   15.2250 C   0  0  0  0  0  2  0  0  0  0  0  0
   31.7790   45.6310   14.7780 N   0  0  0  0  0  4  0  0  0  0  0  0
   30.9180   45.6780   14.2170 H   0  0  0  0  0  0  0  0  0  0  0  0
   32.5630   45.4790   14.1310 H   0  0  0  0  0  0  0  0  0  0  0  0
   31.9220   46.5580   15.2020 H   0  0  0  0  0  0  0  0  0  0  0  0
   30.1720   42.2080   17.4280 C   0  0  0  0  0  3  0  0  0  0  0  0
   30.1880   40.7090   17.2930 C   0  0  0  0  0  2  0  0  0  0  0  0
   31.3850   41.4270   17.8520 C   0  0  0  0  0  2  0  0  0  0  0  0
   28.8130   43.0290   15.5540 O   0  0  0  0  0  0  0  0  0  0  0  0
   28.6180   42.0710   15.5420 H   0  0  0  0  0  0  0  0  0  0  0  0
  1  2  1  0  0  0  0
  2  3  2  0  0  0  0
  4  3  1  0  0  0  0
  4  7  1  0  0  0  0
  5  4  2  0  0  0  0
  6  1  2  0  0  0  0
  6  5  1  0  0  0  0
  7  8  1  0  0  0  0
  8  9  2  0  0  0  0
  9 19  1  0  0  0  0
 10 12  1  0  0  0  0
 10  9  1  0  0  0  0
 11  7  2  0  0  0  0
 11 10  1  0  0  0  0
 12 13  1  0  0  0  0
 13 14  1  0  0  0  0
 14 15  1  0  0  0  0
 15 16  2  0  0  0  0
 17 16  1  0  0  0  0
 18 17  2  0  0  0  0
 19 14  2  0  0  0  0
 19 18  1  0  0  0  0
 20 25  1  0  0  0  0
 20 11  1  0  0  0  0
 21 20  2  0  0  0  0
 22 23  2  0  0  0  0
 22 21  1  0  0  0  0
 23 24  1  0  0  0  0
 24 25  2  0  0  0  0
 26 30  1  6  0  0  0
 26 27  1  0  0  0  0
 26  1  1  0  0  0  0
 28 37  1  6  0  0  0
 28 27  1  0  0  0  0
 28 34  1  0  0  0  0
 29 26  1  0  0  0  0
 29 28  1  0  0  0  0
 30 33  1  0  0  0  0
 31 30  1  0  0  0  0
 32 30  1  0  0  0  0
 34 36  1  0  0  0  0
 35 34  1  0  0  0  0
 35 36  1  0  0  0  0
 38 37  1  0  0  0  0
M  END
>  <minimizedAffinity>
-11.1589956

$$$$

 OpenBabel11232419333D

 38 44  0  0  1  0  0  0  0  0999 V2000
   36.3620   44.7150   16.8780 C   0  0  0  0  0  0  0  0  0  0  0  0
   35.4160   45.0450   17.8700 C   0  0  0  0  0  3  0  0  0  0  0  0
   34.2800   44.2600   18.1080 C   0  0  0  0  0  3  0  0  0  0  0  0
   34.0620   43.0920   17.3790 C   0  0  0  0  0  0  0  0  0  0  0  0
   34.9830   42.7260   16.4000 C   0  0  0  0  0  3  0  0  0  0  0  0
   36.1050   43.5260   16.1550 C   0  0  0  0  0  3  0  0  0  0  0  0
   32.8680   42.3100   17.6200 C   0  0  0  0  0  0  0  0  0  0  0  0
   32.8950   41.1580   18.3720 N   0  0  0  0  0  0  0  0  0  0  0  0
   31.6530   40.7250   18.3850 C   0  0  0  0  0  0  0  0  0  0  0  0
   30.8410   41.5440   17.6520 N   0  0  0  0  0  0  0  0  0  0  0  0
   31.5880   42.5840   17.1540 C   0  0  0  0  0  0  0  0  0  0  0  0
   29.4120   41.3100   17.5460 C   0  0  0  0  0  2  0  0  0  0  0  0
   29.0280   39.9380   17.7820 O   0  0  0  0  0  0  0  0  0  0  0  0
   29.7680   39.2370   18.6940 C   0  0  0  0  0  0  0  0  0  0  0  0
   29.2220   38.1040   19.2720 C   0  0  0  0  0  3  0  0  0  0  0  0
   29.8810   37.3240   20.1600 N   0  0  0  0  0  0  0  0  0  0  0  0
   31.1480   37.6800   20.4700 C   0  0  0  0  0  3  0  0  0  0  0  0
   31.7900   38.7810   19.9290 C   0  0  0  0  0  3  0  0  0  0  0  0
   31.0810   39.5670   19.0270 C   0  0  0  0  0  0  0  0  0  0  0  0
   31.0690   43.6390   16.2960 C   0  0  0  0  0  0  0  0  0  0  0  0
   29.7550   44.0910   16.4610 C   0  0  0  0  0  3  0  0  0  0  0  0
   29.2530   45.1100   15.6500 C   0  0  0  0  0  3  0  0  0  0  0  0
   30.0600   45.6800   14.6670 C   0  0  0  0  0  3  0  0  0  0  0  0
   31.3690   45.2310   14.4930 C   0  0  0  0  0  3  0  0  0  0  0  0
   31.8740   44.2130   15.3040 C   0  0  0  0  0  3  0  0  0  0  0  0
   37.6490   45.6030   16.5770 C   0  0  2  0  0  0  0  0  0  0  0  0
   37.5250   47.1320   16.3840 C   0  0  0  0  0  2  0  0  0  0  0  0
   37.8510   46.9790   14.8650 C   0  0  1  0  0  0  0  0  0  0  0  0
   38.2790   45.5090   15.1650 C   0  0  0  0  0  2  0  0  0  0  0  0
   38.6410   45.2930   17.6360 N   0  0  0  0  0  4  0  0  0  0  0  0
   39.5140   45.8250   17.5220 H   0  0  0  0  0  0  0  0  0  0  0  0
   38.8850   44.2950   17.6470 H   0  0  0  0  0  0  0  0  0  0  0  0
   38.2650   45.5150   18.5680 H   0  0  0  0  0  0  0  0  0  0  0  0
   36.6710   47.2310   13.9370 C   0  0  0  0  0  3  0  0  0  0  0  0
   36.4680   46.5080   12.6330 C   0  0  0  0  0  2  0  0  0  0  0  0
   35.4760   46.3380   13.7510 C   0  0  0  0  0  2  0  0  0  0  0  0
   38.9970   47.7830   14.4990 O   0  0  0  0  0  0  0  0  0  0  0  0
   39.0200   47.7790   13.5220 H   0  0  0  0  0  0  0  0  0  0  0  0
  1  2  1  0  0  0  0
  2  3  2  0  0  0  0
  4  7  1  0  0  0  0
  4  3  1  0  0  0  0
  5  4  2  0  0  0  0
  6  5  1  0  0  0  0
  6  1  2  0  0  0  0
  7  8  1  0  0  0  0
  8  9  2  0  0  0  0
  9 19  1  0  0  0  0
 10  9  1  0  0  0  0
 11  7  2  0  0  0  0
 11 10  1  0  0  0  0
 12 10  1  0  0  0  0
 12 13  1  0  0  0  0
 13 14  1  0  0  0  0
 14 19  2  0  0  0  0
 14 15  1  0  0  0  0
 15 16  2  0  0  0  0
 16 17  1  0  0  0  0
 18 17  2  0  0  0  0
 19 18  1  0  0  0  0
 20 21  1  0  0  0  0
 20 11  1  0  0  0  0
 22 21  2  0  0  0  0
 23 22  1  0  0  0  0
 24 23  2  0  0  0  0
 24 25  1  0  0  0  0
 25 20  2  0  0  0  0
 26  1  1  0  0  0  0
 26 30  1  1  0  0  0
 27 26  1  0  0  0  0
 28 37  1  6  0  0  0
 28 29  1  0  0  0  0
 28 27  1  0  0  0  0
 29 26  1  0  0  0  0
 30 32  1  0  0  0  0
 30 33  1  0  0  0  0
 31 30  1  0  0  0  0
 34 28  1  0  0  0  0
 35 36  1  0  0  0  0
 35 34  1  0  0  0  0
 36 34  1  0  0  0  0
 38 37  1  0  0  0  0
M  END
>  <minimizedAffinity>
-11.0664196

$$$$

 OpenBabel11232419333D

 38 44  0  0  1  0  0  0  0  0999 V2000
   32.4180   43.1890   17.2300 C   0  0  0  0  0  0  0  0  0  0  0  0
   32.6190   44.4690   17.7880 C   0  0  0  0  0  3  0  0  0  0  0  0
   33.8990   44.9950   18.0060 C   0  0  0  0  0  3  0  0  0  0  0  0
   35.0330   44.2700   17.6440 C   0  0  0  0  0  0  0  0  0  0  0  0
   34.8730   43.0080   17.0750 C   0  0  0  0  0  3  0  0  0  0  0  0
   33.5920   42.4810   16.8780 C   0  0  0  0  0  3  0  0  0  0  0  0
   36.3480   44.8190   17.9030 C   0  0  0  0  0  0  0  0  0  0  0  0
   36.9520   45.6950   17.0310 N   0  0  0  0  0  0  0  0  0  0  0  0
   38.1100   45.9850   17.5830 C   0  0  0  0  0  0  0  0  0  0  0  0
   38.2770   45.3100   18.7600 N   0  0  0  0  0  0  0  0  0  0  0  0
   37.1530   44.5560   19.0040 C   0  0  0  0  0  0  0  0  0  0  0  0
   39.4560   45.4910   19.5870 C   0  0  0  0  0  2  0  0  0  0  0  0
   40.6090   45.9660   18.8600 O   0  0  0  0  0  0  0  0  0  0  0  0
   40.3740   46.8140   17.8130 C   0  0  0  0  0  0  0  0  0  0  0  0
   41.4030   47.6210   17.3590 C   0  0  0  0  0  3  0  0  0  0  0  0
   41.2840   48.4700   16.3120 N   0  0  0  0  0  0  0  0  0  0  0  0
   40.0910   48.5000   15.6780 C   0  0  0  0  0  3  0  0  0  0  0  0
   39.0080   47.7170   16.0410 C   0  0  0  0  0  3  0  0  0  0  0  0
   39.1610   46.8620   17.1270 C   0  0  0  0  0  0  0  0  0  0  0  0
   36.9810   43.6770   20.1510 C   0  0  0  0  0  0  0  0  0  0  0  0
   37.4430   44.0720   21.4110 C   0  0  0  0  0  3  0  0  0  0  0  0
   37.2710   43.2400   22.5180 C   0  0  0  0  0  3  0  0  0  0  0  0
   36.6410   42.0050   22.3700 C   0  0  0  0  0  3  0  0  0  0  0  0
   36.1830   41.6010   21.1160 C   0  0  0  0  0  3  0  0  0  0  0  0
   36.3520   42.4340   20.0080 C   0  0  0  0  0  3  0  0  0  0  0  0
   30.9730   42.5640   16.9910 C   0  0  2  0  0  0  0  0  0  0  0  0
   30.1960   41.9070   18.1550 C   0  0  0  0  0  2  0  0  0  0  0  0
   30.3990   40.4980   17.5120 C   0  0  1  0  0  0  0  0  0  0  0  0
   30.8830   41.2250   16.2190 C   0  0  0  0  0  2  0  0  0  0  0  0
   30.1500   43.6180   16.3490 N   0  0  0  0  0  4  0  0  0  0  0  0
   29.1910   43.3010   16.1540 H   0  0  0  0  0  0  0  0  0  0  0  0
   30.5600   43.9300   15.4600 H   0  0  0  0  0  0  0  0  0  0  0  0
   30.0830   44.4500   16.9510 H   0  0  0  0  0  0  0  0  0  0  0  0
   31.3700   39.5960   18.2610 C   0  0  0  0  0  3  0  0  0  0  0  0
   31.3250   39.3780   19.7490 C   0  0  0  0  0  2  0  0  0  0  0  0
   31.0750   38.2290   18.8120 C   0  0  0  0  0  2  0  0  0  0  0  0
   29.1280   39.8440   17.2890 O   0  0  0  0  0  0  0  0  0  0  0  0
   29.3450   38.9180   17.0650 H   0  0  0  0  0  0  0  0  0  0  0  0
  1  2  1  0  0  0  0
  2  3  2  0  0  0  0
  4  7  1  0  0  0  0
  4  3  1  0  0  0  0
  5  4  2  0  0  0  0
  6  5  1  0  0  0  0
  6  1  2  0  0  0  0
  7 11  2  0  0  0  0
  8  9  2  0  0  0  0
  8  7  1  0  0  0  0
  9 10  1  0  0  0  0
 10 11  1  0  0  0  0
 10 12  1  0  0  0  0
 11 20  1  0  0  0  0
 13 12  1  0  0  0  0
 14 13  1  0  0  0  0
 15 14  1  0  0  0  0
 16 15  2  0  0  0  0
 17 18  2  0  0  0  0
 17 16  1  0  0  0  0
 18 19  1  0  0  0  0
 19  9  1  0  0  0  0
 19 14  2  0  0  0  0
 20 21  1  0  0  0  0
 21 22  2  0  0  0  0
 23 22  1  0  0  0  0
 24 23  2  0  0  0  0
 25 20  2  0  0  0  0
 25 24  1  0  0  0  0
 26 30  1  6  0  0  0
 26  1  1  0  0  0  0
 26 27  1  0  0  0  0
 28 37  1  6  0  0  0
 28 27  1  0  0  0  0
 28 34  1  0  0  0  0
 29 26  1  0  0  0  0
 29 28  1  0  0  0  0
 30 33  1  0  0  0  0
 31 30  1  0  0  0  0
 32 30  1  0  0  0  0
 34 36  1  0  0  0  0
 34 35  1  0  0  0  0
 36 35  1  0  0  0  0
 38 37  1  0  0  0  0
M  END
>  <minimizedAffinity>
-10.354373

$$$$

 OpenBabel11232419333D

 38 44  0  0  1  0  0  0  0  0999 V2000
   37.6030   43.5110   23.0980 C   0  0  0  0  0  0  0  0  0  0  0  0
   38.2470   44.6390   22.5480 C   0  0  0  0  0  3  0  0  0  0  0  0
   38.0620   45.0270   21.2150 C   0  0  0  0  0  3  0  0  0  0  0  0
   37.1970   44.3160   20.3840 C   0  0  0  0  0  0  0  0  0  0  0  0
   36.5310   43.2050   20.8970 C   0  0  0  0  0  3  0  0  0  0  0  0
   36.7360   42.8120   22.2250 C   0  0  0  0  0  3  0  0  0  0  0  0
   37.0410   44.7160   19.0020 C   0  0  0  0  0  0  0  0  0  0  0  0
   37.9870   45.4800   18.3570 N   0  0  0  0  0  0  0  0  0  0  0  0
   37.5250   45.6410   17.1360 C   0  0  0  0  0  0  0  0  0  0  0  0
   36.3110   45.0300   16.9850 N   0  0  0  0  0  0  0  0  0  0  0  0
   35.9740   44.4130   18.1660 C   0  0  0  0  0  0  0  0  0  0  0  0
   35.6090   45.0230   15.7150 C   0  0  0  0  0  2  0  0  0  0  0  0
   35.9840   46.1060   14.8380 O   0  0  0  0  0  0  0  0  0  0  0  0
   37.2830   46.5290   14.8960 C   0  0  0  0  0  0  0  0  0  0  0  0
   37.8070   47.2380   13.8290 C   0  0  0  0  0  3  0  0  0  0  0  0
   39.0680   47.7270   13.8000 N   0  0  0  0  0  0  0  0  0  0  0  0
   39.8340   47.5170   14.8940 C   0  0  0  0  0  3  0  0  0  0  0  0
   39.3950   46.8410   16.0200 C   0  0  0  0  0  3  0  0  0  0  0  0
   38.0970   46.3420   16.0130 C   0  0  0  0  0  0  0  0  0  0  0  0
   34.7320   43.6880   18.3950 C   0  0  0  0  0  0  0  0  0  0  0  0
   34.5770   42.3920   17.8920 C   0  0  0  0  0  3  0  0  0  0  0  0
   33.3940   41.6850   18.1160 C   0  0  0  0  0  3  0  0  0  0  0  0
   32.3580   42.2730   18.8400 C   0  0  0  0  0  3  0  0  0  0  0  0
   32.5030   43.5680   19.3400 C   0  0  0  0  0  3  0  0  0  0  0  0
   33.6870   44.2740   19.1190 C   0  0  0  0  0  3  0  0  0  0  0  0
   37.8140   43.0400   24.6040 C   0  0  2  0  0  0  0  0  0  0  0  0
   37.5380   44.0070   25.7790 C   0  0  0  0  0  2  0  0  0  0  0  0
   39.0670   44.0920   26.0840 C   0  0  1  0  0  0  0  0  0  0  0  0
   39.2670   42.8840   25.1180 C   0  0  0  0  0  2  0  0  0  0  0  0
   37.0400   41.7850   24.7740 N   0  0  0  0  0  4  0  0  0  0  0  0
   37.1180   41.4030   25.7260 H   0  0  0  0  0  0  0  0  0  0  0  0
   37.3520   41.0560   24.1200 H   0  0  0  0  0  0  0  0  0  0  0  0
   36.0400   41.9410   24.5860 H   0  0  0  0  0  0  0  0  0  0  0  0
   39.7060   45.4300   25.7380 C   0  0  0  0  0  3  0  0  0  0  0  0
   39.4940   46.6860   26.5390 C   0  0  0  0  0  2  0  0  0  0  0  0
   40.8650   46.0750   26.4450 C   0  0  0  0  0  2  0  0  0  0  0  0
   39.3430   43.7070   27.4510 O   0  0  0  0  0  0  0  0  0  0  0  0
   40.2730   43.9620   27.6120 H   0  0  0  0  0  0  0  0  0  0  0  0
  1 26  1  0  0  0  0
  2  1  1  0  0  0  0
  3  2  2  0  0  0  0
  4  5  2  0  0  0  0
  4  3  1  0  0  0  0
  5  6  1  0  0  0  0
  6  1  2  0  0  0  0
  7  4  1  0  0  0  0
  8  7  1  0  0  0  0
  9  8  2  0  0  0  0
 10  9  1  0  0  0  0
 10 11  1  0  0  0  0
 11 20  1  0  0  0  0
 11  7  2  0  0  0  0
 12 10  1  0  0  0  0
 13 14  1  0  0  0  0
 13 12  1  0  0  0  0
 14 19  1  0  0  0  0
 15 14  2  0  0  0  0
 16 15  1  0  0  0  0
 16 17  2  0  0  0  0
 17 18  1  0  0  0  0
 19 18  2  0  0  0  0
 19  9  1  0  0  0  0
 20 25  1  0  0  0  0
 21 22  1  0  0  0  0
 21 20  2  0  0  0  0
 22 23  2  0  0  0  0
 23 24  1  0  0  0  0
 25 24  2  0  0  0  0
 26 30  1  1  0  0  0
 26 29  1  0  0  0  0
 26 27  1  0  0  0  0
 27 28  1  0  0  0  0
 28 37  1  1  0  0  0
 29 28  1  0  0  0  0
 30 31  1  0  0  0  0
 32 30  1  0  0  0  0
 33 30  1  0  0  0  0
 34 28  1  0  0  0  0
 34 36  1  0  0  0  0
 34 35  1  0  0  0  0
 36 35  1  0  0  0  0
 37 38  1  0  0  0  0
M  END
>  <minimizedAffinity>
-10.327507

$$$$
