
 OpenBabel10152418143D

 39 42  0  0  1  0  0  0  0  0999 V2000
    2.5010  -11.2710  -26.0650 C   0  0  2  0  0  3  0  0  0  0  0  0
    0.9740  -11.3210  -25.9500 C   0  0  0  0  0  0  0  0  0  0  0  0
    0.1430  -10.6690  -26.8700 C   0  0  0  0  0  3  0  0  0  0  0  0
   -1.2110  -10.5090  -26.5980 C   0  0  0  0  0  3  0  0  0  0  0  0
   -1.7440  -10.9580  -25.3870 C   0  0  0  0  0  3  0  0  0  0  0  0
   -0.9570  -11.6500  -24.4700 C   0  0  0  0  0  0  0  0  0  0  0  0
    0.3870  -11.8800  -24.7980 C   0  0  0  0  0  3  0  0  0  0  0  0
   -1.3500  -12.0380  -23.1720 N   0  0  0  0  0  0  0  0  0  0  0  0
   -1.5180  -11.3560  -21.9910 C   0  0  0  0  0  0  0  0  0  0  0  0
   -1.6360  -11.9700  -20.9320 O   0  0  0  0  0  0  0  0  0  0  0  0
   -1.4390  -13.0350  -23.0140 H   0  0  0  0  0  0  0  0  0  0  0  0
   -1.6200   -9.8930  -21.9720 C   0  0  0  0  0  0  0  0  0  0  0  0
   -1.5220   -9.2110  -20.7560 C   0  0  0  0  0  3  0  0  0  0  0  0
   -1.5020   -7.8140  -20.7600 C   0  0  0  0  0  3  0  0  0  0  0  0
   -1.6000   -7.1230  -21.9710 C   0  0  0  0  0  0  0  0  0  0  0  0
   -1.4990   -5.2350  -21.9820 Br  0  0  0  0  0  0  0  0  0  0  0  0
   -1.7490   -7.8090  -23.1790 C   0  0  0  0  0  3  0  0  0  0  0  0
   -1.7700   -9.2020  -23.1810 C   0  0  0  0  0  3  0  0  0  0  0  0
    3.0710  -10.0370  -25.4790 N   0  0  0  0  0  0  0  0  0  0  0  0
    3.9970  -10.1770  -25.0840 H   0  0  0  0  0  0  0  0  0  0  0  0
    3.1480   -8.8280  -26.1530 C   0  0  0  0  0  0  0  0  0  0  0  0
    4.2180   -8.7840  -26.9600 N   0  0  0  0  0  0  0  0  0  0  0  0
    4.2690   -7.7650  -27.8150 C   0  0  0  0  0  3  0  0  0  0  0  0
    3.3480   -6.8060  -27.9520 N   0  0  0  0  0  0  0  0  0  0  0  0
    2.2950   -6.8140  -27.1030 C   0  0  0  0  0  0  0  0  0  0  0  0
    1.2550   -5.8660  -27.1920 C   0  0  0  0  0  0  0  0  0  0  0  0
    0.2080   -5.8340  -26.2520 C   0  0  0  0  0  3  0  0  0  0  0  0
    0.1880   -6.7290  -25.1930 C   0  0  0  0  0  3  0  0  0  0  0  0
    1.1770   -7.7030  -25.1160 C   0  0  0  0  0  3  0  0  0  0  0  0
    2.1970   -7.7930  -26.0970 C   0  0  0  0  0  0  0  0  0  0  0  0
    1.1670   -4.8540  -28.2930 C   0  0  0  0  0  0  0  0  0  0  0  0
    0.6670   -5.2510  -29.5000 N   0  0  0  0  0  0  0  0  0  0  0  0
    1.5300   -3.6960  -28.1350 O   0  0  0  0  0  0  0  0  0  0  0  0
    0.6040   -4.5800  -30.2500 H   0  0  0  0  0  0  0  0  0  0  0  0
    0.3220   -6.1970  -29.6320 H   0  0  0  0  0  0  0  0  0  0  0  0
    2.9370  -11.4100  -27.5420 C   0  0  0  0  0  2  0  0  0  0  0  0
    4.3110  -12.0380  -27.7780 C   0  0  0  0  0  2  0  0  0  0  0  0
    4.0250  -10.9040  -29.8590 C   0  0  0  0  0  1  0  0  0  0  0  0
    4.8610  -11.7170  -29.0490 O   0  0  0  0  0  0  0  0  0  0  0  0
  1 36  1  6  0  0  0
  1  2  1  0  0  0  0
  1 19  1  0  0  0  0
  2  7  1  0  0  0  0
  3  4  1  0  0  0  0
  3  2  2  0  0  0  0
  4  5  2  0  0  0  0
  5  6  1  0  0  0  0
  6  8  1  0  0  0  0
  7  6  2  0  0  0  0
  8 11  1  0  0  0  0
  8  9  1  0  0  0  0
  9 12  1  0  0  0  0
  9 10  2  0  0  0  0
 12 13  1  0  0  0  0
 14 13  2  0  0  0  0
 15 14  1  0  0  0  0
 16 15  1  0  0  0  0
 17 15  2  0  0  0  0
 18 17  1  0  0  0  0
 18 12  2  0  0  0  0
 19 20  1  0  0  0  0
 21 30  1  0  0  0  0
 21 19  1  0  0  0  0
 22 21  2  0  0  0  0
 23 22  1  0  0  0  0
 24 23  2  0  0  0  0
 24 25  1  0  0  0  0
 25 30  1  0  0  0  0
 26 25  2  0  0  0  0
 26 27  1  0  0  0  0
 27 28  2  0  0  0  0
 28 29  1  0  0  0  0
 30 29  2  0  0  0  0
 31 33  2  0  0  0  0
 31 26  1  0  0  0  0
 32 31  1  0  0  0  0
 34 32  1  0  0  0  0
 35 32  1  0  0  0  0
 37 36  1  0  0  0  0
 38 39  1  0  0  0  0
 39 37  1  0  0  0  0
M  END
>  <minimizedAffinity>
-6.12077045

$$$$
