
 OpenBabel10152418143D

 39 42  0  0  1  0  0  0  0  0999 V2000
    3.4180   -8.3680  -27.2150 C   0  0  2  0  0  3  0  0  0  0  0  0
    2.8440   -9.5930  -26.4970 C   0  0  0  0  0  0  0  0  0  0  0  0
    3.6640  -10.6320  -26.0390 C   0  0  0  0  0  3  0  0  0  0  0  0
    3.1030  -11.8380  -25.6320 C   0  0  0  0  0  3  0  0  0  0  0  0
    1.7240  -12.0390  -25.7200 C   0  0  0  0  0  3  0  0  0  0  0  0
    0.8750  -11.0120  -26.1280 C   0  0  0  0  0  0  0  0  0  0  0  0
    1.4470   -9.7740  -26.4500 C   0  0  0  0  0  3  0  0  0  0  0  0
   -0.5090  -11.1340  -26.3720 N   0  0  0  0  0  0  0  0  0  0  0  0
   -1.6250  -10.9670  -25.5880 C   0  0  0  0  0  0  0  0  0  0  0  0
   -2.7200  -11.3700  -25.9760 O   0  0  0  0  0  0  0  0  0  0  0  0
   -0.7700  -11.5190  -27.2730 H   0  0  0  0  0  0  0  0  0  0  0  0
   -1.5500  -10.2570  -24.3080 C   0  0  0  0  0  0  0  0  0  0  0  0
   -2.0810   -8.9680  -24.2010 C   0  0  0  0  0  3  0  0  0  0  0  0
   -2.1100   -8.3470  -22.9500 C   0  0  0  0  0  3  0  0  0  0  0  0
   -1.5930   -9.0100  -21.8340 C   0  0  0  0  0  0  0  0  0  0  0  0
   -1.7010   -8.1990  -20.1300 Br  0  0  0  0  0  0  0  0  0  0  0  0
   -1.0180  -10.2770  -21.9550 C   0  0  0  0  0  3  0  0  0  0  0  0
   -0.9850  -10.9020  -23.2000 C   0  0  0  0  0  3  0  0  0  0  0  0
    2.4310   -7.7250  -28.1110 N   0  0  0  0  0  0  0  0  0  0  0  0
    1.5910   -8.2840  -28.2420 H   0  0  0  0  0  0  0  0  0  0  0  0
    1.9740   -6.4260  -27.9500 C   0  0  0  0  0  0  0  0  0  0  0  0
    2.2910   -5.6610  -29.0050 N   0  0  0  0  0  0  0  0  0  0  0  0
    1.7150   -4.4620  -29.0550 C   0  0  0  0  0  3  0  0  0  0  0  0
    0.8440   -3.9690  -28.1700 N   0  0  0  0  0  0  0  0  0  0  0  0
    0.5650   -4.7130  -27.0750 C   0  0  0  0  0  0  0  0  0  0  0  0
   -0.3670   -4.2940  -26.1040 C   0  0  0  0  0  0  0  0  0  0  0  0
   -0.5870   -5.0380  -24.9290 C   0  0  0  0  0  3  0  0  0  0  0  0
    0.1320   -6.1990  -24.6880 C   0  0  0  0  0  3  0  0  0  0  0  0
    1.0180   -6.6540  -25.6570 C   0  0  0  0  0  3  0  0  0  0  0  0
    1.1970   -5.9550  -26.8770 C   0  0  0  0  0  0  0  0  0  0  0  0
   -1.2040   -3.0610  -26.2570 C   0  0  0  0  0  0  0  0  0  0  0  0
   -0.5980   -1.9140  -26.6770 N   0  0  0  0  0  0  0  0  0  0  0  0
   -2.4050   -3.0630  -26.0150 O   0  0  0  0  0  0  0  0  0  0  0  0
   -1.1500   -1.0760  -26.7830 H   0  0  0  0  0  0  0  0  0  0  0  0
    0.3870   -1.9070  -26.9220 H   0  0  0  0  0  0  0  0  0  0  0  0
    4.6870   -8.7530  -28.0110 C   0  0  0  0  0  2  0  0  0  0  0  0
    4.4670   -9.1530  -29.4700 C   0  0  0  0  0  2  0  0  0  0  0  0
    3.7460   -8.2520  -31.5590 C   0  0  0  0  0  1  0  0  0  0  0  0
    4.4770   -8.0440  -30.3600 O   0  0  0  0  0  0  0  0  0  0  0  0
  1 36  1  6  0  0  0
  1  2  1  0  0  0  0
  2  7  2  0  0  0  0
  2  3  1  0  0  0  0
  3  4  2  0  0  0  0
  5  4  1  0  0  0  0
  6  5  2  0  0  0  0
  7  6  1  0  0  0  0
  8  6  1  0  0  0  0
  8  9  1  0  0  0  0
  9 12  1  0  0  0  0
 10  9  2  0  0  0  0
 11  8  1  0  0  0  0
 12 13  2  0  0  0  0
 12 18  1  0  0  0  0
 13 14  1  0  0  0  0
 14 15  2  0  0  0  0
 15 16  1  0  0  0  0
 17 15  1  0  0  0  0
 18 17  2  0  0  0  0
 19 21  1  0  0  0  0
 19  1  1  0  0  0  0
 20 19  1  0  0  0  0
 21 30  1  0  0  0  0
 22 21  2  0  0  0  0
 23 22  1  0  0  0  0
 23 24  2  0  0  0  0
 24 25  1  0  0  0  0
 25 30  2  0  0  0  0
 25 26  1  0  0  0  0
 26 27  2  0  0  0  0
 27 28  1  0  0  0  0
 29 28  2  0  0  0  0
 30 29  1  0  0  0  0
 31 26  1  0  0  0  0
 31 33  2  0  0  0  0
 32 31  1  0  0  0  0
 34 32  1  0  0  0  0
 35 32  1  0  0  0  0
 37 36  1  0  0  0  0
 38 39  1  0  0  0  0
 39 37  1  0  0  0  0
M  END
>  <minimizedAffinity>
-6.79137278

$$$$

 OpenBabel10152418143D

 39 42  0  0  1  0  0  0  0  0999 V2000
    2.5010  -11.2710  -26.0650 C   0  0  2  0  0  3  0  0  0  0  0  0
    0.9740  -11.3210  -25.9500 C   0  0  0  0  0  0  0  0  0  0  0  0
    0.1430  -10.6690  -26.8700 C   0  0  0  0  0  3  0  0  0  0  0  0
   -1.2110  -10.5090  -26.5980 C   0  0  0  0  0  3  0  0  0  0  0  0
   -1.7440  -10.9580  -25.3870 C   0  0  0  0  0  3  0  0  0  0  0  0
   -0.9570  -11.6500  -24.4700 C   0  0  0  0  0  0  0  0  0  0  0  0
    0.3870  -11.8800  -24.7980 C   0  0  0  0  0  3  0  0  0  0  0  0
   -1.3500  -12.0380  -23.1720 N   0  0  0  0  0  0  0  0  0  0  0  0
   -1.5180  -11.3560  -21.9910 C   0  0  0  0  0  0  0  0  0  0  0  0
   -1.6360  -11.9700  -20.9320 O   0  0  0  0  0  0  0  0  0  0  0  0
   -1.4390  -13.0350  -23.0140 H   0  0  0  0  0  0  0  0  0  0  0  0
   -1.6200   -9.8930  -21.9720 C   0  0  0  0  0  0  0  0  0  0  0  0
   -1.5220   -9.2110  -20.7560 C   0  0  0  0  0  3  0  0  0  0  0  0
   -1.5020   -7.8140  -20.7600 C   0  0  0  0  0  3  0  0  0  0  0  0
   -1.6000   -7.1230  -21.9710 C   0  0  0  0  0  0  0  0  0  0  0  0
   -1.4990   -5.2350  -21.9820 Br  0  0  0  0  0  0  0  0  0  0  0  0
   -1.7490   -7.8090  -23.1790 C   0  0  0  0  0  3  0  0  0  0  0  0
   -1.7700   -9.2020  -23.1810 C   0  0  0  0  0  3  0  0  0  0  0  0
    3.0710  -10.0370  -25.4790 N   0  0  0  0  0  0  0  0  0  0  0  0
    3.9970  -10.1770  -25.0840 H   0  0  0  0  0  0  0  0  0  0  0  0
    3.1480   -8.8280  -26.1530 C   0  0  0  0  0  0  0  0  0  0  0  0
    4.2180   -8.7840  -26.9600 N   0  0  0  0  0  0  0  0  0  0  0  0
    4.2690   -7.7650  -27.8150 C   0  0  0  0  0  3  0  0  0  0  0  0
    3.3480   -6.8060  -27.9520 N   0  0  0  0  0  0  0  0  0  0  0  0
    2.2950   -6.8140  -27.1030 C   0  0  0  0  0  0  0  0  0  0  0  0
    1.2550   -5.8660  -27.1920 C   0  0  0  0  0  0  0  0  0  0  0  0
    0.2080   -5.8340  -26.2520 C   0  0  0  0  0  3  0  0  0  0  0  0
    0.1880   -6.7290  -25.1930 C   0  0  0  0  0  3  0  0  0  0  0  0
    1.1770   -7.7030  -25.1160 C   0  0  0  0  0  3  0  0  0  0  0  0
    2.1970   -7.7930  -26.0970 C   0  0  0  0  0  0  0  0  0  0  0  0
    1.1670   -4.8540  -28.2930 C   0  0  0  0  0  0  0  0  0  0  0  0
    0.6670   -5.2510  -29.5000 N   0  0  0  0  0  0  0  0  0  0  0  0
    1.5300   -3.6960  -28.1350 O   0  0  0  0  0  0  0  0  0  0  0  0
    0.6040   -4.5800  -30.2500 H   0  0  0  0  0  0  0  0  0  0  0  0
    0.3220   -6.1970  -29.6320 H   0  0  0  0  0  0  0  0  0  0  0  0
    2.9370  -11.4100  -27.5420 C   0  0  0  0  0  2  0  0  0  0  0  0
    4.3110  -12.0380  -27.7780 C   0  0  0  0  0  2  0  0  0  0  0  0
    4.0250  -10.9040  -29.8590 C   0  0  0  0  0  1  0  0  0  0  0  0
    4.8610  -11.7170  -29.0490 O   0  0  0  0  0  0  0  0  0  0  0  0
  1 36  1  6  0  0  0
  1  2  1  0  0  0  0
  1 19  1  0  0  0  0
  2  7  1  0  0  0  0
  3  4  1  0  0  0  0
  3  2  2  0  0  0  0
  4  5  2  0  0  0  0
  5  6  1  0  0  0  0
  6  8  1  0  0  0  0
  7  6  2  0  0  0  0
  8 11  1  0  0  0  0
  8  9  1  0  0  0  0
  9 12  1  0  0  0  0
  9 10  2  0  0  0  0
 12 13  1  0  0  0  0
 14 13  2  0  0  0  0
 15 14  1  0  0  0  0
 16 15  1  0  0  0  0
 17 15  2  0  0  0  0
 18 17  1  0  0  0  0
 18 12  2  0  0  0  0
 19 20  1  0  0  0  0
 21 30  1  0  0  0  0
 21 19  1  0  0  0  0
 22 21  2  0  0  0  0
 23 22  1  0  0  0  0
 24 23  2  0  0  0  0
 24 25  1  0  0  0  0
 25 30  1  0  0  0  0
 26 25  2  0  0  0  0
 26 27  1  0  0  0  0
 27 28  2  0  0  0  0
 28 29  1  0  0  0  0
 30 29  2  0  0  0  0
 31 33  2  0  0  0  0
 31 26  1  0  0  0  0
 32 31  1  0  0  0  0
 34 32  1  0  0  0  0
 35 32  1  0  0  0  0
 37 36  1  0  0  0  0
 38 39  1  0  0  0  0
 39 37  1  0  0  0  0
M  END
>  <minimizedAffinity>
-6.12077045

$$$$

 OpenBabel10152418143D

 39 42  0  0  1  0  0  0  0  0999 V2000
    1.2990   -8.0050  -25.6600 C   0  0  2  0  0  3  0  0  0  0  0  0
    1.4490   -6.9410  -26.7520 C   0  0  0  0  0  0  0  0  0  0  0  0
    0.5390   -5.8840  -26.8830 C   0  0  0  0  0  3  0  0  0  0  0  0
    0.5450   -5.0940  -28.0270 C   0  0  0  0  0  3  0  0  0  0  0  0
    1.4280   -5.3750  -29.0730 C   0  0  0  0  0  3  0  0  0  0  0  0
    2.3750   -6.3890  -28.9570 C   0  0  0  0  0  0  0  0  0  0  0  0
    2.4150   -7.1200  -27.7620 C   0  0  0  0  0  3  0  0  0  0  0  0
    3.2280   -6.8420  -29.9860 N   0  0  0  0  0  0  0  0  0  0  0  0
    4.1980   -7.8140  -30.0500 C   0  0  0  0  0  0  0  0  0  0  0  0
    4.9740   -7.8520  -31.0030 O   0  0  0  0  0  0  0  0  0  0  0  0
    3.2250   -6.2970  -30.8400 H   0  0  0  0  0  0  0  0  0  0  0  0
    4.2930   -8.8560  -29.0220 C   0  0  0  0  0  0  0  0  0  0  0  0
    4.9740   -8.5900  -27.8310 C   0  0  0  0  0  3  0  0  0  0  0  0
    4.9590   -9.5450  -26.8120 C   0  0  0  0  0  3  0  0  0  0  0  0
    4.2840  -10.7540  -27.0050 C   0  0  0  0  0  0  0  0  0  0  0  0
    4.2020  -12.0140  -25.5980 Br  0  0  0  0  0  0  0  0  0  0  0  0
    3.6470  -11.0350  -28.2150 C   0  0  0  0  0  3  0  0  0  0  0  0
    3.6600  -10.0860  -29.2360 C   0  0  0  0  0  3  0  0  0  0  0  0
    0.1590   -8.9150  -25.9130 N   0  0  0  0  0  0  0  0  0  0  0  0
    0.2350   -9.4090  -26.7980 H   0  0  0  0  0  0  0  0  0  0  0  0
   -0.2800   -9.8690  -25.0080 C   0  0  0  0  0  0  0  0  0  0  0  0
    0.3180  -11.0520  -25.2120 N   0  0  0  0  0  0  0  0  0  0  0  0
    0.1380  -11.9730  -24.2700 C   0  0  0  0  0  3  0  0  0  0  0  0
   -0.5620  -11.8190  -23.1410 N   0  0  0  0  0  0  0  0  0  0  0  0
   -1.2140  -10.6490  -22.9570 C   0  0  0  0  0  0  0  0  0  0  0  0
   -1.9480  -10.3780  -21.7830 C   0  0  0  0  0  0  0  0  0  0  0  0
   -2.6900   -9.1910  -21.6390 C   0  0  0  0  0  3  0  0  0  0  0  0
   -2.7340   -8.2610  -22.6670 C   0  0  0  0  0  3  0  0  0  0  0  0
   -1.9770   -8.4860  -23.8110 C   0  0  0  0  0  3  0  0  0  0  0  0
   -1.1670   -9.6430  -23.9410 C   0  0  0  0  0  0  0  0  0  0  0  0
   -1.9710  -11.3040  -20.6060 C   0  0  0  0  0  0  0  0  0  0  0  0
   -0.7900  -11.8320  -20.1730 N   0  0  0  0  0  0  0  0  0  0  0  0
   -3.0140  -11.5910  -20.0320 O   0  0  0  0  0  0  0  0  0  0  0  0
   -0.7920  -12.4570  -19.3820 H   0  0  0  0  0  0  0  0  0  0  0  0
    0.0870  -11.5690  -20.6120 H   0  0  0  0  0  0  0  0  0  0  0  0
    1.1510   -7.3390  -24.2720 C   0  0  0  0  0  2  0  0  0  0  0  0
    0.1320   -6.2030  -24.1800 C   0  0  0  0  0  2  0  0  0  0  0  0
   -1.0430   -4.9370  -22.5320 C   0  0  0  0  0  1  0  0  0  0  0  0
    0.1940   -5.4950  -22.9480 O   0  0  0  0  0  0  0  0  0  0  0  0
  1 36  1  1  0  0  0
  2  1  1  0  0  0  0
  3  2  1  0  0  0  0
  4  3  2  0  0  0  0
  5  6  2  0  0  0  0
  5  4  1  0  0  0  0
  6  7  1  0  0  0  0
  7  2  2  0  0  0  0
  8  6  1  0  0  0  0
  9  8  1  0  0  0  0
  9 12  1  0  0  0  0
 10  9  2  0  0  0  0
 11  8  1  0  0  0  0
 12 13  1  0  0  0  0
 13 14  2  0  0  0  0
 15 14  1  0  0  0  0
 15 16  1  0  0  0  0
 17 15  2  0  0  0  0
 18 12  2  0  0  0  0
 18 17  1  0  0  0  0
 19  1  1  0  0  0  0
 19 21  1  0  0  0  0
 20 19  1  0  0  0  0
 21 30  1  0  0  0  0
 22 21  2  0  0  0  0
 22 23  1  0  0  0  0
 23 24  2  0  0  0  0
 24 25  1  0  0  0  0
 25 26  1  0  0  0  0
 26 27  2  0  0  0  0
 26 31  1  0  0  0  0
 28 27  1  0  0  0  0
 29 28  2  0  0  0  0
 30 29  1  0  0  0  0
 30 25  2  0  0  0  0
 31 32  1  0  0  0  0
 31 33  2  0  0  0  0
 32 34  1  0  0  0  0
 35 32  1  0  0  0  0
 36 37  1  0  0  0  0
 37 39  1  0  0  0  0
 39 38  1  0  0  0  0
M  END
>  <minimizedAffinity>
-5.72771025

$$$$

 OpenBabel10152418143D

 39 42  0  0  1  0  0  0  0  0999 V2000
    0.2470   -6.8650  -25.4630 C   0  0  2  0  0  3  0  0  0  0  0  0
    1.0160   -6.3970  -26.7030 C   0  0  0  0  0  0  0  0  0  0  0  0
    0.5540   -5.3450  -27.5040 C   0  0  0  0  0  3  0  0  0  0  0  0
    1.1220   -5.1170  -28.7530 C   0  0  0  0  0  3  0  0  0  0  0  0
    2.1240   -5.9620  -29.2370 C   0  0  0  0  0  3  0  0  0  0  0  0
    2.6360   -6.9890  -28.4490 C   0  0  0  0  0  0  0  0  0  0  0  0
    2.1150   -7.1510  -27.1580 C   0  0  0  0  0  3  0  0  0  0  0  0
    3.5530   -7.9750  -28.8720 N   0  0  0  0  0  0  0  0  0  0  0  0
    3.9800   -9.1630  -28.3300 C   0  0  0  0  0  0  0  0  0  0  0  0
    4.9740   -9.7280  -28.7820 O   0  0  0  0  0  0  0  0  0  0  0  0
    4.1040   -7.7480  -29.6910 H   0  0  0  0  0  0  0  0  0  0  0  0
    3.2330   -9.8120  -27.2470 C   0  0  0  0  0  0  0  0  0  0  0  0
    2.7100  -11.0940  -27.4410 C   0  0  0  0  0  3  0  0  0  0  0  0
    2.1040  -11.7490  -26.3670 C   0  0  0  0  0  3  0  0  0  0  0  0
    2.0110  -11.1100  -25.1280 C   0  0  0  0  0  0  0  0  0  0  0  0
    1.2560  -12.0270  -23.6560 Br  0  0  0  0  0  0  0  0  0  0  0  0
    2.4900   -9.8100  -24.9530 C   0  0  0  0  0  3  0  0  0  0  0  0
    3.0950   -9.1500  -26.0200 C   0  0  0  0  0  3  0  0  0  0  0  0
   -0.9300   -7.6940  -25.8080 N   0  0  0  0  0  0  0  0  0  0  0  0
   -0.9070   -8.0350  -26.7660 H   0  0  0  0  0  0  0  0  0  0  0  0
   -1.3600   -8.7740  -25.0530 C   0  0  0  0  0  0  0  0  0  0  0  0
   -1.4340   -9.8910  -25.7930 N   0  0  0  0  0  0  0  0  0  0  0  0
   -1.6220  -11.0260  -25.1250 C   0  0  0  0  0  3  0  0  0  0  0  0
   -1.7210  -11.1530  -23.7980 N   0  0  0  0  0  0  0  0  0  0  0  0
   -1.7040  -10.0250  -23.0520 C   0  0  0  0  0  0  0  0  0  0  0  0
   -1.7670  -10.0590  -21.6440 C   0  0  0  0  0  0  0  0  0  0  0  0
   -1.8310   -8.8750  -20.8840 C   0  0  0  0  0  3  0  0  0  0  0  0
   -1.8580   -7.6390  -21.5110 C   0  0  0  0  0  3  0  0  0  0  0  0
   -1.7470   -7.5840  -22.8950 C   0  0  0  0  0  3  0  0  0  0  0  0
   -1.6070   -8.7630  -23.6690 C   0  0  0  0  0  0  0  0  0  0  0  0
   -1.7390  -11.3330  -20.8580 C   0  0  0  0  0  0  0  0  0  0  0  0
   -2.8670  -11.7050  -20.1870 N   0  0  0  0  0  0  0  0  0  0  0  0
   -0.7380  -12.0370  -20.8050 O   0  0  0  0  0  0  0  0  0  0  0  0
   -2.8610  -12.5610  -19.6520 H   0  0  0  0  0  0  0  0  0  0  0  0
   -3.7170  -11.1540  -20.2560 H   0  0  0  0  0  0  0  0  0  0  0  0
   -0.1890   -5.6520  -24.6080 C   0  0  0  0  0  2  0  0  0  0  0  0
   -0.8980   -4.5240  -25.3570 C   0  0  0  0  0  2  0  0  0  0  0  0
   -1.3410   -2.1810  -25.2450 C   0  0  0  0  0  1  0  0  0  0  0  0
   -1.1830   -3.4000  -24.5350 O   0  0  0  0  0  0  0  0  0  0  0  0
  1 36  1  6  0  0  0
  2  1  1  0  0  0  0
  3  2  2  0  0  0  0
  4  3  1  0  0  0  0
  5  4  2  0  0  0  0
  5  6  1  0  0  0  0
  6  7  2  0  0  0  0
  7  2  1  0  0  0  0
  8  6  1  0  0  0  0
  8  9  1  0  0  0  0
  9 12  1  0  0  0  0
 10  9  2  0  0  0  0
 11  8  1  0  0  0  0
 12 18  1  0  0  0  0
 13 12  2  0  0  0  0
 13 14  1  0  0  0  0
 14 15  2  0  0  0  0
 15 17  1  0  0  0  0
 15 16  1  0  0  0  0
 18 17  2  0  0  0  0
 19  1  1  0  0  0  0
 19 21  1  0  0  0  0
 20 19  1  0  0  0  0
 21 30  1  0  0  0  0
 22 23  1  0  0  0  0
 22 21  2  0  0  0  0
 23 24  2  0  0  0  0
 24 25  1  0  0  0  0
 25 26  1  0  0  0  0
 26 27  2  0  0  0  0
 26 31  1  0  0  0  0
 28 27  1  0  0  0  0
 29 28  2  0  0  0  0
 30 25  2  0  0  0  0
 30 29  1  0  0  0  0
 31 33  2  0  0  0  0
 31 32  1  0  0  0  0
 32 34  1  0  0  0  0
 35 32  1  0  0  0  0
 37 36  1  0  0  0  0
 37 39  1  0  0  0  0
 38 39  1  0  0  0  0
M  END
>  <minimizedAffinity>
-5.07030916

$$$$

 OpenBabel10152418143D

 39 42  0  0  1  0  0  0  0  0999 V2000
    1.4970   -9.5430  -26.1700 C   0  0  2  0  0  3  0  0  0  0  0  0
    2.6050  -10.5280  -26.5560 C   0  0  0  0  0  0  0  0  0  0  0  0
    3.2860  -11.2860  -25.5950 C   0  0  0  0  0  3  0  0  0  0  0  0
    4.4510  -11.9650  -25.9380 C   0  0  0  0  0  3  0  0  0  0  0  0
    4.9740  -11.8600  -27.2290 C   0  0  0  0  0  3  0  0  0  0  0  0
    4.2990  -11.1520  -28.2190 C   0  0  0  0  0  0  0  0  0  0  0  0
    3.0810  -10.5450  -27.8820 C   0  0  0  0  0  3  0  0  0  0  0  0
    4.7880  -10.8740  -29.5140 N   0  0  0  0  0  0  0  0  0  0  0  0
    4.6390   -9.8120  -30.3730 C   0  0  0  0  0  0  0  0  0  0  0  0
    4.9730   -9.9170  -31.5520 O   0  0  0  0  0  0  0  0  0  0  0  0
    5.2700  -11.6340  -29.9800 H   0  0  0  0  0  0  0  0  0  0  0  0
    4.1400   -8.5190  -29.8960 C   0  0  0  0  0  0  0  0  0  0  0  0
    3.0630   -7.9110  -30.5490 C   0  0  0  0  0  3  0  0  0  0  0  0
    2.5190   -6.7400  -30.0170 C   0  0  0  0  0  3  0  0  0  0  0  0
    3.0690   -6.1840  -28.8590 C   0  0  0  0  0  0  0  0  0  0  0  0
    2.2850   -4.6400  -28.0990 Br  0  0  0  0  0  0  0  0  0  0  0  0
    4.1760   -6.7670  -28.2380 C   0  0  0  0  0  3  0  0  0  0  0  0
    4.7240   -7.9350  -28.7640 C   0  0  0  0  0  3  0  0  0  0  0  0
    0.1890  -10.2110  -25.9860 N   0  0  0  0  0  0  0  0  0  0  0  0
    0.0730  -11.0280  -26.5810 H   0  0  0  0  0  0  0  0  0  0  0  0
   -0.3150  -10.5940  -24.7520 C   0  0  0  0  0  0  0  0  0  0  0  0
    0.2820  -11.7080  -24.3030 N   0  0  0  0  0  0  0  0  0  0  0  0
    0.0350  -12.0380  -23.0380 C   0  0  0  0  0  3  0  0  0  0  0  0
   -0.7280  -11.3540  -22.1800 N   0  0  0  0  0  0  0  0  0  0  0  0
   -1.3780  -10.2620  -22.6430 C   0  0  0  0  0  0  0  0  0  0  0  0
   -2.1780   -9.4560  -21.8070 C   0  0  0  0  0  0  0  0  0  0  0  0
   -2.9130   -8.3710  -22.3190 C   0  0  0  0  0  3  0  0  0  0  0  0
   -2.8860   -8.0810  -23.6750 C   0  0  0  0  0  3  0  0  0  0  0  0
   -2.0650   -8.8330  -24.5060 C   0  0  0  0  0  3  0  0  0  0  0  0
   -1.2610   -9.8830  -23.9940 C   0  0  0  0  0  0  0  0  0  0  0  0
   -2.2810   -9.6690  -20.3280 C   0  0  0  0  0  0  0  0  0  0  0  0
   -1.7310   -8.7360  -19.4990 N   0  0  0  0  0  0  0  0  0  0  0  0
   -2.8410  -10.6500  -19.8550 O   0  0  0  0  0  0  0  0  0  0  0  0
   -1.7930   -8.8680  -18.5010 H   0  0  0  0  0  0  0  0  0  0  0  0
   -1.3010   -7.8960  -19.8750 H   0  0  0  0  0  0  0  0  0  0  0  0
    1.3770   -8.4210  -27.2270 C   0  0  0  0  0  2  0  0  0  0  0  0
    0.1650   -7.5000  -27.0920 C   0  0  0  0  0  2  0  0  0  0  0  0
   -0.3820   -5.6670  -25.6640 C   0  0  0  0  0  1  0  0  0  0  0  0
   -0.0430   -7.0420  -25.7620 O   0  0  0  0  0  0  0  0  0  0  0  0
  1 36  1  6  0  0  0
  1 19  1  0  0  0  0
  2  1  1  0  0  0  0
  2  3  1  0  0  0  0
  4  3  2  0  0  0  0
  5  4  1  0  0  0  0
  6  7  1  0  0  0  0
  6  5  2  0  0  0  0
  7  2  2  0  0  0  0
  8  6  1  0  0  0  0
  9 12  1  0  0  0  0
  9  8  1  0  0  0  0
 10  9  2  0  0  0  0
 11  8  1  0  0  0  0
 12 18  1  0  0  0  0
 13 14  1  0  0  0  0
 13 12  2  0  0  0  0
 14 15  2  0  0  0  0
 15 17  1  0  0  0  0
 15 16  1  0  0  0  0
 18 17  2  0  0  0  0
 19 21  1  0  0  0  0
 20 19  1  0  0  0  0
 21 22  2  0  0  0  0
 21 30  1  0  0  0  0
 22 23  1  0  0  0  0
 23 24  2  0  0  0  0
 25 24  1  0  0  0  0
 25 26  1  0  0  0  0
 26 31  1  0  0  0  0
 27 26  2  0  0  0  0
 28 27  1  0  0  0  0
 29 30  1  0  0  0  0
 29 28  2  0  0  0  0
 30 25  2  0  0  0  0
 31 33  2  0  0  0  0
 31 32  1  0  0  0  0
 32 34  1  0  0  0  0
 35 32  1  0  0  0  0
 36 37  1  0  0  0  0
 37 39  1  0  0  0  0
 39 38  1  0  0  0  0
M  END
>  <minimizedAffinity>
-4.29730463

$$$$

 OpenBabel10152418143D

 39 42  0  0  1  0  0  0  0  0999 V2000
    2.1200   -9.2840  -26.0300 C   0  0  2  0  0  3  0  0  0  0  0  0
    0.7990  -10.0600  -26.0100 C   0  0  0  0  0  0  0  0  0  0  0  0
   -0.1850   -9.8650  -26.9870 C   0  0  0  0  0  3  0  0  0  0  0  0
   -1.4650  -10.3780  -26.8020 C   0  0  0  0  0  3  0  0  0  0  0  0
   -1.7900  -11.0520  -25.6220 C   0  0  0  0  0  3  0  0  0  0  0  0
   -0.8240  -11.3020  -24.6510 C   0  0  0  0  0  0  0  0  0  0  0  0
    0.4830  -10.8550  -24.8910 C   0  0  0  0  0  3  0  0  0  0  0  0
   -1.0610  -11.8580  -23.3760 N   0  0  0  0  0  0  0  0  0  0  0  0
   -1.2080  -11.3170  -22.1210 C   0  0  0  0  0  0  0  0  0  0  0  0
   -1.1660  -12.0390  -21.1270 O   0  0  0  0  0  0  0  0  0  0  0  0
   -1.0210  -12.8690  -23.3170 H   0  0  0  0  0  0  0  0  0  0  0  0
   -1.4760   -9.8860  -21.9420 C   0  0  0  0  0  0  0  0  0  0  0  0
   -1.4050   -9.3260  -20.6630 C   0  0  0  0  0  3  0  0  0  0  0  0
   -1.5450   -7.9440  -20.5180 C   0  0  0  0  0  3  0  0  0  0  0  0
   -1.7740   -7.1480  -21.6440 C   0  0  0  0  0  0  0  0  0  0  0  0
   -1.8900   -5.2710  -21.4560 Br  0  0  0  0  0  0  0  0  0  0  0  0
   -1.8940   -7.7190  -22.9140 C   0  0  0  0  0  3  0  0  0  0  0  0
   -1.7550   -9.0970  -23.0650 C   0  0  0  0  0  3  0  0  0  0  0  0
    2.3040   -8.5140  -27.2800 N   0  0  0  0  0  0  0  0  0  0  0  0
    1.9560   -9.0020  -28.1020 H   0  0  0  0  0  0  0  0  0  0  0  0
    1.8910   -7.2000  -27.4430 C   0  0  0  0  0  0  0  0  0  0  0  0
    2.1920   -6.7400  -28.6670 N   0  0  0  0  0  0  0  0  0  0  0  0
    1.6500   -5.5740  -29.0070 C   0  0  0  0  0  3  0  0  0  0  0  0
    0.8260   -4.8390  -28.2530 N   0  0  0  0  0  0  0  0  0  0  0  0
    0.5650   -5.2690  -26.9970 C   0  0  0  0  0  0  0  0  0  0  0  0
   -0.3190   -4.5820  -26.1400 C   0  0  0  0  0  0  0  0  0  0  0  0
   -0.5180   -4.9940  -24.8090 C   0  0  0  0  0  3  0  0  0  0  0  0
    0.1750   -6.0820  -24.2990 C   0  0  0  0  0  3  0  0  0  0  0  0
    1.0120   -6.8010  -25.1430 C   0  0  0  0  0  3  0  0  0  0  0  0
    1.1670   -6.4430  -26.5060 C   0  0  0  0  0  0  0  0  0  0  0  0
   -1.1250   -3.3990  -26.5790 C   0  0  0  0  0  0  0  0  0  0  0  0
   -0.6890   -2.1530  -26.2340 N   0  0  0  0  0  0  0  0  0  0  0  0
   -2.1530   -3.5260  -27.2320 O   0  0  0  0  0  0  0  0  0  0  0  0
   -1.2230   -1.3480  -26.5230 H   0  0  0  0  0  0  0  0  0  0  0  0
    0.1840   -2.0300  -25.7300 H   0  0  0  0  0  0  0  0  0  0  0  0
    3.3140  -10.2440  -25.8160 C   0  0  0  0  0  2  0  0  0  0  0  0
    4.4460  -10.1420  -26.8380 C   0  0  0  0  0  2  0  0  0  0  0  0
    3.6210  -12.0360  -28.0340 C   0  0  0  0  0  1  0  0  0  0  0  0
    4.7450  -11.3830  -27.4650 O   0  0  0  0  0  0  0  0  0  0  0  0
  1  2  1  0  0  0  0
  1 36  1  6  0  0  0
  2  7  1  0  0  0  0
  3  4  1  0  0  0  0
  3  2  2  0  0  0  0
  4  5  2  0  0  0  0
  5  6  1  0  0  0  0
  6  8  1  0  0  0  0
  7  6  2  0  0  0  0
  8 11  1  0  0  0  0
  8  9  1  0  0  0  0
  9 12  1  0  0  0  0
  9 10  2  0  0  0  0
 12 13  1  0  0  0  0
 13 14  2  0  0  0  0
 15 16  1  0  0  0  0
 15 14  1  0  0  0  0
 17 15  2  0  0  0  0
 18 17  1  0  0  0  0
 18 12  2  0  0  0  0
 19  1  1  0  0  0  0
 20 19  1  0  0  0  0
 21 19  1  0  0  0  0
 21 30  1  0  0  0  0
 22 21  2  0  0  0  0
 23 22  1  0  0  0  0
 23 24  2  0  0  0  0
 24 25  1  0  0  0  0
 25 30  2  0  0  0  0
 25 26  1  0  0  0  0
 26 27  2  0  0  0  0
 27 28  1  0  0  0  0
 29 28  2  0  0  0  0
 30 29  1  0  0  0  0
 31 32  1  0  0  0  0
 31 26  1  0  0  0  0
 32 35  1  0  0  0  0
 33 31  2  0  0  0  0
 34 32  1  0  0  0  0
 37 36  1  0  0  0  0
 38 39  1  0  0  0  0
 39 37  1  0  0  0  0
M  END
>  <minimizedAffinity>
-3.82698584

$$$$
