
 OpenBabel10152418143D

 39 42  0  0  1  0  0  0  0  0999 V2000
    1.2990   -8.0050  -25.6600 C   0  0  2  0  0  3  0  0  0  0  0  0
    1.4490   -6.9410  -26.7520 C   0  0  0  0  0  0  0  0  0  0  0  0
    0.5390   -5.8840  -26.8830 C   0  0  0  0  0  3  0  0  0  0  0  0
    0.5450   -5.0940  -28.0270 C   0  0  0  0  0  3  0  0  0  0  0  0
    1.4280   -5.3750  -29.0730 C   0  0  0  0  0  3  0  0  0  0  0  0
    2.3750   -6.3890  -28.9570 C   0  0  0  0  0  0  0  0  0  0  0  0
    2.4150   -7.1200  -27.7620 C   0  0  0  0  0  3  0  0  0  0  0  0
    3.2280   -6.8420  -29.9860 N   0  0  0  0  0  0  0  0  0  0  0  0
    4.1980   -7.8140  -30.0500 C   0  0  0  0  0  0  0  0  0  0  0  0
    4.9740   -7.8520  -31.0030 O   0  0  0  0  0  0  0  0  0  0  0  0
    3.2250   -6.2970  -30.8400 H   0  0  0  0  0  0  0  0  0  0  0  0
    4.2930   -8.8560  -29.0220 C   0  0  0  0  0  0  0  0  0  0  0  0
    4.9740   -8.5900  -27.8310 C   0  0  0  0  0  3  0  0  0  0  0  0
    4.9590   -9.5450  -26.8120 C   0  0  0  0  0  3  0  0  0  0  0  0
    4.2840  -10.7540  -27.0050 C   0  0  0  0  0  0  0  0  0  0  0  0
    4.2020  -12.0140  -25.5980 Br  0  0  0  0  0  0  0  0  0  0  0  0
    3.6470  -11.0350  -28.2150 C   0  0  0  0  0  3  0  0  0  0  0  0
    3.6600  -10.0860  -29.2360 C   0  0  0  0  0  3  0  0  0  0  0  0
    0.1590   -8.9150  -25.9130 N   0  0  0  0  0  0  0  0  0  0  0  0
    0.2350   -9.4090  -26.7980 H   0  0  0  0  0  0  0  0  0  0  0  0
   -0.2800   -9.8690  -25.0080 C   0  0  0  0  0  0  0  0  0  0  0  0
    0.3180  -11.0520  -25.2120 N   0  0  0  0  0  0  0  0  0  0  0  0
    0.1380  -11.9730  -24.2700 C   0  0  0  0  0  3  0  0  0  0  0  0
   -0.5620  -11.8190  -23.1410 N   0  0  0  0  0  0  0  0  0  0  0  0
   -1.2140  -10.6490  -22.9570 C   0  0  0  0  0  0  0  0  0  0  0  0
   -1.9480  -10.3780  -21.7830 C   0  0  0  0  0  0  0  0  0  0  0  0
   -2.6900   -9.1910  -21.6390 C   0  0  0  0  0  3  0  0  0  0  0  0
   -2.7340   -8.2610  -22.6670 C   0  0  0  0  0  3  0  0  0  0  0  0
   -1.9770   -8.4860  -23.8110 C   0  0  0  0  0  3  0  0  0  0  0  0
   -1.1670   -9.6430  -23.9410 C   0  0  0  0  0  0  0  0  0  0  0  0
   -1.9710  -11.3040  -20.6060 C   0  0  0  0  0  0  0  0  0  0  0  0
   -0.7900  -11.8320  -20.1730 N   0  0  0  0  0  0  0  0  0  0  0  0
   -3.0140  -11.5910  -20.0320 O   0  0  0  0  0  0  0  0  0  0  0  0
   -0.7920  -12.4570  -19.3820 H   0  0  0  0  0  0  0  0  0  0  0  0
    0.0870  -11.5690  -20.6120 H   0  0  0  0  0  0  0  0  0  0  0  0
    1.1510   -7.3390  -24.2720 C   0  0  0  0  0  2  0  0  0  0  0  0
    0.1320   -6.2030  -24.1800 C   0  0  0  0  0  2  0  0  0  0  0  0
   -1.0430   -4.9370  -22.5320 C   0  0  0  0  0  1  0  0  0  0  0  0
    0.1940   -5.4950  -22.9480 O   0  0  0  0  0  0  0  0  0  0  0  0
  1 36  1  1  0  0  0
  2  1  1  0  0  0  0
  3  2  1  0  0  0  0
  4  3  2  0  0  0  0
  5  6  2  0  0  0  0
  5  4  1  0  0  0  0
  6  7  1  0  0  0  0
  7  2  2  0  0  0  0
  8  6  1  0  0  0  0
  9  8  1  0  0  0  0
  9 12  1  0  0  0  0
 10  9  2  0  0  0  0
 11  8  1  0  0  0  0
 12 13  1  0  0  0  0
 13 14  2  0  0  0  0
 15 14  1  0  0  0  0
 15 16  1  0  0  0  0
 17 15  2  0  0  0  0
 18 12  2  0  0  0  0
 18 17  1  0  0  0  0
 19  1  1  0  0  0  0
 19 21  1  0  0  0  0
 20 19  1  0  0  0  0
 21 30  1  0  0  0  0
 22 21  2  0  0  0  0
 22 23  1  0  0  0  0
 23 24  2  0  0  0  0
 24 25  1  0  0  0  0
 25 26  1  0  0  0  0
 26 27  2  0  0  0  0
 26 31  1  0  0  0  0
 28 27  1  0  0  0  0
 29 28  2  0  0  0  0
 30 29  1  0  0  0  0
 30 25  2  0  0  0  0
 31 32  1  0  0  0  0
 31 33  2  0  0  0  0
 32 34  1  0  0  0  0
 35 32  1  0  0  0  0
 36 37  1  0  0  0  0
 37 39  1  0  0  0  0
 39 38  1  0  0  0  0
M  END
>  <minimizedAffinity>
-5.72771025

$$$$
