
 OpenBabel10152418143D

 39 42  0  0  1  0  0  0  0  0999 V2000
    1.4970   -9.5430  -26.1700 C   0  0  2  0  0  3  0  0  0  0  0  0
    2.6050  -10.5280  -26.5560 C   0  0  0  0  0  0  0  0  0  0  0  0
    3.2860  -11.2860  -25.5950 C   0  0  0  0  0  3  0  0  0  0  0  0
    4.4510  -11.9650  -25.9380 C   0  0  0  0  0  3  0  0  0  0  0  0
    4.9740  -11.8600  -27.2290 C   0  0  0  0  0  3  0  0  0  0  0  0
    4.2990  -11.1520  -28.2190 C   0  0  0  0  0  0  0  0  0  0  0  0
    3.0810  -10.5450  -27.8820 C   0  0  0  0  0  3  0  0  0  0  0  0
    4.7880  -10.8740  -29.5140 N   0  0  0  0  0  0  0  0  0  0  0  0
    4.6390   -9.8120  -30.3730 C   0  0  0  0  0  0  0  0  0  0  0  0
    4.9730   -9.9170  -31.5520 O   0  0  0  0  0  0  0  0  0  0  0  0
    5.2700  -11.6340  -29.9800 H   0  0  0  0  0  0  0  0  0  0  0  0
    4.1400   -8.5190  -29.8960 C   0  0  0  0  0  0  0  0  0  0  0  0
    3.0630   -7.9110  -30.5490 C   0  0  0  0  0  3  0  0  0  0  0  0
    2.5190   -6.7400  -30.0170 C   0  0  0  0  0  3  0  0  0  0  0  0
    3.0690   -6.1840  -28.8590 C   0  0  0  0  0  0  0  0  0  0  0  0
    2.2850   -4.6400  -28.0990 Br  0  0  0  0  0  0  0  0  0  0  0  0
    4.1760   -6.7670  -28.2380 C   0  0  0  0  0  3  0  0  0  0  0  0
    4.7240   -7.9350  -28.7640 C   0  0  0  0  0  3  0  0  0  0  0  0
    0.1890  -10.2110  -25.9860 N   0  0  0  0  0  0  0  0  0  0  0  0
    0.0730  -11.0280  -26.5810 H   0  0  0  0  0  0  0  0  0  0  0  0
   -0.3150  -10.5940  -24.7520 C   0  0  0  0  0  0  0  0  0  0  0  0
    0.2820  -11.7080  -24.3030 N   0  0  0  0  0  0  0  0  0  0  0  0
    0.0350  -12.0380  -23.0380 C   0  0  0  0  0  3  0  0  0  0  0  0
   -0.7280  -11.3540  -22.1800 N   0  0  0  0  0  0  0  0  0  0  0  0
   -1.3780  -10.2620  -22.6430 C   0  0  0  0  0  0  0  0  0  0  0  0
   -2.1780   -9.4560  -21.8070 C   0  0  0  0  0  0  0  0  0  0  0  0
   -2.9130   -8.3710  -22.3190 C   0  0  0  0  0  3  0  0  0  0  0  0
   -2.8860   -8.0810  -23.6750 C   0  0  0  0  0  3  0  0  0  0  0  0
   -2.0650   -8.8330  -24.5060 C   0  0  0  0  0  3  0  0  0  0  0  0
   -1.2610   -9.8830  -23.9940 C   0  0  0  0  0  0  0  0  0  0  0  0
   -2.2810   -9.6690  -20.3280 C   0  0  0  0  0  0  0  0  0  0  0  0
   -1.7310   -8.7360  -19.4990 N   0  0  0  0  0  0  0  0  0  0  0  0
   -2.8410  -10.6500  -19.8550 O   0  0  0  0  0  0  0  0  0  0  0  0
   -1.7930   -8.8680  -18.5010 H   0  0  0  0  0  0  0  0  0  0  0  0
   -1.3010   -7.8960  -19.8750 H   0  0  0  0  0  0  0  0  0  0  0  0
    1.3770   -8.4210  -27.2270 C   0  0  0  0  0  2  0  0  0  0  0  0
    0.1650   -7.5000  -27.0920 C   0  0  0  0  0  2  0  0  0  0  0  0
   -0.3820   -5.6670  -25.6640 C   0  0  0  0  0  1  0  0  0  0  0  0
   -0.0430   -7.0420  -25.7620 O   0  0  0  0  0  0  0  0  0  0  0  0
  1 36  1  6  0  0  0
  1 19  1  0  0  0  0
  2  1  1  0  0  0  0
  2  3  1  0  0  0  0
  4  3  2  0  0  0  0
  5  4  1  0  0  0  0
  6  7  1  0  0  0  0
  6  5  2  0  0  0  0
  7  2  2  0  0  0  0
  8  6  1  0  0  0  0
  9 12  1  0  0  0  0
  9  8  1  0  0  0  0
 10  9  2  0  0  0  0
 11  8  1  0  0  0  0
 12 18  1  0  0  0  0
 13 14  1  0  0  0  0
 13 12  2  0  0  0  0
 14 15  2  0  0  0  0
 15 17  1  0  0  0  0
 15 16  1  0  0  0  0
 18 17  2  0  0  0  0
 19 21  1  0  0  0  0
 20 19  1  0  0  0  0
 21 22  2  0  0  0  0
 21 30  1  0  0  0  0
 22 23  1  0  0  0  0
 23 24  2  0  0  0  0
 25 24  1  0  0  0  0
 25 26  1  0  0  0  0
 26 31  1  0  0  0  0
 27 26  2  0  0  0  0
 28 27  1  0  0  0  0
 29 30  1  0  0  0  0
 29 28  2  0  0  0  0
 30 25  2  0  0  0  0
 31 33  2  0  0  0  0
 31 32  1  0  0  0  0
 32 34  1  0  0  0  0
 35 32  1  0  0  0  0
 36 37  1  0  0  0  0
 37 39  1  0  0  0  0
 39 38  1  0  0  0  0
M  END
>  <minimizedAffinity>
-4.29730463

$$$$
