
 OpenBabel10152418143D

 39 42  0  0  1  0  0  0  0  0999 V2000
    0.2470   -6.8650  -25.4630 C   0  0  2  0  0  3  0  0  0  0  0  0
    1.0160   -6.3970  -26.7030 C   0  0  0  0  0  0  0  0  0  0  0  0
    0.5540   -5.3450  -27.5040 C   0  0  0  0  0  3  0  0  0  0  0  0
    1.1220   -5.1170  -28.7530 C   0  0  0  0  0  3  0  0  0  0  0  0
    2.1240   -5.9620  -29.2370 C   0  0  0  0  0  3  0  0  0  0  0  0
    2.6360   -6.9890  -28.4490 C   0  0  0  0  0  0  0  0  0  0  0  0
    2.1150   -7.1510  -27.1580 C   0  0  0  0  0  3  0  0  0  0  0  0
    3.5530   -7.9750  -28.8720 N   0  0  0  0  0  0  0  0  0  0  0  0
    3.9800   -9.1630  -28.3300 C   0  0  0  0  0  0  0  0  0  0  0  0
    4.9740   -9.7280  -28.7820 O   0  0  0  0  0  0  0  0  0  0  0  0
    4.1040   -7.7480  -29.6910 H   0  0  0  0  0  0  0  0  0  0  0  0
    3.2330   -9.8120  -27.2470 C   0  0  0  0  0  0  0  0  0  0  0  0
    2.7100  -11.0940  -27.4410 C   0  0  0  0  0  3  0  0  0  0  0  0
    2.1040  -11.7490  -26.3670 C   0  0  0  0  0  3  0  0  0  0  0  0
    2.0110  -11.1100  -25.1280 C   0  0  0  0  0  0  0  0  0  0  0  0
    1.2560  -12.0270  -23.6560 Br  0  0  0  0  0  0  0  0  0  0  0  0
    2.4900   -9.8100  -24.9530 C   0  0  0  0  0  3  0  0  0  0  0  0
    3.0950   -9.1500  -26.0200 C   0  0  0  0  0  3  0  0  0  0  0  0
   -0.9300   -7.6940  -25.8080 N   0  0  0  0  0  0  0  0  0  0  0  0
   -0.9070   -8.0350  -26.7660 H   0  0  0  0  0  0  0  0  0  0  0  0
   -1.3600   -8.7740  -25.0530 C   0  0  0  0  0  0  0  0  0  0  0  0
   -1.4340   -9.8910  -25.7930 N   0  0  0  0  0  0  0  0  0  0  0  0
   -1.6220  -11.0260  -25.1250 C   0  0  0  0  0  3  0  0  0  0  0  0
   -1.7210  -11.1530  -23.7980 N   0  0  0  0  0  0  0  0  0  0  0  0
   -1.7040  -10.0250  -23.0520 C   0  0  0  0  0  0  0  0  0  0  0  0
   -1.7670  -10.0590  -21.6440 C   0  0  0  0  0  0  0  0  0  0  0  0
   -1.8310   -8.8750  -20.8840 C   0  0  0  0  0  3  0  0  0  0  0  0
   -1.8580   -7.6390  -21.5110 C   0  0  0  0  0  3  0  0  0  0  0  0
   -1.7470   -7.5840  -22.8950 C   0  0  0  0  0  3  0  0  0  0  0  0
   -1.6070   -8.7630  -23.6690 C   0  0  0  0  0  0  0  0  0  0  0  0
   -1.7390  -11.3330  -20.8580 C   0  0  0  0  0  0  0  0  0  0  0  0
   -2.8670  -11.7050  -20.1870 N   0  0  0  0  0  0  0  0  0  0  0  0
   -0.7380  -12.0370  -20.8050 O   0  0  0  0  0  0  0  0  0  0  0  0
   -2.8610  -12.5610  -19.6520 H   0  0  0  0  0  0  0  0  0  0  0  0
   -3.7170  -11.1540  -20.2560 H   0  0  0  0  0  0  0  0  0  0  0  0
   -0.1890   -5.6520  -24.6080 C   0  0  0  0  0  2  0  0  0  0  0  0
   -0.8980   -4.5240  -25.3570 C   0  0  0  0  0  2  0  0  0  0  0  0
   -1.3410   -2.1810  -25.2450 C   0  0  0  0  0  1  0  0  0  0  0  0
   -1.1830   -3.4000  -24.5350 O   0  0  0  0  0  0  0  0  0  0  0  0
  1 36  1  6  0  0  0
  2  1  1  0  0  0  0
  3  2  2  0  0  0  0
  4  3  1  0  0  0  0
  5  4  2  0  0  0  0
  5  6  1  0  0  0  0
  6  7  2  0  0  0  0
  7  2  1  0  0  0  0
  8  6  1  0  0  0  0
  8  9  1  0  0  0  0
  9 12  1  0  0  0  0
 10  9  2  0  0  0  0
 11  8  1  0  0  0  0
 12 18  1  0  0  0  0
 13 12  2  0  0  0  0
 13 14  1  0  0  0  0
 14 15  2  0  0  0  0
 15 17  1  0  0  0  0
 15 16  1  0  0  0  0
 18 17  2  0  0  0  0
 19  1  1  0  0  0  0
 19 21  1  0  0  0  0
 20 19  1  0  0  0  0
 21 30  1  0  0  0  0
 22 23  1  0  0  0  0
 22 21  2  0  0  0  0
 23 24  2  0  0  0  0
 24 25  1  0  0  0  0
 25 26  1  0  0  0  0
 26 27  2  0  0  0  0
 26 31  1  0  0  0  0
 28 27  1  0  0  0  0
 29 28  2  0  0  0  0
 30 25  2  0  0  0  0
 30 29  1  0  0  0  0
 31 33  2  0  0  0  0
 31 32  1  0  0  0  0
 32 34  1  0  0  0  0
 35 32  1  0  0  0  0
 37 36  1  0  0  0  0
 37 39  1  0  0  0  0
 38 39  1  0  0  0  0
M  END
>  <minimizedAffinity>
-5.07030916

$$$$
