
 OpenBabel11232419543D

 36 40  0  0  1  0  0  0  0  0999 V2000
   -1.4240    0.0920  -18.6040 C   0  0  0  0  0  0  0  0  0  0  0  0
   -0.6840    0.0650  -19.7640 C   0  0  0  0  0  3  0  0  0  0  0  0
   -1.4610   -0.6010  -20.6800 N   0  0  0  0  0  0  0  0  0  0  0  0
   -2.6730   -0.8750  -20.0830 C   0  0  0  0  0  0  0  0  0  0  0  0
   -2.6220   -0.5440  -18.8100 N   0  0  0  0  0  0  0  0  0  0  0  0
   -0.0040   -0.3550  -13.8000 C   0  0  0  0  0  1  0  0  0  0  0  0
   -0.3740    0.4850  -14.9870 C   0  0  0  0  0  0  0  0  0  0  0  0
   -0.7450   -0.1080  -16.2040 C   0  0  0  0  0  3  0  0  0  0  0  0
   -1.0440    0.6800  -17.3290 C   0  0  0  0  0  0  0  0  0  0  0  0
   -0.9490    2.0760  -17.2210 C   0  0  0  0  0  3  0  0  0  0  0  0
   -0.5710    2.6730  -16.0160 C   0  0  0  0  0  3  0  0  0  0  0  0
   -0.2840    1.8760  -14.9150 C   0  0  0  0  0  0  0  0  0  0  0  0
    0.0910    2.4640  -13.7710 F   0  0  0  0  0  0  0  0  0  0  0  0
   -3.8730   -1.4750  -20.7720 C   0  0  2  0  0  3  0  0  0  0  0  0
   -5.1680   -0.7700  -20.3400 C   0  0  0  0  0  2  0  0  0  0  0  0
   -5.6710   -1.2480  -18.9760 C   0  0  0  0  0  2  0  0  0  0  0  0
   -5.7420   -2.7050  -18.9260 N   0  0  0  0  0  0  0  0  0  0  0  0
   -4.4910   -3.4080  -19.1980 C   0  0  0  0  0  2  0  0  0  0  0  0
   -3.9550   -3.0000  -20.5730 C   0  0  0  0  0  2  0  0  0  0  0  0
   -6.9280   -3.3230  -19.3130 C   0  0  0  0  0  0  0  0  0  0  0  0
   -7.5840   -2.7830  -20.3620 N   0  0  0  0  0  0  0  0  0  0  0  0
   -8.7100   -3.3940  -20.7580 C   0  0  0  0  0  3  0  0  0  0  0  0
   -9.2480   -4.4900  -20.2170 N   0  0  0  0  0  0  0  0  0  0  0  0
   -8.6110   -4.9960  -19.1520 C   0  0  0  0  0  0  0  0  0  0  0  0
   -9.1840   -6.1430  -18.6260 N   0  0  0  0  0  0  0  0  0  0  0  0
   -7.4310   -4.4500  -18.6570 C   0  0  0  0  0  0  0  0  0  0  0  0
   -6.6350   -5.1660  -17.0820 Br  0  0  0  0  0  0  0  0  0  0  0  0
  -10.0470   -6.4110  -19.0810 H   0  0  0  0  0  0  0  0  0  0  0  0
   -9.1190   -6.2810  -17.6260 H   0  0  0  0  0  0  0  0  0  0  0  0
   -1.0390   -0.9050  -22.0300 C   0  0  0  0  0  2  0  0  0  0  0  0
   -1.7670   -0.1120  -23.1340 C   0  0  0  0  0  2  0  0  0  0  0  0
   -2.4190    1.1960  -22.8380 N   0  0  0  0  0  4  0  0  0  0  0  0
   -2.1430    2.2900  -23.7880 C   0  0  0  0  0  2  0  0  0  0  0  0
   -3.6110    2.7170  -23.6240 C   0  0  0  0  0  2  0  0  0  0  0  0
   -3.8590    1.2870  -23.1200 C   0  0  0  0  0  2  0  0  0  0  0  0
   -2.2040    1.4920  -21.8740 H   0  0  0  0  0  0  0  0  0  0  0  0
  1  9  1  0  0  0  0
  2  1  2  0  0  0  0
  3  4  1  0  0  0  0
  3  2  1  0  0  0  0
  4  5  2  0  0  0  0
  5  1  1  0  0  0  0
  7 12  1  0  0  0  0
  7  6  1  0  0  0  0
  8  7  2  0  0  0  0
  9 10  2  0  0  0  0
  9  8  1  0  0  0  0
 10 11  1  0  0  0  0
 11 12  2  0  0  0  0
 12 13  1  0  0  0  0
 14 19  1  0  0  0  0
 14 15  1  0  0  0  0
 14  4  1  1  0  0  0
 15 16  1  0  0  0  0
 16 17  1  0  0  0  0
 18 17  1  0  0  0  0
 19 18  1  0  0  0  0
 20 17  1  0  0  0  0
 20 26  1  0  0  0  0
 21 20  2  0  0  0  0
 22 21  1  0  0  0  0
 22 23  2  0  0  0  0
 23 24  1  0  0  0  0
 24 26  2  0  0  0  0
 24 25  1  0  0  0  0
 25 29  1  0  0  0  0
 26 27  1  0  0  0  0
 28 25  1  0  0  0  0
 30  3  1  0  0  0  0
 31 32  1  0  0  0  0
 31 30  1  0  0  0  0
 32 36  1  0  0  0  0
 33 34  1  0  0  0  0
 33 32  1  0  0  0  0
 34 35  1  0  0  0  0
 35 32  1  0  0  0  0
M  END
>  <minimizedAffinity>
-5.7144804

$$$$
