
 OpenBabel10152419353D

 39 43  0  0  0  0  0  0  0  0999 V2000
   -1.7020   -9.6310  -21.9910 C   0  0  0  0  0  0  0  0  0  0  0  0
   -1.7030  -10.1550  -20.6930 C   0  0  0  0  0  3  0  0  0  0  0  0
   -1.2590  -11.4510  -20.4660 C   0  0  0  0  0  3  0  0  0  0  0  0
   -0.8330  -12.2400  -21.5360 C   0  0  0  0  0  3  0  0  0  0  0  0
   -0.8990  -11.7710  -22.8500 C   0  0  0  0  0  0  0  0  0  0  0  0
   -1.2960  -10.4460  -23.0630 C   0  0  0  0  0  3  0  0  0  0  0  0
   -0.5470  -12.5270  -23.9880 N   0  0  0  0  0  0  0  0  0  0  0  0
    0.0980  -12.1880  -25.1580 C   0  0  0  0  0  0  0  0  0  0  0  0
    0.1110  -12.9590  -26.1140 O   0  0  0  0  0  0  0  0  0  0  0  0
   -0.8120  -13.5060  -23.9800 H   0  0  0  0  0  0  0  0  0  0  0  0
    0.8340  -10.9160  -25.2720 C   0  0  0  0  0  0  0  0  0  0  0  0
    1.2580  -10.2770  -24.0880 C   0  0  0  0  0  3  0  0  0  0  0  0
    2.0990   -9.1640  -24.1580 C   0  0  0  0  0  3  0  0  0  0  0  0
    2.4800   -8.7290  -25.4110 C   0  0  0  0  0  0  0  0  0  0  0  0
    2.0140   -9.3240  -26.5650 C   0  0  0  0  0  0  0  0  0  0  0  0
    1.1650  -10.4070  -26.5340 C   0  0  0  0  0  3  0  0  0  0  0  0
    2.5330   -8.7580  -27.6870 O   0  0  0  0  0  0  0  0  0  0  0  0
    3.4630   -7.8420  -27.0930 C   0  0  0  0  0  0  0  0  0  0  0  0
    4.7200   -8.2600  -27.3900 F   0  0  0  0  0  0  0  0  0  0  0  0
    3.2920   -6.6210  -27.6530 F   0  0  0  0  0  0  0  0  0  0  0  0
    3.3540   -7.7180  -25.6680 O   0  0  0  0  0  0  0  0  0  0  0  0
   -1.9990   -8.1650  -22.2140 C   0  0  0  0  0  2  0  0  0  0  0  0
   -0.1840   -4.6830  -26.9160 C   0  0  0  0  0  0  0  0  0  0  0  0
   -0.1900   -5.6490  -27.9360 C   0  0  0  0  0  3  0  0  0  0  0  0
   -0.5340   -6.9550  -27.6370 C   0  0  0  0  0  3  0  0  0  0  0  0
   -0.8680   -7.2800  -26.3260 C   0  0  0  0  0  3  0  0  0  0  0  0
   -0.8830   -6.3010  -25.2930 C   0  0  0  0  0  0  0  0  0  0  0  0
   -1.2470   -6.5650  -23.9530 C   0  0  0  0  0  0  0  0  0  0  0  0
   -1.6120   -7.8510  -23.5760 N   0  0  0  0  0  0  0  0  0  0  0  0
   -1.2190   -5.6150  -23.0070 N   0  0  0  0  0  0  0  0  0  0  0  0
   -0.8670   -4.3890  -23.3970 C   0  0  0  0  0  3  0  0  0  0  0  0
   -0.5460   -4.0220  -24.6390 N   0  0  0  0  0  0  0  0  0  0  0  0
   -0.5280   -4.9740  -25.5880 C   0  0  0  0  0  0  0  0  0  0  0  0
   -2.1100   -8.3760  -24.2830 H   0  0  0  0  0  0  0  0  0  0  0  0
   -0.5500   -2.3040  -26.8150 N   0  0  0  0  0  0  0  0  0  0  0  0
    0.2400   -3.3170  -27.2850 C   0  0  0  0  0  0  0  0  0  0  0  0
    1.1980   -3.1010  -28.0150 O   0  0  0  0  0  0  0  0  0  0  0  0
   -0.2860   -1.3580  -27.0580 H   0  0  0  0  0  0  0  0  0  0  0  0
   -1.3290   -2.4500  -26.1900 H   0  0  0  0  0  0  0  0  0  0  0  0
  1  2  1  0  0  0  0
  2  3  2  0  0  0  0
  4  3  1  0  0  0  0
  5  4  2  0  0  0  0
  6  5  1  0  0  0  0
  6  1  2  0  0  0  0
  7 10  1  0  0  0  0
  7  5  1  0  0  0  0
  8  7  1  0  0  0  0
  9  8  2  0  0  0  0
 11  8  1  0  0  0  0
 11 12  1  0  0  0  0
 13 12  2  0  0  0  0
 14 13  1  0  0  0  0
 15 16  1  0  0  0  0
 15 14  2  0  0  0  0
 16 11  2  0  0  0  0
 17 18  1  0  0  0  0
 17 15  1  0  0  0  0
 18 21  1  0  0  0  0
 19 18  1  0  0  0  0
 20 18  1  0  0  0  0
 21 14  1  0  0  0  0
 22  1  1  0  0  0  0
 23 33  1  0  0  0  0
 24 25  1  0  0  0  0
 24 23  2  0  0  0  0
 25 26  2  0  0  0  0
 26 27  1  0  0  0  0
 27 28  1  0  0  0  0
 28 29  1  0  0  0  0
 28 30  2  0  0  0  0
 29 22  1  0  0  0  0
 31 30  1  0  0  0  0
 32 31  2  0  0  0  0
 33 27  2  0  0  0  0
 33 32  1  0  0  0  0
 34 29  1  0  0  0  0
 35 39  1  0  0  0  0
 36 23  1  0  0  0  0
 36 35  1  0  0  0  0
 37 36  2  0  0  0  0
 38 35  1  0  0  0  0
M  END
>  <minimizedAffinity>
-7.97328568

$$$$
