
 OpenBabel10152419353D

 39 43  0  0  0  0  0  0  0  0999 V2000
   -0.5180   -5.7210  -26.8780 C   0  0  0  0  0  0  0  0  0  0  0  0
   -0.2930   -4.4160  -26.4210 C   0  0  0  0  0  3  0  0  0  0  0  0
    0.7120   -3.6450  -26.9890 C   0  0  0  0  0  3  0  0  0  0  0  0
    1.5150   -4.1790  -27.9980 C   0  0  0  0  0  3  0  0  0  0  0  0
    1.3670   -5.5040  -28.4140 C   0  0  0  0  0  0  0  0  0  0  0  0
    0.3150   -6.2550  -27.8760 C   0  0  0  0  0  3  0  0  0  0  0  0
    2.1760   -6.1350  -29.3820 N   0  0  0  0  0  0  0  0  0  0  0  0
    3.1040   -7.1510  -29.2900 C   0  0  0  0  0  0  0  0  0  0  0  0
    3.8550   -7.4030  -30.2290 O   0  0  0  0  0  0  0  0  0  0  0  0
    2.0910   -5.7950  -30.3340 H   0  0  0  0  0  0  0  0  0  0  0  0
    3.1790   -7.9950  -28.0840 C   0  0  0  0  0  0  0  0  0  0  0  0
    2.4450   -7.6060  -26.9440 C   0  0  0  0  0  3  0  0  0  0  0  0
    2.3570   -8.4630  -25.8440 C   0  0  0  0  0  3  0  0  0  0  0  0
    3.0120   -9.6750  -25.9250 C   0  0  0  0  0  0  0  0  0  0  0  0
    3.7760  -10.0230  -27.0190 C   0  0  0  0  0  0  0  0  0  0  0  0
    3.9050   -9.1930  -28.1100 C   0  0  0  0  0  3  0  0  0  0  0  0
    4.3120  -11.2680  -26.9050 O   0  0  0  0  0  0  0  0  0  0  0  0
    3.6880  -11.6930  -25.6850 C   0  0  0  0  0  0  0  0  0  0  0  0
    2.8200  -12.6950  -25.9780 F   0  0  0  0  0  0  0  0  0  0  0  0
    4.6370  -12.1970  -24.8620 F   0  0  0  0  0  0  0  0  0  0  0  0
    2.9700  -10.6620  -24.9890 O   0  0  0  0  0  0  0  0  0  0  0  0
   -1.7300   -6.4890  -26.4000 C   0  0  0  0  0  2  0  0  0  0  0  0
   -0.6570  -11.7990  -23.5390 C   0  0  0  0  0  0  0  0  0  0  0  0
   -0.1570  -12.5470  -24.6190 C   0  0  0  0  0  3  0  0  0  0  0  0
   -0.0770  -11.9670  -25.8720 C   0  0  0  0  0  3  0  0  0  0  0  0
   -0.4950  -10.6490  -26.0330 C   0  0  0  0  0  3  0  0  0  0  0  0
   -0.9830   -9.8810  -24.9380 C   0  0  0  0  0  0  0  0  0  0  0  0
   -1.3880   -8.5310  -25.0330 C   0  0  0  0  0  0  0  0  0  0  0  0
   -1.3300   -7.8760  -26.2580 N   0  0  0  0  0  0  0  0  0  0  0  0
   -1.8680   -7.8550  -23.9790 N   0  0  0  0  0  0  0  0  0  0  0  0
   -1.9100   -8.5060  -22.8160 C   0  0  0  0  0  3  0  0  0  0  0  0
   -1.5160   -9.7640  -22.6060 N   0  0  0  0  0  0  0  0  0  0  0  0
   -1.0730  -10.4660  -23.6640 C   0  0  0  0  0  0  0  0  0  0  0  0
   -0.5590   -8.1500  -26.8500 H   0  0  0  0  0  0  0  0  0  0  0  0
   -2.0130  -12.5020  -21.6770 N   0  0  0  0  0  0  0  0  0  0  0  0
   -0.7650  -12.4860  -22.2370 C   0  0  0  0  0  0  0  0  0  0  0  0
    0.2050  -12.9580  -21.6600 O   0  0  0  0  0  0  0  0  0  0  0  0
   -2.1140  -12.9600  -20.7810 H   0  0  0  0  0  0  0  0  0  0  0  0
   -2.8360  -12.1450  -22.1410 H   0  0  0  0  0  0  0  0  0  0  0  0
  1  2  1  0  0  0  0
  1 22  1  0  0  0  0
  3  2  2  0  0  0  0
  4  3  1  0  0  0  0
  5  4  2  0  0  0  0
  5  6  1  0  0  0  0
  6  1  2  0  0  0  0
  7  8  1  0  0  0  0
  7  5  1  0  0  0  0
  8 11  1  0  0  0  0
  9  8  2  0  0  0  0
 10  7  1  0  0  0  0
 11 12  1  0  0  0  0
 12 13  2  0  0  0  0
 14 13  1  0  0  0  0
 14 21  1  0  0  0  0
 15 17  1  0  0  0  0
 15 14  2  0  0  0  0
 16 11  2  0  0  0  0
 16 15  1  0  0  0  0
 17 18  1  0  0  0  0
 18 21  1  0  0  0  0
 18 20  1  0  0  0  0
 19 18  1  0  0  0  0
 22 29  1  0  0  0  0
 23 36  1  0  0  0  0
 24 23  2  0  0  0  0
 25 24  1  0  0  0  0
 26 25  2  0  0  0  0
 26 27  1  0  0  0  0
 27 33  1  0  0  0  0
 28 27  2  0  0  0  0
 28 30  1  0  0  0  0
 29 28  1  0  0  0  0
 30 31  2  0  0  0  0
 31 32  1  0  0  0  0
 33 23  1  0  0  0  0
 33 32  2  0  0  0  0
 34 29  1  0  0  0  0
 35 38  1  0  0  0  0
 36 35  1  0  0  0  0
 36 37  2  0  0  0  0
 39 35  1  0  0  0  0
M  END
>  <minimizedAffinity>
-9.09638786

$$$$
