
 OpenBabel10152419353D

 39 43  0  0  0  0  0  0  0  0999 V2000
   -1.4370   -6.9010  -23.5280 C   0  0  0  0  0  0  0  0  0  0  0  0
   -2.6350   -6.8040  -24.2470 C   0  0  0  0  0  3  0  0  0  0  0  0
   -3.7610   -7.4930  -23.8170 C   0  0  0  0  0  3  0  0  0  0  0  0
   -3.6920   -8.3040  -22.6830 C   0  0  0  0  0  3  0  0  0  0  0  0
   -2.4890   -8.4850  -21.9960 C   0  0  0  0  0  0  0  0  0  0  0  0
   -1.3740   -7.7430  -22.4030 C   0  0  0  0  0  3  0  0  0  0  0  0
   -2.3230   -9.3330  -20.8810 N   0  0  0  0  0  0  0  0  0  0  0  0
   -1.7370  -10.5730  -20.7440 C   0  0  0  0  0  0  0  0  0  0  0  0
   -1.8930  -11.2310  -19.7180 O   0  0  0  0  0  0  0  0  0  0  0  0
   -2.7030   -9.0010  -20.0010 H   0  0  0  0  0  0  0  0  0  0  0  0
   -0.8650  -11.1160  -21.8000 C   0  0  0  0  0  0  0  0  0  0  0  0
   -0.1860  -12.3280  -21.5540 C   0  0  0  0  0  3  0  0  0  0  0  0
    0.5150  -12.9580  -22.5860 C   0  0  0  0  0  3  0  0  0  0  0  0
    0.5130  -12.3490  -23.8240 C   0  0  0  0  0  0  0  0  0  0  0  0
   -0.1040  -11.1340  -24.0410 C   0  0  0  0  0  0  0  0  0  0  0  0
   -0.7820  -10.4730  -23.0420 C   0  0  0  0  0  3  0  0  0  0  0  0
   -0.0080  -10.7260  -25.3350 O   0  0  0  0  0  0  0  0  0  0  0  0
    0.6190  -11.8810  -25.9110 C   0  0  0  0  0  0  0  0  0  0  0  0
   -0.2710  -12.4780  -26.7440 F   0  0  0  0  0  0  0  0  0  0  0  0
    1.6750  -11.4780  -26.6560 F   0  0  0  0  0  0  0  0  0  0  0  0
    1.0690  -12.8550  -24.9580 O   0  0  0  0  0  0  0  0  0  0  0  0
   -0.2720   -6.0040  -23.8800 C   0  0  0  0  0  2  0  0  0  0  0  0
    3.4140   -8.1580  -28.2740 C   0  0  0  0  0  0  0  0  0  0  0  0
    4.0520   -9.1850  -27.5590 C   0  0  0  0  0  3  0  0  0  0  0  0
    3.7350   -9.3880  -26.2270 C   0  0  0  0  0  3  0  0  0  0  0  0
    2.7870   -8.5660  -25.6270 C   0  0  0  0  0  3  0  0  0  0  0  0
    2.1230   -7.5360  -26.3530 C   0  0  0  0  0  0  0  0  0  0  0  0
    1.1280   -6.6950  -25.8080 C   0  0  0  0  0  0  0  0  0  0  0  0
    0.7500   -6.8420  -24.4790 N   0  0  0  0  0  0  0  0  0  0  0  0
    0.5490   -5.7190  -26.5230 N   0  0  0  0  0  0  0  0  0  0  0  0
    0.9290   -5.6010  -27.7960 C   0  0  0  0  0  3  0  0  0  0  0  0
    1.8260   -6.3660  -28.4220 N   0  0  0  0  0  0  0  0  0  0  0  0
    2.4450   -7.3200  -27.7040 C   0  0  0  0  0  0  0  0  0  0  0  0
    0.7630   -7.7930  -24.1360 H   0  0  0  0  0  0  0  0  0  0  0  0
    4.4830   -6.7840  -29.9390 N   0  0  0  0  0  0  0  0  0  0  0  0
    3.8290   -7.9560  -29.6770 C   0  0  0  0  0  0  0  0  0  0  0  0
    3.5530   -8.7520  -30.5640 O   0  0  0  0  0  0  0  0  0  0  0  0
    4.7730   -6.6170  -30.8930 H   0  0  0  0  0  0  0  0  0  0  0  0
    4.7480   -6.1220  -29.2240 H   0  0  0  0  0  0  0  0  0  0  0  0
  1  6  1  0  0  0  0
  2  3  1  0  0  0  0
  2  1  2  0  0  0  0
  3  4  2  0  0  0  0
  4  5  1  0  0  0  0
  5  7  1  0  0  0  0
  6  5  2  0  0  0  0
  7  8  1  0  0  0  0
  7 10  1  0  0  0  0
  8  9  2  0  0  0  0
 11 12  1  0  0  0  0
 11  8  1  0  0  0  0
 13 12  2  0  0  0  0
 14 13  1  0  0  0  0
 15 14  2  0  0  0  0
 15 16  1  0  0  0  0
 16 11  2  0  0  0  0
 17 15  1  0  0  0  0
 18 17  1  0  0  0  0
 18 21  1  0  0  0  0
 19 18  1  0  0  0  0
 20 18  1  0  0  0  0
 21 14  1  0  0  0  0
 22  1  1  0  0  0  0
 23 33  2  0  0  0  0
 23 24  1  0  0  0  0
 24 25  2  0  0  0  0
 25 26  1  0  0  0  0
 27 28  1  0  0  0  0
 27 26  2  0  0  0  0
 28 29  1  0  0  0  0
 29 34  1  0  0  0  0
 29 22  1  0  0  0  0
 30 28  2  0  0  0  0
 31 30  1  0  0  0  0
 32 31  2  0  0  0  0
 32 33  1  0  0  0  0
 33 27  1  0  0  0  0
 35 36  1  0  0  0  0
 35 39  1  0  0  0  0
 36 23  1  0  0  0  0
 37 36  2  0  0  0  0
 38 35  1  0  0  0  0
M  END
>  <minimizedAffinity>
-8.13634968

$$$$
