
 OpenBabel10152419353D

 39 43  0  0  0  0  0  0  0  0999 V2000
   -0.4250   -5.9870  -27.0960 C   0  0  0  0  0  0  0  0  0  0  0  0
   -0.4140   -4.6010  -26.8940 C   0  0  0  0  0  3  0  0  0  0  0  0
    0.6510   -3.8400  -27.3580 C   0  0  0  0  0  3  0  0  0  0  0  0
    1.7220   -4.4600  -28.0030 C   0  0  0  0  0  3  0  0  0  0  0  0
    1.7760   -5.8480  -28.1440 C   0  0  0  0  0  0  0  0  0  0  0  0
    0.6730   -6.6010  -27.7230 C   0  0  0  0  0  3  0  0  0  0  0  0
    2.8500   -6.5530  -28.7270 N   0  0  0  0  0  0  0  0  0  0  0  0
    3.6470   -7.5750  -28.2580 C   0  0  0  0  0  0  0  0  0  0  0  0
    4.6700   -7.8990  -28.8560 O   0  0  0  0  0  0  0  0  0  0  0  0
    3.1160   -6.2750  -29.6660 H   0  0  0  0  0  0  0  0  0  0  0  0
    3.2640   -8.3390  -27.0580 C   0  0  0  0  0  0  0  0  0  0  0  0
    2.6140   -7.6590  -26.0070 C   0  0  0  0  0  3  0  0  0  0  0  0
    2.0880   -8.3770  -24.9300 C   0  0  0  0  0  3  0  0  0  0  0  0
    2.2370   -9.7490  -24.9440 C   0  0  0  0  0  0  0  0  0  0  0  0
    2.9240  -10.4010  -25.9460 C   0  0  0  0  0  0  0  0  0  0  0  0
    3.4780   -9.7230  -27.0090 C   0  0  0  0  0  3  0  0  0  0  0  0
    2.9300  -11.7500  -25.7800 O   0  0  0  0  0  0  0  0  0  0  0  0
    2.0630  -11.8620  -24.6430 C   0  0  0  0  0  0  0  0  0  0  0  0
    0.9160  -12.4700  -25.0400 F   0  0  0  0  0  0  0  0  0  0  0  0
    2.6530  -12.6580  -23.7200 F   0  0  0  0  0  0  0  0  0  0  0  0
    1.7210  -10.6120  -24.0260 O   0  0  0  0  0  0  0  0  0  0  0  0
   -1.6650   -6.7880  -26.7670 C   0  0  0  0  0  2  0  0  0  0  0  0
   -1.6560  -10.0680  -21.5930 C   0  0  0  0  0  0  0  0  0  0  0  0
   -1.6800   -9.0220  -20.6550 C   0  0  0  0  0  3  0  0  0  0  0  0
   -1.6740   -7.7100  -21.0960 C   0  0  0  0  0  3  0  0  0  0  0  0
   -1.6460   -7.4590  -22.4640 C   0  0  0  0  0  3  0  0  0  0  0  0
   -1.6430   -8.5150  -23.4190 C   0  0  0  0  0  0  0  0  0  0  0  0
   -1.6500   -8.3210  -24.8180 C   0  0  0  0  0  0  0  0  0  0  0  0
   -1.6520   -7.0330  -25.3380 N   0  0  0  0  0  0  0  0  0  0  0  0
   -1.6180   -9.3480  -25.6800 N   0  0  0  0  0  0  0  0  0  0  0  0
   -1.6190  -10.5740  -25.1540 C   0  0  0  0  0  3  0  0  0  0  0  0
   -1.6530  -10.8710  -23.8530 N   0  0  0  0  0  0  0  0  0  0  0  0
   -1.6410   -9.8500  -22.9790 C   0  0  0  0  0  0  0  0  0  0  0  0
   -2.1690   -6.3560  -24.7940 H   0  0  0  0  0  0  0  0  0  0  0  0
   -0.5650  -12.2130  -21.4930 N   0  0  0  0  0  0  0  0  0  0  0  0
   -1.6130  -11.4460  -21.0640 C   0  0  0  0  0  0  0  0  0  0  0  0
   -2.4880  -11.8990  -20.3390 O   0  0  0  0  0  0  0  0  0  0  0  0
   -0.5150  -13.1630  -21.1510 H   0  0  0  0  0  0  0  0  0  0  0  0
    0.1850  -11.8590  -22.0690 H   0  0  0  0  0  0  0  0  0  0  0  0
  1  2  1  0  0  0  0
  1 22  1  0  0  0  0
  3  2  2  0  0  0  0
  4  3  1  0  0  0  0
  5  4  2  0  0  0  0
  5  6  1  0  0  0  0
  6  1  2  0  0  0  0
  7  8  1  0  0  0  0
  7  5  1  0  0  0  0
  8 11  1  0  0  0  0
  9  8  2  0  0  0  0
 10  7  1  0  0  0  0
 11 16  2  0  0  0  0
 11 12  1  0  0  0  0
 12 13  2  0  0  0  0
 14 13  1  0  0  0  0
 14 21  1  0  0  0  0
 15 17  1  0  0  0  0
 15 14  2  0  0  0  0
 16 15  1  0  0  0  0
 17 18  1  0  0  0  0
 18 21  1  0  0  0  0
 18 20  1  0  0  0  0
 19 18  1  0  0  0  0
 22 29  1  0  0  0  0
 23 36  1  0  0  0  0
 23 24  1  0  0  0  0
 25 24  2  0  0  0  0
 26 25  1  0  0  0  0
 27 33  1  0  0  0  0
 27 26  2  0  0  0  0
 28 27  1  0  0  0  0
 29 28  1  0  0  0  0
 29 34  1  0  0  0  0
 30 31  1  0  0  0  0
 30 28  2  0  0  0  0
 31 32  2  0  0  0  0
 32 33  1  0  0  0  0
 33 23  2  0  0  0  0
 35 38  1  0  0  0  0
 35 36  1  0  0  0  0
 36 37  2  0  0  0  0
 39 35  1  0  0  0  0
M  END
>  <minimizedAffinity>
-10.365798

$$$$
