
 OpenBabel10152418323D

 40 43  0  0  0  0  0  0  0  0999 V2000
    3.0940   -7.7070  -27.9970 C   0  0  0  0  0  0  0  0  0  0  0  0
    4.0480   -7.4930  -27.0020 C   0  0  0  0  0  3  0  0  0  0  0  0
    4.1750   -8.4120  -25.9660 C   0  0  0  0  0  3  0  0  0  0  0  0
    3.3750   -9.5550  -25.9460 C   0  0  0  0  0  3  0  0  0  0  0  0
    2.5010   -9.8590  -27.0010 C   0  0  0  0  0  0  0  0  0  0  0  0
    2.3930   -8.9230  -28.0390 C   0  0  0  0  0  3  0  0  0  0  0  0
    1.8040   -5.7140  -28.8450 C   0  0  0  0  0  0  0  0  0  0  0  0
    1.6130   -4.9590  -29.7940 O   0  0  0  0  0  0  0  0  0  0  0  0
    2.8310   -6.6390  -28.8740 N   0  0  0  0  0  0  0  0  0  0  0  0
    3.5200   -6.4380  -29.5900 H   0  0  0  0  0  0  0  0  0  0  0  0
   -0.3260   -5.1260  -25.1940 C   0  0  0  0  0  0  0  0  0  0  0  0
    0.4600   -6.2700  -25.3840 C   0  0  0  0  0  3  0  0  0  0  0  0
    1.1060   -6.4940  -26.6000 C   0  0  0  0  0  3  0  0  0  0  0  0
    0.9660   -5.5650  -27.6280 C   0  0  0  0  0  0  0  0  0  0  0  0
    0.1080   -4.4660  -27.4690 C   0  0  0  0  0  3  0  0  0  0  0  0
   -0.4970   -4.1960  -26.2280 C   0  0  0  0  0  0  0  0  0  0  0  0
   -1.2350   -2.8960  -26.0380 C   0  0  0  0  0  0  0  0  0  0  0  0
   -1.2620   -2.4730  -24.7450 F   0  0  0  0  0  0  0  0  0  0  0  0
   -0.6880   -1.8610  -26.7420 F   0  0  0  0  0  0  0  0  0  0  0  0
   -2.5320   -2.9640  -26.4470 F   0  0  0  0  0  0  0  0  0  0  0  0
   -0.2980   -5.9000  -22.9840 C   0  0  0  0  0  1  0  0  0  0  0  0
   -0.7770   -4.9320  -23.9160 O   0  0  0  0  0  0  0  0  0  0  0  0
    1.6080  -11.0940  -26.9830 C   0  0  0  0  0  2  0  0  0  0  0  0
    1.0460  -11.3560  -25.6700 N   0  0  0  0  0  0  0  0  0  0  0  0
    1.6040  -11.8390  -24.9860 H   0  0  0  0  0  0  0  0  0  0  0  0
   -0.1170  -10.6960  -25.2980 C   0  0  0  0  0  0  0  0  0  0  0  0
   -0.5260   -9.7000  -26.1030 N   0  0  0  0  0  0  0  0  0  0  0  0
   -1.3990   -8.8340  -25.5950 C   0  0  0  0  0  3  0  0  0  0  0  0
   -1.8250   -8.8190  -24.3310 N   0  0  0  0  0  0  0  0  0  0  0  0
   -1.4510   -9.8400  -23.5350 C   0  0  0  0  0  0  0  0  0  0  0  0
   -1.8000   -9.8800  -22.1810 C   0  0  0  0  0  0  0  0  0  0  0  0
   -1.5120  -10.9680  -21.3460 C   0  0  0  0  0  3  0  0  0  0  0  0
   -0.7940  -12.0390  -21.8480 C   0  0  0  0  0  3  0  0  0  0  0  0
   -0.3320  -11.9820  -23.1600 C   0  0  0  0  0  3  0  0  0  0  0  0
   -0.6440  -10.8840  -24.0070 C   0  0  0  0  0  0  0  0  0  0  0  0
   -2.3610   -8.6850  -21.5270 C   0  0  0  0  0  0  0  0  0  0  0  0
   -3.3930   -8.0880  -22.1990 N   0  0  0  0  0  0  0  0  0  0  0  0
   -1.8580   -8.2000  -20.5220 O   0  0  0  0  0  0  0  0  0  0  0  0
   -3.7910   -7.2420  -21.8170 H   0  0  0  0  0  0  0  0  0  0  0  0
   -3.7880   -8.4740  -23.0460 H   0  0  0  0  0  0  0  0  0  0  0  0
  1  2  1  0  0  0  0
  2  3  2  0  0  0  0
  3  4  1  0  0  0  0
  5 23  1  0  0  0  0
  5  4  2  0  0  0  0
  6  1  2  0  0  0  0
  6  5  1  0  0  0  0
  7 14  1  0  0  0  0
  8  7  2  0  0  0  0
  9  7  1  0  0  0  0
  9  1  1  0  0  0  0
 10  9  1  0  0  0  0
 11 22  1  0  0  0  0
 12 11  1  0  0  0  0
 13 12  2  0  0  0  0
 14 15  2  0  0  0  0
 14 13  1  0  0  0  0
 15 16  1  0  0  0  0
 16 17  1  0  0  0  0
 16 11  2  0  0  0  0
 17 18  1  0  0  0  0
 19 17  1  0  0  0  0
 20 17  1  0  0  0  0
 22 21  1  0  0  0  0
 23 24  1  0  0  0  0
 24 26  1  0  0  0  0
 24 25  1  0  0  0  0
 26 35  1  0  0  0  0
 27 28  1  0  0  0  0
 27 26  2  0  0  0  0
 28 29  2  0  0  0  0
 29 30  1  0  0  0  0
 30 31  1  0  0  0  0
 31 36  1  0  0  0  0
 31 32  2  0  0  0  0
 33 32  1  0  0  0  0
 34 33  2  0  0  0  0
 35 30  2  0  0  0  0
 35 34  1  0  0  0  0
 36 38  2  0  0  0  0
 37 39  1  0  0  0  0
 37 36  1  0  0  0  0
 40 37  1  0  0  0  0
M  END
>  <minimizedAffinity>
-5.9297533

$$$$
