
 OpenBabel10152418323D

 40 43  0  0  0  0  0  0  0  0999 V2000
    3.1240   -8.7710  -27.0780 C   0  0  0  0  0  0  0  0  0  0  0  0
    3.2040   -7.8950  -25.9950 C   0  0  0  0  0  3  0  0  0  0  0  0
    2.7450   -8.3040  -24.7480 C   0  0  0  0  0  3  0  0  0  0  0  0
    2.2420   -9.5950  -24.5800 C   0  0  0  0  0  3  0  0  0  0  0  0
    2.2700  -10.5360  -25.6190 C   0  0  0  0  0  0  0  0  0  0  0  0
    2.7430  -10.1050  -26.8670 C   0  0  0  0  0  3  0  0  0  0  0  0
    2.7550   -7.1620  -28.9830 C   0  0  0  0  0  0  0  0  0  0  0  0
    2.9500   -6.9400  -30.1750 O   0  0  0  0  0  0  0  0  0  0  0  0
    3.3610   -8.2340  -28.3560 N   0  0  0  0  0  0  0  0  0  0  0  0
    4.1400   -8.6090  -28.8860 H   0  0  0  0  0  0  0  0  0  0  0  0
    0.0890   -4.5190  -26.9530 C   0  0  0  0  0  0  0  0  0  0  0  0
    0.8200   -4.0790  -28.0660 C   0  0  0  0  0  3  0  0  0  0  0  0
    1.7380   -4.9220  -28.6910 C   0  0  0  0  0  3  0  0  0  0  0  0
    1.9210   -6.2130  -28.2020 C   0  0  0  0  0  0  0  0  0  0  0  0
    1.2560   -6.6230  -27.0360 C   0  0  0  0  0  3  0  0  0  0  0  0
    0.2820   -5.8050  -26.4340 C   0  0  0  0  0  0  0  0  0  0  0  0
   -0.5580   -6.3660  -25.3170 C   0  0  0  0  0  0  0  0  0  0  0  0
   -1.8420   -6.6300  -25.6850 F   0  0  0  0  0  0  0  0  0  0  0  0
   -0.0770   -7.5450  -24.8230 F   0  0  0  0  0  0  0  0  0  0  0  0
   -0.6310   -5.5300  -24.2450 F   0  0  0  0  0  0  0  0  0  0  0  0
   -0.5940   -2.2880  -26.7460 C   0  0  0  0  0  1  0  0  0  0  0  0
   -0.8920   -3.6660  -26.5250 O   0  0  0  0  0  0  0  0  0  0  0  0
    1.7060  -11.9430  -25.4540 C   0  0  0  0  0  2  0  0  0  0  0  0
    0.7620  -12.0390  -24.3550 N   0  0  0  0  0  0  0  0  0  0  0  0
    1.0780  -12.3950  -23.4690 H   0  0  0  0  0  0  0  0  0  0  0  0
   -0.4570  -11.3840  -24.4630 C   0  0  0  0  0  0  0  0  0  0  0  0
   -0.8460  -11.0400  -25.7030 N   0  0  0  0  0  0  0  0  0  0  0  0
   -1.7970  -10.1130  -25.8020 C   0  0  0  0  0  3  0  0  0  0  0  0
   -2.3240   -9.4360  -24.7800 N   0  0  0  0  0  0  0  0  0  0  0  0
   -1.9680   -9.8100  -23.5350 C   0  0  0  0  0  0  0  0  0  0  0  0
   -2.4220   -9.1220  -22.4060 C   0  0  0  0  0  0  0  0  0  0  0  0
   -2.1520   -9.5360  -21.0940 C   0  0  0  0  0  3  0  0  0  0  0  0
   -1.3460  -10.6410  -20.8830 C   0  0  0  0  0  3  0  0  0  0  0  0
   -0.7830  -11.2820  -21.9830 C   0  0  0  0  0  3  0  0  0  0  0  0
   -1.0770  -10.8690  -23.3100 C   0  0  0  0  0  0  0  0  0  0  0  0
   -3.0900   -7.8170  -22.5540 C   0  0  0  0  0  0  0  0  0  0  0  0
   -4.3730   -7.8740  -23.0250 N   0  0  0  0  0  0  0  0  0  0  0  0
   -2.4940   -6.7620  -22.3820 O   0  0  0  0  0  0  0  0  0  0  0  0
   -4.8660   -7.0060  -23.1840 H   0  0  0  0  0  0  0  0  0  0  0  0
   -4.8530   -8.7470  -23.1950 H   0  0  0  0  0  0  0  0  0  0  0  0
  1  6  2  0  0  0  0
  1  2  1  0  0  0  0
  2  3  2  0  0  0  0
  3  4  1  0  0  0  0
  5 23  1  0  0  0  0
  5  4  2  0  0  0  0
  6  5  1  0  0  0  0
  7  9  1  0  0  0  0
  7 14  1  0  0  0  0
  8  7  2  0  0  0  0
  9  1  1  0  0  0  0
 10  9  1  0  0  0  0
 11 22  1  0  0  0  0
 11 16  1  0  0  0  0
 12 11  2  0  0  0  0
 13 14  2  0  0  0  0
 13 12  1  0  0  0  0
 14 15  1  0  0  0  0
 15 16  2  0  0  0  0
 16 17  1  0  0  0  0
 17 19  1  0  0  0  0
 17 20  1  0  0  0  0
 18 17  1  0  0  0  0
 21 22  1  0  0  0  0
 23 24  1  0  0  0  0
 24 25  1  0  0  0  0
 26 24  1  0  0  0  0
 26 35  1  0  0  0  0
 27 26  2  0  0  0  0
 28 27  1  0  0  0  0
 28 29  2  0  0  0  0
 29 30  1  0  0  0  0
 30 35  2  0  0  0  0
 30 31  1  0  0  0  0
 31 32  2  0  0  0  0
 32 33  1  0  0  0  0
 34 33  2  0  0  0  0
 35 34  1  0  0  0  0
 36 31  1  0  0  0  0
 36 38  2  0  0  0  0
 37 36  1  0  0  0  0
 39 37  1  0  0  0  0
 40 37  1  0  0  0  0
M  END
>  <minimizedAffinity>
-7.47200918

$$$$
