
 OpenBabel10152418323D

 40 43  0  0  0  0  0  0  0  0999 V2000
   -0.6120   -4.6600  -24.8120 C   0  0  0  0  0  0  0  0  0  0  0  0
   -1.1750   -3.4510  -25.2200 C   0  0  0  0  0  3  0  0  0  0  0  0
   -1.0160   -3.0300  -26.5350 C   0  0  0  0  0  3  0  0  0  0  0  0
   -0.3260   -3.8310  -27.4450 C   0  0  0  0  0  3  0  0  0  0  0  0
    0.1380   -5.1080  -27.0950 C   0  0  0  0  0  0  0  0  0  0  0  0
   -0.0390   -5.5170  -25.7650 C   0  0  0  0  0  3  0  0  0  0  0  0
   -1.0080   -6.0380  -22.7380 C   0  0  0  0  0  0  0  0  0  0  0  0
   -1.0810   -6.0270  -21.5130 O   0  0  0  0  0  0  0  0  0  0  0  0
   -0.5810   -4.9200  -23.4300 N   0  0  0  0  0  0  0  0  0  0  0  0
   -0.1060   -4.2490  -22.8360 H   0  0  0  0  0  0  0  0  0  0  0  0
   -1.5330   -9.6520  -24.9460 C   0  0  0  0  0  0  0  0  0  0  0  0
   -1.7500   -8.4070  -25.5540 C   0  0  0  0  0  3  0  0  0  0  0  0
   -1.6410   -7.2290  -24.8170 C   0  0  0  0  0  3  0  0  0  0  0  0
   -1.3070   -7.2970  -23.4660 C   0  0  0  0  0  0  0  0  0  0  0  0
   -1.1780   -8.5460  -22.8370 C   0  0  0  0  0  3  0  0  0  0  0  0
   -1.2240   -9.7380  -23.5830 C   0  0  0  0  0  0  0  0  0  0  0  0
   -0.8680  -11.0380  -22.9100 C   0  0  0  0  0  0  0  0  0  0  0  0
    0.3680  -11.5000  -23.2440 F   0  0  0  0  0  0  0  0  0  0  0  0
   -0.8630  -10.9530  -21.5470 F   0  0  0  0  0  0  0  0  0  0  0  0
   -1.7430  -12.0380  -23.2050 F   0  0  0  0  0  0  0  0  0  0  0  0
   -0.4940  -10.6430  -26.7960 C   0  0  0  0  0  1  0  0  0  0  0  0
   -1.5110  -10.7220  -25.7990 O   0  0  0  0  0  0  0  0  0  0  0  0
    0.9100   -5.9860  -28.0730 C   0  0  0  0  0  2  0  0  0  0  0  0
    2.3330   -5.6980  -28.0770 N   0  0  0  0  0  0  0  0  0  0  0  0
    2.6400   -4.7510  -27.9340 H   0  0  0  0  0  0  0  0  0  0  0  0
    3.2280   -6.7540  -27.9920 C   0  0  0  0  0  0  0  0  0  0  0  0
    4.0670   -6.9160  -29.0310 N   0  0  0  0  0  0  0  0  0  0  0  0
    4.6640   -8.1000  -29.1460 C   0  0  0  0  0  3  0  0  0  0  0  0
    4.4270   -9.1620  -28.3740 N   0  0  0  0  0  0  0  0  0  0  0  0
    3.6210   -8.9900  -27.3080 C   0  0  0  0  0  0  0  0  0  0  0  0
    3.2690  -10.0580  -26.4760 C   0  0  0  0  0  0  0  0  0  0  0  0
    2.5120   -9.9030  -25.3070 C   0  0  0  0  0  3  0  0  0  0  0  0
    2.0280   -8.6500  -24.9720 C   0  0  0  0  0  3  0  0  0  0  0  0
    2.2640   -7.5860  -25.8370 C   0  0  0  0  0  3  0  0  0  0  0  0
    3.0480   -7.7470  -27.0110 C   0  0  0  0  0  0  0  0  0  0  0  0
    3.5550  -11.4430  -26.8900 C   0  0  0  0  0  0  0  0  0  0  0  0
    4.7270  -11.9600  -26.4090 N   0  0  0  0  0  0  0  0  0  0  0  0
    2.8530  -12.0350  -27.7000 O   0  0  0  0  0  0  0  0  0  0  0  0
    4.9930  -12.8930  -26.6930 H   0  0  0  0  0  0  0  0  0  0  0  0
    5.3200  -11.4570  -25.7640 H   0  0  0  0  0  0  0  0  0  0  0  0
  1  9  1  0  0  0  0
  2  1  1  0  0  0  0
  3  2  2  0  0  0  0
  4  5  2  0  0  0  0
  4  3  1  0  0  0  0
  5  6  1  0  0  0  0
  6  1  2  0  0  0  0
  7  8  2  0  0  0  0
  9 10  1  0  0  0  0
  9  7  1  0  0  0  0
 11 16  1  0  0  0  0
 12 11  2  0  0  0  0
 12 13  1  0  0  0  0
 13 14  2  0  0  0  0
 14 15  1  0  0  0  0
 14  7  1  0  0  0  0
 16 17  1  0  0  0  0
 16 15  2  0  0  0  0
 17 19  1  0  0  0  0
 18 17  1  0  0  0  0
 20 17  1  0  0  0  0
 21 22  1  0  0  0  0
 22 11  1  0  0  0  0
 23  5  1  0  0  0  0
 24 23  1  0  0  0  0
 24 26  1  0  0  0  0
 24 25  1  0  0  0  0
 26 35  1  0  0  0  0
 27 26  2  0  0  0  0
 28 27  1  0  0  0  0
 28 29  2  0  0  0  0
 29 30  1  0  0  0  0
 30 35  2  0  0  0  0
 30 31  1  0  0  0  0
 31 32  2  0  0  0  0
 32 33  1  0  0  0  0
 34 33  2  0  0  0  0
 35 34  1  0  0  0  0
 36 31  1  0  0  0  0
 36 37  1  0  0  0  0
 37 40  1  0  0  0  0
 38 36  2  0  0  0  0
 39 37  1  0  0  0  0
M  END
>  <minimizedAffinity>
-5.57782555

$$$$
