
 OpenBabel10152418323D

 40 43  0  0  0  0  0  0  0  0999 V2000
    1.0370  -11.4880  -25.7490 C   0  0  0  0  0  0  0  0  0  0  0  0
    1.3330  -11.9120  -24.4540 C   0  0  0  0  0  3  0  0  0  0  0  0
    2.6610  -12.0390  -24.0610 C   0  0  0  0  0  3  0  0  0  0  0  0
    3.6850  -11.7100  -24.9500 C   0  0  0  0  0  3  0  0  0  0  0  0
    3.4140  -11.1590  -26.2120 C   0  0  0  0  0  0  0  0  0  0  0  0
    2.0690  -11.0330  -26.5860 C   0  0  0  0  0  3  0  0  0  0  0  0
   -1.4410  -11.0320  -25.6690 C   0  0  0  0  0  0  0  0  0  0  0  0
   -2.5520  -11.3970  -26.0440 O   0  0  0  0  0  0  0  0  0  0  0  0
   -0.2970  -11.6170  -26.1770 N   0  0  0  0  0  0  0  0  0  0  0  0
   -0.4690  -12.1380  -27.0300 H   0  0  0  0  0  0  0  0  0  0  0  0
   -1.5050   -7.7370  -22.9570 C   0  0  0  0  0  0  0  0  0  0  0  0
   -1.4520   -7.5200  -24.3410 C   0  0  0  0  0  3  0  0  0  0  0  0
   -1.3680   -8.5950  -25.2250 C   0  0  0  0  0  3  0  0  0  0  0  0
   -1.3400   -9.8930  -24.7210 C   0  0  0  0  0  0  0  0  0  0  0  0
   -1.3020  -10.1060  -23.3340 C   0  0  0  0  0  3  0  0  0  0  0  0
   -1.4510   -9.0350  -22.4340 C   0  0  0  0  0  0  0  0  0  0  0  0
   -1.6200   -9.3280  -20.9660 C   0  0  0  0  0  0  0  0  0  0  0  0
   -1.3510  -10.6210  -20.6380 F   0  0  0  0  0  0  0  0  0  0  0  0
   -0.8000   -8.5780  -20.1720 F   0  0  0  0  0  0  0  0  0  0  0  0
   -2.8820   -9.0740  -20.5220 F   0  0  0  0  0  0  0  0  0  0  0  0
   -1.0100   -5.4730  -22.6150 C   0  0  0  0  0  1  0  0  0  0  0  0
   -1.7470   -6.6230  -22.2010 O   0  0  0  0  0  0  0  0  0  0  0  0
    4.5220  -10.8130  -27.2000 C   0  0  0  0  0  2  0  0  0  0  0  0
    4.7010   -9.3800  -27.3560 N   0  0  0  0  0  0  0  0  0  0  0  0
    5.5740   -8.9630  -27.0790 H   0  0  0  0  0  0  0  0  0  0  0  0
    3.7940   -8.6760  -28.1350 C   0  0  0  0  0  0  0  0  0  0  0  0
    4.0670   -8.5950  -29.4490 N   0  0  0  0  0  0  0  0  0  0  0  0
    3.4380   -7.6450  -30.1390 C   0  0  0  0  0  3  0  0  0  0  0  0
    2.6380   -6.7140  -29.6170 N   0  0  0  0  0  0  0  0  0  0  0  0
    2.3290   -6.8200  -28.3090 C   0  0  0  0  0  0  0  0  0  0  0  0
    1.5450   -5.8590  -27.6620 C   0  0  0  0  0  0  0  0  0  0  0  0
    1.1250   -5.9820  -26.3300 C   0  0  0  0  0  3  0  0  0  0  0  0
    1.5450   -7.0690  -25.5820 C   0  0  0  0  0  3  0  0  0  0  0  0
    2.4180   -7.9850  -26.1610 C   0  0  0  0  0  3  0  0  0  0  0  0
    2.8250   -7.8640  -27.5170 C   0  0  0  0  0  0  0  0  0  0  0  0
    1.2540   -4.5750  -28.3220 C   0  0  0  0  0  0  0  0  0  0  0  0
    0.4200   -4.6570  -29.4040 N   0  0  0  0  0  0  0  0  0  0  0  0
    1.8150   -3.5370  -27.9960 O   0  0  0  0  0  0  0  0  0  0  0  0
    0.2170   -3.8130  -29.9200 H   0  0  0  0  0  0  0  0  0  0  0  0
   -0.0190   -5.5230  -29.6900 H   0  0  0  0  0  0  0  0  0  0  0  0
  1  2  1  0  0  0  0
  2  3  2  0  0  0  0
  4  3  1  0  0  0  0
  5  4  2  0  0  0  0
  6  5  1  0  0  0  0
  6  1  2  0  0  0  0
  7 14  1  0  0  0  0
  8  7  2  0  0  0  0
  9  1  1  0  0  0  0
  9  7  1  0  0  0  0
 10  9  1  0  0  0  0
 11 16  1  0  0  0  0
 11 22  1  0  0  0  0
 12 11  2  0  0  0  0
 13 14  2  0  0  0  0
 13 12  1  0  0  0  0
 14 15  1  0  0  0  0
 15 16  2  0  0  0  0
 16 17  1  0  0  0  0
 17 18  1  0  0  0  0
 17 20  1  0  0  0  0
 17 19  1  0  0  0  0
 21 22  1  0  0  0  0
 23  5  1  0  0  0  0
 24 23  1  0  0  0  0
 24 25  1  0  0  0  0
 26 35  1  0  0  0  0
 26 24  1  0  0  0  0
 27 26  2  0  0  0  0
 28 29  2  0  0  0  0
 28 27  1  0  0  0  0
 29 30  1  0  0  0  0
 30 31  2  0  0  0  0
 30 35  1  0  0  0  0
 31 32  1  0  0  0  0
 32 33  2  0  0  0  0
 34 33  1  0  0  0  0
 35 34  2  0  0  0  0
 36 38  2  0  0  0  0
 36 31  1  0  0  0  0
 37 36  1  0  0  0  0
 39 37  1  0  0  0  0
 40 37  1  0  0  0  0
M  END
>  <minimizedAffinity>
-8.17243862

$$$$

 OpenBabel10152418323D

 40 43  0  0  0  0  0  0  0  0999 V2000
    3.1240   -8.7710  -27.0780 C   0  0  0  0  0  0  0  0  0  0  0  0
    3.2040   -7.8950  -25.9950 C   0  0  0  0  0  3  0  0  0  0  0  0
    2.7450   -8.3040  -24.7480 C   0  0  0  0  0  3  0  0  0  0  0  0
    2.2420   -9.5950  -24.5800 C   0  0  0  0  0  3  0  0  0  0  0  0
    2.2700  -10.5360  -25.6190 C   0  0  0  0  0  0  0  0  0  0  0  0
    2.7430  -10.1050  -26.8670 C   0  0  0  0  0  3  0  0  0  0  0  0
    2.7550   -7.1620  -28.9830 C   0  0  0  0  0  0  0  0  0  0  0  0
    2.9500   -6.9400  -30.1750 O   0  0  0  0  0  0  0  0  0  0  0  0
    3.3610   -8.2340  -28.3560 N   0  0  0  0  0  0  0  0  0  0  0  0
    4.1400   -8.6090  -28.8860 H   0  0  0  0  0  0  0  0  0  0  0  0
    0.0890   -4.5190  -26.9530 C   0  0  0  0  0  0  0  0  0  0  0  0
    0.8200   -4.0790  -28.0660 C   0  0  0  0  0  3  0  0  0  0  0  0
    1.7380   -4.9220  -28.6910 C   0  0  0  0  0  3  0  0  0  0  0  0
    1.9210   -6.2130  -28.2020 C   0  0  0  0  0  0  0  0  0  0  0  0
    1.2560   -6.6230  -27.0360 C   0  0  0  0  0  3  0  0  0  0  0  0
    0.2820   -5.8050  -26.4340 C   0  0  0  0  0  0  0  0  0  0  0  0
   -0.5580   -6.3660  -25.3170 C   0  0  0  0  0  0  0  0  0  0  0  0
   -1.8420   -6.6300  -25.6850 F   0  0  0  0  0  0  0  0  0  0  0  0
   -0.0770   -7.5450  -24.8230 F   0  0  0  0  0  0  0  0  0  0  0  0
   -0.6310   -5.5300  -24.2450 F   0  0  0  0  0  0  0  0  0  0  0  0
   -0.5940   -2.2880  -26.7460 C   0  0  0  0  0  1  0  0  0  0  0  0
   -0.8920   -3.6660  -26.5250 O   0  0  0  0  0  0  0  0  0  0  0  0
    1.7060  -11.9430  -25.4540 C   0  0  0  0  0  2  0  0  0  0  0  0
    0.7620  -12.0390  -24.3550 N   0  0  0  0  0  0  0  0  0  0  0  0
    1.0780  -12.3950  -23.4690 H   0  0  0  0  0  0  0  0  0  0  0  0
   -0.4570  -11.3840  -24.4630 C   0  0  0  0  0  0  0  0  0  0  0  0
   -0.8460  -11.0400  -25.7030 N   0  0  0  0  0  0  0  0  0  0  0  0
   -1.7970  -10.1130  -25.8020 C   0  0  0  0  0  3  0  0  0  0  0  0
   -2.3240   -9.4360  -24.7800 N   0  0  0  0  0  0  0  0  0  0  0  0
   -1.9680   -9.8100  -23.5350 C   0  0  0  0  0  0  0  0  0  0  0  0
   -2.4220   -9.1220  -22.4060 C   0  0  0  0  0  0  0  0  0  0  0  0
   -2.1520   -9.5360  -21.0940 C   0  0  0  0  0  3  0  0  0  0  0  0
   -1.3460  -10.6410  -20.8830 C   0  0  0  0  0  3  0  0  0  0  0  0
   -0.7830  -11.2820  -21.9830 C   0  0  0  0  0  3  0  0  0  0  0  0
   -1.0770  -10.8690  -23.3100 C   0  0  0  0  0  0  0  0  0  0  0  0
   -3.0900   -7.8170  -22.5540 C   0  0  0  0  0  0  0  0  0  0  0  0
   -4.3730   -7.8740  -23.0250 N   0  0  0  0  0  0  0  0  0  0  0  0
   -2.4940   -6.7620  -22.3820 O   0  0  0  0  0  0  0  0  0  0  0  0
   -4.8660   -7.0060  -23.1840 H   0  0  0  0  0  0  0  0  0  0  0  0
   -4.8530   -8.7470  -23.1950 H   0  0  0  0  0  0  0  0  0  0  0  0
  1  6  2  0  0  0  0
  1  2  1  0  0  0  0
  2  3  2  0  0  0  0
  3  4  1  0  0  0  0
  5 23  1  0  0  0  0
  5  4  2  0  0  0  0
  6  5  1  0  0  0  0
  7  9  1  0  0  0  0
  7 14  1  0  0  0  0
  8  7  2  0  0  0  0
  9  1  1  0  0  0  0
 10  9  1  0  0  0  0
 11 22  1  0  0  0  0
 11 16  1  0  0  0  0
 12 11  2  0  0  0  0
 13 14  2  0  0  0  0
 13 12  1  0  0  0  0
 14 15  1  0  0  0  0
 15 16  2  0  0  0  0
 16 17  1  0  0  0  0
 17 19  1  0  0  0  0
 17 20  1  0  0  0  0
 18 17  1  0  0  0  0
 21 22  1  0  0  0  0
 23 24  1  0  0  0  0
 24 25  1  0  0  0  0
 26 24  1  0  0  0  0
 26 35  1  0  0  0  0
 27 26  2  0  0  0  0
 28 27  1  0  0  0  0
 28 29  2  0  0  0  0
 29 30  1  0  0  0  0
 30 35  2  0  0  0  0
 30 31  1  0  0  0  0
 31 32  2  0  0  0  0
 32 33  1  0  0  0  0
 34 33  2  0  0  0  0
 35 34  1  0  0  0  0
 36 31  1  0  0  0  0
 36 38  2  0  0  0  0
 37 36  1  0  0  0  0
 39 37  1  0  0  0  0
 40 37  1  0  0  0  0
M  END
>  <minimizedAffinity>
-7.47200918

$$$$

 OpenBabel10152418323D

 40 43  0  0  0  0  0  0  0  0999 V2000
    0.8450  -11.0280  -26.2270 C   0  0  0  0  0  0  0  0  0  0  0  0
    1.4340  -12.0190  -25.4410 C   0  0  0  0  0  3  0  0  0  0  0  0
    2.8120  -12.0160  -25.2560 C   0  0  0  0  0  3  0  0  0  0  0  0
    3.5900  -11.0080  -25.8250 C   0  0  0  0  0  3  0  0  0  0  0  0
    3.0100   -9.9300  -26.5100 C   0  0  0  0  0  0  0  0  0  0  0  0
    1.6180   -9.9480  -26.6800 C   0  0  0  0  0  3  0  0  0  0  0  0
   -1.6460  -11.0370  -25.8360 C   0  0  0  0  0  0  0  0  0  0  0  0
   -2.7360  -11.4240  -26.2500 O   0  0  0  0  0  0  0  0  0  0  0  0
   -0.5010  -11.2140  -26.5900 N   0  0  0  0  0  0  0  0  0  0  0  0
   -0.7010  -11.4250  -27.5620 H   0  0  0  0  0  0  0  0  0  0  0  0
   -1.8260   -8.9390  -22.1240 C   0  0  0  0  0  0  0  0  0  0  0  0
   -1.9070   -8.2460  -23.3400 C   0  0  0  0  0  3  0  0  0  0  0  0
   -1.7850   -8.9220  -24.5530 C   0  0  0  0  0  3  0  0  0  0  0  0
   -1.5850  -10.3010  -24.5480 C   0  0  0  0  0  0  0  0  0  0  0  0
   -1.4150  -10.9810  -23.3320 C   0  0  0  0  0  3  0  0  0  0  0  0
   -1.5990  -10.3210  -22.1030 C   0  0  0  0  0  0  0  0  0  0  0  0
   -1.6190  -11.1290  -20.8320 C   0  0  0  0  0  0  0  0  0  0  0  0
   -1.5440  -10.3670  -19.7060 F   0  0  0  0  0  0  0  0  0  0  0  0
   -2.7560  -11.8720  -20.6870 F   0  0  0  0  0  0  0  0  0  0  0  0
   -0.5940  -12.0210  -20.7600 F   0  0  0  0  0  0  0  0  0  0  0  0
   -1.9020   -6.8000  -21.1740 C   0  0  0  0  0  1  0  0  0  0  0  0
   -2.1190   -8.2000  -21.0100 O   0  0  0  0  0  0  0  0  0  0  0  0
    3.8490   -8.8320  -27.1530 C   0  0  0  0  0  2  0  0  0  0  0  0
    3.4710   -7.5050  -26.7010 N   0  0  0  0  0  0  0  0  0  0  0  0
    4.1180   -6.9770  -26.1390 H   0  0  0  0  0  0  0  0  0  0  0  0
    2.3690   -6.8910  -27.2790 C   0  0  0  0  0  0  0  0  0  0  0  0
    2.4730   -6.5730  -28.5810 N   0  0  0  0  0  0  0  0  0  0  0  0
    1.6070   -5.6800  -29.0550 C   0  0  0  0  0  3  0  0  0  0  0  0
    0.7140   -5.0080  -28.3260 N   0  0  0  0  0  0  0  0  0  0  0  0
    0.5790   -5.3560  -27.0310 C   0  0  0  0  0  0  0  0  0  0  0  0
   -0.2890   -4.6700  -26.1760 C   0  0  0  0  0  0  0  0  0  0  0  0
   -0.5280   -5.0600  -24.8510 C   0  0  0  0  0  3  0  0  0  0  0  0
    0.1650   -6.1360  -24.3240 C   0  0  0  0  0  3  0  0  0  0  0  0
    1.1200   -6.7710  -25.1120 C   0  0  0  0  0  3  0  0  0  0  0  0
    1.3430   -6.3830  -26.4600 C   0  0  0  0  0  0  0  0  0  0  0  0
   -0.8830   -3.3890  -26.5970 C   0  0  0  0  0  0  0  0  0  0  0  0
   -0.0090   -2.5070  -27.1720 N   0  0  0  0  0  0  0  0  0  0  0  0
   -2.0430   -3.0970  -26.3380 O   0  0  0  0  0  0  0  0  0  0  0  0
   -0.3530   -1.5970  -27.4440 H   0  0  0  0  0  0  0  0  0  0  0  0
    0.9570   -2.7400  -27.3570 H   0  0  0  0  0  0  0  0  0  0  0  0
  1  2  1  0  0  0  0
  2  3  2  0  0  0  0
  4  3  1  0  0  0  0
  5  4  2  0  0  0  0
  6  5  1  0  0  0  0
  6  1  2  0  0  0  0
  7 14  1  0  0  0  0
  8  7  2  0  0  0  0
  9  1  1  0  0  0  0
  9  7  1  0  0  0  0
 10  9  1  0  0  0  0
 11 16  1  0  0  0  0
 11 22  1  0  0  0  0
 12 11  2  0  0  0  0
 13 14  2  0  0  0  0
 13 12  1  0  0  0  0
 14 15  1  0  0  0  0
 15 16  2  0  0  0  0
 16 17  1  0  0  0  0
 17 20  1  0  0  0  0
 17 19  1  0  0  0  0
 17 18  1  0  0  0  0
 21 22  1  0  0  0  0
 23 24  1  0  0  0  0
 23  5  1  0  0  0  0
 24 25  1  0  0  0  0
 26 24  1  0  0  0  0
 26 35  1  0  0  0  0
 27 26  2  0  0  0  0
 28 27  1  0  0  0  0
 28 29  2  0  0  0  0
 29 30  1  0  0  0  0
 30 35  2  0  0  0  0
 30 31  1  0  0  0  0
 31 32  2  0  0  0  0
 32 33  1  0  0  0  0
 34 33  2  0  0  0  0
 35 34  1  0  0  0  0
 36 38  2  0  0  0  0
 36 31  1  0  0  0  0
 37 36  1  0  0  0  0
 39 37  1  0  0  0  0
 40 37  1  0  0  0  0
M  END
>  <minimizedAffinity>
-7.0761857

$$$$

 OpenBabel10152418323D

 40 43  0  0  0  0  0  0  0  0999 V2000
    4.6540  -10.4860  -27.3110 C   0  0  0  0  0  0  0  0  0  0  0  0
    4.4210  -11.2210  -28.4730 C   0  0  0  0  0  3  0  0  0  0  0  0
    3.9270  -10.5790  -29.6020 C   0  0  0  0  0  3  0  0  0  0  0  0
    3.7010   -9.2020  -29.5780 C   0  0  0  0  0  3  0  0  0  0  0  0
    4.0480   -8.4200  -28.4670 C   0  0  0  0  0  0  0  0  0  0  0  0
    4.5510   -9.0860  -27.3400 C   0  0  0  0  0  3  0  0  0  0  0  0
    4.0430  -11.5640  -25.1150 C   0  0  0  0  0  0  0  0  0  0  0  0
    4.4680  -12.0380  -24.0650 O   0  0  0  0  0  0  0  0  0  0  0  0
    4.9100  -11.2110  -26.1330 N   0  0  0  0  0  0  0  0  0  0  0  0
    5.8300  -11.6220  -26.0240 H   0  0  0  0  0  0  0  0  0  0  0  0
   -0.2020  -11.5730  -25.5580 C   0  0  0  0  0  0  0  0  0  0  0  0
    0.6250  -12.0280  -26.5950 C   0  0  0  0  0  3  0  0  0  0  0  0
    2.0120  -11.9670  -26.4760 C   0  0  0  0  0  3  0  0  0  0  0  0
    2.5760  -11.4510  -25.3110 C   0  0  0  0  0  0  0  0  0  0  0  0
    1.7500  -10.9140  -24.3110 C   0  0  0  0  0  3  0  0  0  0  0  0
    0.3500  -11.0280  -24.3920 C   0  0  0  0  0  0  0  0  0  0  0  0
   -0.4880  -10.6330  -23.2040 C   0  0  0  0  0  0  0  0  0  0  0  0
   -0.4750  -11.5550  -22.2020 F   0  0  0  0  0  0  0  0  0  0  0  0
   -0.0790   -9.4670  -22.6220 F   0  0  0  0  0  0  0  0  0  0  0  0
   -1.7960  -10.4350  -23.5260 F   0  0  0  0  0  0  0  0  0  0  0  0
   -2.2500  -10.7780  -26.3670 C   0  0  0  0  0  1  0  0  0  0  0  0
   -1.5360  -11.8290  -25.7190 O   0  0  0  0  0  0  0  0  0  0  0  0
    3.7880   -6.9180  -28.4200 C   0  0  0  0  0  2  0  0  0  0  0  0
    2.6230   -6.5300  -29.1950 N   0  0  0  0  0  0  0  0  0  0  0  0
    2.4630   -6.9650  -30.0880 H   0  0  0  0  0  0  0  0  0  0  0  0
    1.6230   -5.7960  -28.5740 C   0  0  0  0  0  0  0  0  0  0  0  0
    1.5790   -4.4820  -28.8550 N   0  0  0  0  0  0  0  0  0  0  0  0
    0.8900   -3.7090  -28.0190 C   0  0  0  0  0  3  0  0  0  0  0  0
    0.3240   -4.1150  -26.8810 N   0  0  0  0  0  0  0  0  0  0  0  0
    0.3280   -5.4370  -26.6200 C   0  0  0  0  0  0  0  0  0  0  0  0
   -0.1890   -5.9490  -25.4260 C   0  0  0  0  0  0  0  0  0  0  0  0
   -0.2880   -7.3220  -25.1590 C   0  0  0  0  0  3  0  0  0  0  0  0
    0.2000   -8.2310  -26.0820 C   0  0  0  0  0  3  0  0  0  0  0  0
    0.8250   -7.7520  -27.2300 C   0  0  0  0  0  3  0  0  0  0  0  0
    0.9050   -6.3600  -27.5030 C   0  0  0  0  0  0  0  0  0  0  0  0
   -0.5150   -5.0420  -24.3120 C   0  0  0  0  0  0  0  0  0  0  0  0
   -0.2760   -5.5500  -23.0640 N   0  0  0  0  0  0  0  0  0  0  0  0
   -1.0700   -3.9670  -24.4940 O   0  0  0  0  0  0  0  0  0  0  0  0
   -0.5170   -4.9860  -22.2610 H   0  0  0  0  0  0  0  0  0  0  0  0
    0.1560   -6.4520  -22.9150 H   0  0  0  0  0  0  0  0  0  0  0  0
  1  9  1  0  0  0  0
  2  1  2  0  0  0  0
  3  4  2  0  0  0  0
  3  2  1  0  0  0  0
  4  5  1  0  0  0  0
  5 23  1  0  0  0  0
  5  6  2  0  0  0  0
  6  1  1  0  0  0  0
  7  8  2  0  0  0  0
  9 10  1  0  0  0  0
  9  7  1  0  0  0  0
 11 16  1  0  0  0  0
 12 13  1  0  0  0  0
 12 11  2  0  0  0  0
 13 14  2  0  0  0  0
 14  7  1  0  0  0  0
 14 15  1  0  0  0  0
 16 15  2  0  0  0  0
 16 17  1  0  0  0  0
 17 19  1  0  0  0  0
 17 18  1  0  0  0  0
 20 17  1  0  0  0  0
 21 22  1  0  0  0  0
 22 11  1  0  0  0  0
 24 26  1  0  0  0  0
 24 23  1  0  0  0  0
 25 24  1  0  0  0  0
 26 35  1  0  0  0  0
 27 26  2  0  0  0  0
 27 28  1  0  0  0  0
 28 29  2  0  0  0  0
 29 30  1  0  0  0  0
 30 31  1  0  0  0  0
 31 32  2  0  0  0  0
 31 36  1  0  0  0  0
 33 32  1  0  0  0  0
 34 33  2  0  0  0  0
 35 34  1  0  0  0  0
 35 30  2  0  0  0  0
 36 37  1  0  0  0  0
 37 40  1  0  0  0  0
 37 39  1  0  0  0  0
 38 36  2  0  0  0  0
M  END
>  <minimizedAffinity>
-6.59495687

$$$$

 OpenBabel10152418323D

 40 43  0  0  0  0  0  0  0  0999 V2000
    0.7050  -10.7520  -26.1840 C   0  0  0  0  0  0  0  0  0  0  0  0
    1.1670  -11.8720  -25.4920 C   0  0  0  0  0  3  0  0  0  0  0  0
    2.5320  -12.0390  -25.2930 C   0  0  0  0  0  3  0  0  0  0  0  0
    3.4270  -11.0720  -25.7530 C   0  0  0  0  0  3  0  0  0  0  0  0
    2.9820   -9.8760  -26.3350 C   0  0  0  0  0  0  0  0  0  0  0  0
    1.6000   -9.7250  -26.5210 C   0  0  0  0  0  3  0  0  0  0  0  0
   -1.7810  -10.9640  -25.8190 C   0  0  0  0  0  0  0  0  0  0  0  0
   -2.8750  -11.1160  -26.3550 O   0  0  0  0  0  0  0  0  0  0  0  0
   -0.6450  -10.7530  -26.5780 N   0  0  0  0  0  0  0  0  0  0  0  0
   -0.8560  -10.4790  -27.5320 H   0  0  0  0  0  0  0  0  0  0  0  0
   -1.2220  -10.7680  -21.5920 C   0  0  0  0  0  0  0  0  0  0  0  0
   -0.9620  -11.9550  -22.2920 C   0  0  0  0  0  3  0  0  0  0  0  0
   -1.2040  -12.0390  -23.6620 C   0  0  0  0  0  3  0  0  0  0  0  0
   -1.7050  -10.9280  -24.3360 C   0  0  0  0  0  0  0  0  0  0  0  0
   -2.0490   -9.7690  -23.6210 C   0  0  0  0  0  3  0  0  0  0  0  0
   -1.7510   -9.6510  -22.2510 C   0  0  0  0  0  0  0  0  0  0  0  0
   -1.9390   -8.3200  -21.5720 C   0  0  0  0  0  0  0  0  0  0  0  0
   -2.2280   -8.4250  -20.2460 F   0  0  0  0  0  0  0  0  0  0  0  0
   -0.8300   -7.5240  -21.6350 F   0  0  0  0  0  0  0  0  0  0  0  0
   -2.9420   -7.5840  -22.1260 F   0  0  0  0  0  0  0  0  0  0  0  0
   -0.8140  -12.0330  -19.6640 C   0  0  0  0  0  1  0  0  0  0  0  0
   -0.7980  -10.7520  -20.2910 O   0  0  0  0  0  0  0  0  0  0  0  0
    3.9490   -8.8210  -26.8590 C   0  0  0  0  0  2  0  0  0  0  0  0
    3.5720   -7.4750  -26.4630 N   0  0  0  0  0  0  0  0  0  0  0  0
    4.1980   -6.9440  -25.8810 H   0  0  0  0  0  0  0  0  0  0  0  0
    2.5150   -6.8580  -27.1160 C   0  0  0  0  0  0  0  0  0  0  0  0
    2.7320   -6.4850  -28.3900 N   0  0  0  0  0  0  0  0  0  0  0  0
    1.8950   -5.5880  -28.9060 C   0  0  0  0  0  3  0  0  0  0  0  0
    0.9240   -4.9640  -28.2380 N   0  0  0  0  0  0  0  0  0  0  0  0
    0.6770   -5.3670  -26.9760 C   0  0  0  0  0  0  0  0  0  0  0  0
   -0.2810   -4.7330  -26.1780 C   0  0  0  0  0  0  0  0  0  0  0  0
   -0.6330   -5.1820  -24.8980 C   0  0  0  0  0  3  0  0  0  0  0  0
    0.0320   -6.2670  -24.3520 C   0  0  0  0  0  3  0  0  0  0  0  0
    1.0700   -6.8510  -25.0720 C   0  0  0  0  0  3  0  0  0  0  0  0
    1.4080   -6.4030  -26.3770 C   0  0  0  0  0  0  0  0  0  0  0  0
   -0.8620   -3.4470  -26.6010 C   0  0  0  0  0  0  0  0  0  0  0  0
   -0.0110   -2.6290  -27.2940 N   0  0  0  0  0  0  0  0  0  0  0  0
   -1.9800   -3.0940  -26.2500 O   0  0  0  0  0  0  0  0  0  0  0  0
   -0.3440   -1.7170  -27.5750 H   0  0  0  0  0  0  0  0  0  0  0  0
    0.9240   -2.9110  -27.5570 H   0  0  0  0  0  0  0  0  0  0  0  0
  1  2  1  0  0  0  0
  2  3  2  0  0  0  0
  4  3  1  0  0  0  0
  5  4  2  0  0  0  0
  6  5  1  0  0  0  0
  6  1  2  0  0  0  0
  7 14  1  0  0  0  0
  8  7  2  0  0  0  0
  9  1  1  0  0  0  0
  9  7  1  0  0  0  0
 10  9  1  0  0  0  0
 11 22  1  0  0  0  0
 12 11  2  0  0  0  0
 13 12  1  0  0  0  0
 14 13  2  0  0  0  0
 14 15  1  0  0  0  0
 15 16  2  0  0  0  0
 16 11  1  0  0  0  0
 16 17  1  0  0  0  0
 17 18  1  0  0  0  0
 19 17  1  0  0  0  0
 20 17  1  0  0  0  0
 22 21  1  0  0  0  0
 23 24  1  0  0  0  0
 23  5  1  0  0  0  0
 24 25  1  0  0  0  0
 26 24  1  0  0  0  0
 26 35  1  0  0  0  0
 27 26  2  0  0  0  0
 28 27  1  0  0  0  0
 28 29  2  0  0  0  0
 29 30  1  0  0  0  0
 30 35  2  0  0  0  0
 30 31  1  0  0  0  0
 31 32  2  0  0  0  0
 32 33  1  0  0  0  0
 34 33  2  0  0  0  0
 35 34  1  0  0  0  0
 36 38  2  0  0  0  0
 36 31  1  0  0  0  0
 37 36  1  0  0  0  0
 39 37  1  0  0  0  0
 40 37  1  0  0  0  0
M  END
>  <minimizedAffinity>
-6.20688152

$$$$

 OpenBabel10152418323D

 40 43  0  0  0  0  0  0  0  0999 V2000
    3.0940   -7.7070  -27.9970 C   0  0  0  0  0  0  0  0  0  0  0  0
    4.0480   -7.4930  -27.0020 C   0  0  0  0  0  3  0  0  0  0  0  0
    4.1750   -8.4120  -25.9660 C   0  0  0  0  0  3  0  0  0  0  0  0
    3.3750   -9.5550  -25.9460 C   0  0  0  0  0  3  0  0  0  0  0  0
    2.5010   -9.8590  -27.0010 C   0  0  0  0  0  0  0  0  0  0  0  0
    2.3930   -8.9230  -28.0390 C   0  0  0  0  0  3  0  0  0  0  0  0
    1.8040   -5.7140  -28.8450 C   0  0  0  0  0  0  0  0  0  0  0  0
    1.6130   -4.9590  -29.7940 O   0  0  0  0  0  0  0  0  0  0  0  0
    2.8310   -6.6390  -28.8740 N   0  0  0  0  0  0  0  0  0  0  0  0
    3.5200   -6.4380  -29.5900 H   0  0  0  0  0  0  0  0  0  0  0  0
   -0.3260   -5.1260  -25.1940 C   0  0  0  0  0  0  0  0  0  0  0  0
    0.4600   -6.2700  -25.3840 C   0  0  0  0  0  3  0  0  0  0  0  0
    1.1060   -6.4940  -26.6000 C   0  0  0  0  0  3  0  0  0  0  0  0
    0.9660   -5.5650  -27.6280 C   0  0  0  0  0  0  0  0  0  0  0  0
    0.1080   -4.4660  -27.4690 C   0  0  0  0  0  3  0  0  0  0  0  0
   -0.4970   -4.1960  -26.2280 C   0  0  0  0  0  0  0  0  0  0  0  0
   -1.2350   -2.8960  -26.0380 C   0  0  0  0  0  0  0  0  0  0  0  0
   -1.2620   -2.4730  -24.7450 F   0  0  0  0  0  0  0  0  0  0  0  0
   -0.6880   -1.8610  -26.7420 F   0  0  0  0  0  0  0  0  0  0  0  0
   -2.5320   -2.9640  -26.4470 F   0  0  0  0  0  0  0  0  0  0  0  0
   -0.2980   -5.9000  -22.9840 C   0  0  0  0  0  1  0  0  0  0  0  0
   -0.7770   -4.9320  -23.9160 O   0  0  0  0  0  0  0  0  0  0  0  0
    1.6080  -11.0940  -26.9830 C   0  0  0  0  0  2  0  0  0  0  0  0
    1.0460  -11.3560  -25.6700 N   0  0  0  0  0  0  0  0  0  0  0  0
    1.6040  -11.8390  -24.9860 H   0  0  0  0  0  0  0  0  0  0  0  0
   -0.1170  -10.6960  -25.2980 C   0  0  0  0  0  0  0  0  0  0  0  0
   -0.5260   -9.7000  -26.1030 N   0  0  0  0  0  0  0  0  0  0  0  0
   -1.3990   -8.8340  -25.5950 C   0  0  0  0  0  3  0  0  0  0  0  0
   -1.8250   -8.8190  -24.3310 N   0  0  0  0  0  0  0  0  0  0  0  0
   -1.4510   -9.8400  -23.5350 C   0  0  0  0  0  0  0  0  0  0  0  0
   -1.8000   -9.8800  -22.1810 C   0  0  0  0  0  0  0  0  0  0  0  0
   -1.5120  -10.9680  -21.3460 C   0  0  0  0  0  3  0  0  0  0  0  0
   -0.7940  -12.0390  -21.8480 C   0  0  0  0  0  3  0  0  0  0  0  0
   -0.3320  -11.9820  -23.1600 C   0  0  0  0  0  3  0  0  0  0  0  0
   -0.6440  -10.8840  -24.0070 C   0  0  0  0  0  0  0  0  0  0  0  0
   -2.3610   -8.6850  -21.5270 C   0  0  0  0  0  0  0  0  0  0  0  0
   -3.3930   -8.0880  -22.1990 N   0  0  0  0  0  0  0  0  0  0  0  0
   -1.8580   -8.2000  -20.5220 O   0  0  0  0  0  0  0  0  0  0  0  0
   -3.7910   -7.2420  -21.8170 H   0  0  0  0  0  0  0  0  0  0  0  0
   -3.7880   -8.4740  -23.0460 H   0  0  0  0  0  0  0  0  0  0  0  0
  1  2  1  0  0  0  0
  2  3  2  0  0  0  0
  3  4  1  0  0  0  0
  5 23  1  0  0  0  0
  5  4  2  0  0  0  0
  6  1  2  0  0  0  0
  6  5  1  0  0  0  0
  7 14  1  0  0  0  0
  8  7  2  0  0  0  0
  9  7  1  0  0  0  0
  9  1  1  0  0  0  0
 10  9  1  0  0  0  0
 11 22  1  0  0  0  0
 12 11  1  0  0  0  0
 13 12  2  0  0  0  0
 14 15  2  0  0  0  0
 14 13  1  0  0  0  0
 15 16  1  0  0  0  0
 16 17  1  0  0  0  0
 16 11  2  0  0  0  0
 17 18  1  0  0  0  0
 19 17  1  0  0  0  0
 20 17  1  0  0  0  0
 22 21  1  0  0  0  0
 23 24  1  0  0  0  0
 24 26  1  0  0  0  0
 24 25  1  0  0  0  0
 26 35  1  0  0  0  0
 27 28  1  0  0  0  0
 27 26  2  0  0  0  0
 28 29  2  0  0  0  0
 29 30  1  0  0  0  0
 30 31  1  0  0  0  0
 31 36  1  0  0  0  0
 31 32  2  0  0  0  0
 33 32  1  0  0  0  0
 34 33  2  0  0  0  0
 35 30  2  0  0  0  0
 35 34  1  0  0  0  0
 36 38  2  0  0  0  0
 37 39  1  0  0  0  0
 37 36  1  0  0  0  0
 40 37  1  0  0  0  0
M  END
>  <minimizedAffinity>
-5.9297533

$$$$

 OpenBabel10152418323D

 40 43  0  0  0  0  0  0  0  0999 V2000
   -0.6120   -4.6600  -24.8120 C   0  0  0  0  0  0  0  0  0  0  0  0
   -1.1750   -3.4510  -25.2200 C   0  0  0  0  0  3  0  0  0  0  0  0
   -1.0160   -3.0300  -26.5350 C   0  0  0  0  0  3  0  0  0  0  0  0
   -0.3260   -3.8310  -27.4450 C   0  0  0  0  0  3  0  0  0  0  0  0
    0.1380   -5.1080  -27.0950 C   0  0  0  0  0  0  0  0  0  0  0  0
   -0.0390   -5.5170  -25.7650 C   0  0  0  0  0  3  0  0  0  0  0  0
   -1.0080   -6.0380  -22.7380 C   0  0  0  0  0  0  0  0  0  0  0  0
   -1.0810   -6.0270  -21.5130 O   0  0  0  0  0  0  0  0  0  0  0  0
   -0.5810   -4.9200  -23.4300 N   0  0  0  0  0  0  0  0  0  0  0  0
   -0.1060   -4.2490  -22.8360 H   0  0  0  0  0  0  0  0  0  0  0  0
   -1.5330   -9.6520  -24.9460 C   0  0  0  0  0  0  0  0  0  0  0  0
   -1.7500   -8.4070  -25.5540 C   0  0  0  0  0  3  0  0  0  0  0  0
   -1.6410   -7.2290  -24.8170 C   0  0  0  0  0  3  0  0  0  0  0  0
   -1.3070   -7.2970  -23.4660 C   0  0  0  0  0  0  0  0  0  0  0  0
   -1.1780   -8.5460  -22.8370 C   0  0  0  0  0  3  0  0  0  0  0  0
   -1.2240   -9.7380  -23.5830 C   0  0  0  0  0  0  0  0  0  0  0  0
   -0.8680  -11.0380  -22.9100 C   0  0  0  0  0  0  0  0  0  0  0  0
    0.3680  -11.5000  -23.2440 F   0  0  0  0  0  0  0  0  0  0  0  0
   -0.8630  -10.9530  -21.5470 F   0  0  0  0  0  0  0  0  0  0  0  0
   -1.7430  -12.0380  -23.2050 F   0  0  0  0  0  0  0  0  0  0  0  0
   -0.4940  -10.6430  -26.7960 C   0  0  0  0  0  1  0  0  0  0  0  0
   -1.5110  -10.7220  -25.7990 O   0  0  0  0  0  0  0  0  0  0  0  0
    0.9100   -5.9860  -28.0730 C   0  0  0  0  0  2  0  0  0  0  0  0
    2.3330   -5.6980  -28.0770 N   0  0  0  0  0  0  0  0  0  0  0  0
    2.6400   -4.7510  -27.9340 H   0  0  0  0  0  0  0  0  0  0  0  0
    3.2280   -6.7540  -27.9920 C   0  0  0  0  0  0  0  0  0  0  0  0
    4.0670   -6.9160  -29.0310 N   0  0  0  0  0  0  0  0  0  0  0  0
    4.6640   -8.1000  -29.1460 C   0  0  0  0  0  3  0  0  0  0  0  0
    4.4270   -9.1620  -28.3740 N   0  0  0  0  0  0  0  0  0  0  0  0
    3.6210   -8.9900  -27.3080 C   0  0  0  0  0  0  0  0  0  0  0  0
    3.2690  -10.0580  -26.4760 C   0  0  0  0  0  0  0  0  0  0  0  0
    2.5120   -9.9030  -25.3070 C   0  0  0  0  0  3  0  0  0  0  0  0
    2.0280   -8.6500  -24.9720 C   0  0  0  0  0  3  0  0  0  0  0  0
    2.2640   -7.5860  -25.8370 C   0  0  0  0  0  3  0  0  0  0  0  0
    3.0480   -7.7470  -27.0110 C   0  0  0  0  0  0  0  0  0  0  0  0
    3.5550  -11.4430  -26.8900 C   0  0  0  0  0  0  0  0  0  0  0  0
    4.7270  -11.9600  -26.4090 N   0  0  0  0  0  0  0  0  0  0  0  0
    2.8530  -12.0350  -27.7000 O   0  0  0  0  0  0  0  0  0  0  0  0
    4.9930  -12.8930  -26.6930 H   0  0  0  0  0  0  0  0  0  0  0  0
    5.3200  -11.4570  -25.7640 H   0  0  0  0  0  0  0  0  0  0  0  0
  1  9  1  0  0  0  0
  2  1  1  0  0  0  0
  3  2  2  0  0  0  0
  4  5  2  0  0  0  0
  4  3  1  0  0  0  0
  5  6  1  0  0  0  0
  6  1  2  0  0  0  0
  7  8  2  0  0  0  0
  9 10  1  0  0  0  0
  9  7  1  0  0  0  0
 11 16  1  0  0  0  0
 12 11  2  0  0  0  0
 12 13  1  0  0  0  0
 13 14  2  0  0  0  0
 14 15  1  0  0  0  0
 14  7  1  0  0  0  0
 16 17  1  0  0  0  0
 16 15  2  0  0  0  0
 17 19  1  0  0  0  0
 18 17  1  0  0  0  0
 20 17  1  0  0  0  0
 21 22  1  0  0  0  0
 22 11  1  0  0  0  0
 23  5  1  0  0  0  0
 24 23  1  0  0  0  0
 24 26  1  0  0  0  0
 24 25  1  0  0  0  0
 26 35  1  0  0  0  0
 27 26  2  0  0  0  0
 28 27  1  0  0  0  0
 28 29  2  0  0  0  0
 29 30  1  0  0  0  0
 30 35  2  0  0  0  0
 30 31  1  0  0  0  0
 31 32  2  0  0  0  0
 32 33  1  0  0  0  0
 34 33  2  0  0  0  0
 35 34  1  0  0  0  0
 36 31  1  0  0  0  0
 36 37  1  0  0  0  0
 37 40  1  0  0  0  0
 38 36  2  0  0  0  0
 39 37  1  0  0  0  0
M  END
>  <minimizedAffinity>
-5.57782555

$$$$
