
 OpenBabel11232419423D

 39 44  0  0  1  0  0  0  0  0999 V2000
   58.7720  -42.7590   17.2480 C   0  0  0  0  0  0  0  0  0  0  0  0
   58.4200  -42.3740   18.5060 N   0  0  0  0  0  0  0  0  0  0  0  0
   57.1200  -42.4320   18.8590 C   0  0  0  0  0  0  0  0  0  0  0  0
   56.8240  -42.0180   20.2300 C   0  0  0  0  0  3  0  0  0  0  0  0
   55.5650  -42.0400   20.6860 C   0  0  0  0  0  3  0  0  0  0  0  0
   54.5110  -42.4530   19.8370 C   0  0  0  0  0  0  0  0  0  0  0  0
   53.2220  -42.5420   20.0700 N   0  0  0  0  0  0  0  0  0  0  0  0
   52.6190  -42.9760   18.9270 N   0  0  0  0  0  0  0  0  0  0  0  0
   53.5440  -43.1490   17.9990 C   0  0  0  0  0  0  0  0  0  0  0  0
   54.7850  -42.8440   18.5280 N   0  0  0  0  0  0  0  0  0  0  0  0
   56.1050  -42.8570   18.0050 C   0  0  0  0  0  0  0  0  0  0  0  0
   56.4680  -43.2660   16.7270 C   0  0  0  0  0  3  0  0  0  0  0  0
   57.8210  -43.2310   16.3190 C   0  0  0  0  0  0  0  0  0  0  0  0
   58.1550  -43.7180   14.9690 C   0  0  0  0  0  0  0  0  0  0  0  0
   57.7520  -43.0000   13.8290 C   0  0  0  0  0  3  0  0  0  0  0  0
   58.0580  -43.4610   12.5460 C   0  0  0  0  0  3  0  0  0  0  0  0
   58.7650  -44.6490   12.3830 C   0  0  0  0  0  3  0  0  0  0  0  0
   59.1640  -45.3790   13.5000 C   0  0  0  0  0  3  0  0  0  0  0  0
   58.8590  -44.9190   14.7830 C   0  0  0  0  0  3  0  0  0  0  0  0
   63.0520  -42.3870   16.3820 C   0  0  0  0  0  0  0  0  0  0  0  0
   62.0490  -41.9050   15.5200 C   0  0  0  0  0  3  0  0  0  0  0  0
   60.6810  -42.0170   15.8130 C   0  0  0  0  0  3  0  0  0  0  0  0
   60.2250  -42.6180   16.9930 C   0  0  0  0  0  0  0  0  0  0  0  0
   61.2050  -43.1000   17.8660 C   0  0  0  0  0  3  0  0  0  0  0  0
   62.5740  -42.9660   17.5810 C   0  0  0  0  0  3  0  0  0  0  0  0
   66.4460  -41.9910   13.0890 C   0  0  0  0  0  1  0  0  0  0  0  0
   65.1910  -42.1200   13.9400 C   0  0  2  0  0  0  0  0  0  0  0  0
   65.0780  -41.1100   15.1150 C   0  0  0  0  0  2  0  0  0  0  0  0
   64.6160  -42.2820   16.0300 C   0  0  2  0  0  0  0  0  0  0  0  0
   65.2650  -43.2530   14.9970 C   0  0  0  0  0  2  0  0  0  0  0  0
   65.3860  -42.3250   17.3010 N   0  0  0  0  0  4  0  0  0  0  0  0
   65.0800  -43.1230   17.8770 H   0  0  0  0  0  0  0  0  0  0  0  0
   66.3980  -42.4250   17.1560 H   0  0  0  0  0  0  0  0  0  0  0  0
   65.2440  -41.4780   17.8610 H   0  0  0  0  0  0  0  0  0  0  0  0
   64.0320  -42.1940   13.0910 O   0  0  0  0  0  0  0  0  0  0  0  0
   64.1000  -41.4590   12.4520 H   0  0  0  0  0  0  0  0  0  0  0  0
   53.2490  -43.5770   16.6190 C   0  0  0  0  0  3  0  0  0  0  0  0
   53.7320  -42.6900   15.7060 F   0  0  0  0  0  0  0  0  0  0  0  0
   53.8250  -44.7760   16.3340 F   0  0  0  0  0  0  0  0  0  0  0  0
  1  2  1  0  0  0  0
  2  3  2  0  0  0  0
  3  4  1  0  0  0  0
  4  5  2  0  0  0  0
  6  7  2  0  0  0  0
  6  5  1  0  0  0  0
  8  7  1  0  0  0  0
  9 10  1  0  0  0  0
  9  8  2  0  0  0  0
 10  6  1  0  0  0  0
 11 10  1  0  0  0  0
 11  3  1  0  0  0  0
 12 11  2  0  0  0  0
 13 12  1  0  0  0  0
 13  1  2  0  0  0  0
 14 13  1  0  0  0  0
 15 14  2  0  0  0  0
 16 15  1  0  0  0  0
 17 16  2  0  0  0  0
 17 18  1  0  0  0  0
 18 19  2  0  0  0  0
 19 14  1  0  0  0  0
 20 25  1  0  0  0  0
 21 22  1  0  0  0  0
 21 20  2  0  0  0  0
 22 23  2  0  0  0  0
 23  1  1  0  0  0  0
 23 24  1  0  0  0  0
 25 24  2  0  0  0  0
 27 26  1  6  0  0  0
 27 30  1  0  0  0  0
 27 28  1  0  0  0  0
 28 29  1  0  0  0  0
 29 20  1  0  0  0  0
 29 31  1  1  0  0  0
 30 29  1  0  0  0  0
 31 34  1  0  0  0  0
 31 32  1  0  0  0  0
 33 31  1  0  0  0  0
 35 27  1  0  0  0  0
 36 35  1  0  0  0  0
 37  9  1  0  0  0  0
 38 37  1  0  0  0  0
 39 37  1  0  0  0  0
M  END
>  <minimizedAffinity>
-2.88095975

$$$$
