
 OpenBabel11232419423D

 39 44  0  0  1  0  0  0  0  0999 V2000
   60.3440  -42.5590   17.2240 C   0  0  0  0  0  0  0  0  0  0  0  0
   61.2270  -42.4360   18.2540 N   0  0  0  0  0  0  0  0  0  0  0  0
   62.5270  -42.7120   18.0250 C   0  0  0  0  0  0  0  0  0  0  0  0
   63.4150  -42.5410   19.1740 C   0  0  0  0  0  3  0  0  0  0  0  0
   64.7270  -42.7840   19.0560 C   0  0  0  0  0  3  0  0  0  0  0  0
   65.2590  -43.2190   17.8190 C   0  0  0  0  0  0  0  0  0  0  0  0
   66.4930  -43.5180   17.4870 N   0  0  0  0  0  0  0  0  0  0  0  0
   66.4930  -43.9020   16.1790 N   0  0  0  0  0  0  0  0  0  0  0  0
   65.2570  -43.8370   15.7170 C   0  0  0  0  0  0  0  0  0  0  0  0
   64.4180  -43.3880   16.7220 N   0  0  0  0  0  0  0  0  0  0  0  0
   63.0240  -43.1250   16.7910 C   0  0  0  0  0  0  0  0  0  0  0  0
   62.1240  -43.2320   15.7370 C   0  0  0  0  0  3  0  0  0  0  0  0
   60.7540  -42.9440   15.9310 C   0  0  0  0  0  0  0  0  0  0  0  0
   59.8510  -43.0310   14.7690 C   0  0  0  0  0  0  0  0  0  0  0  0
   58.6090  -42.3730   14.7770 C   0  0  0  0  0  3  0  0  0  0  0  0
   57.7450  -42.4590   13.6820 C   0  0  0  0  0  3  0  0  0  0  0  0
   58.1070  -43.2080   12.5660 C   0  0  0  0  0  3  0  0  0  0  0  0
   59.3300  -43.8750   12.5440 C   0  0  0  0  0  3  0  0  0  0  0  0
   60.1940  -43.7890   13.6380 C   0  0  0  0  0  3  0  0  0  0  0  0
   56.1860  -41.7170   18.3240 C   0  0  0  0  0  0  0  0  0  0  0  0
   56.6710  -43.0180   18.0930 C   0  0  0  0  0  3  0  0  0  0  0  0
   58.0080  -43.2780   17.7540 C   0  0  0  0  0  3  0  0  0  0  0  0
   58.9510  -42.2510   17.6270 C   0  0  0  0  0  0  0  0  0  0  0  0
   58.4910  -40.9500   17.8570 C   0  0  0  0  0  3  0  0  0  0  0  0
   57.1580  -40.6950   18.2190 C   0  0  0  0  0  3  0  0  0  0  0  0
   52.6240  -38.5960   18.6370 C   0  0  0  0  0  1  0  0  0  0  0  0
   53.9110  -39.3890   18.4600 C   0  0  2  0  0  0  0  0  0  0  0  0
   53.7800  -40.6890   17.6190 C   0  0  0  0  0  2  0  0  0  0  0  0
   54.6480  -41.4210   18.6840 C   0  0  2  0  0  0  0  0  0  0  0  0
   54.2690  -40.2810   19.6770 C   0  0  0  0  0  2  0  0  0  0  0  0
   54.0190  -42.6930   19.1290 N   0  0  0  0  0  4  0  0  0  0  0  0
   54.5990  -43.1450   19.8510 H   0  0  0  0  0  0  0  0  0  0  0  0
   53.0830  -42.5620   19.5290 H   0  0  0  0  0  0  0  0  0  0  0  0
   53.9240  -43.3610   18.3560 H   0  0  0  0  0  0  0  0  0  0  0  0
   54.9730  -38.5090   18.0530 O   0  0  0  0  0  0  0  0  0  0  0  0
   54.6340  -37.9790   17.3060 H   0  0  0  0  0  0  0  0  0  0  0  0
   64.8750  -44.2180   14.3450 C   0  0  0  0  0  3  0  0  0  0  0  0
   63.7480  -44.9820   14.3340 F   0  0  0  0  0  0  0  0  0  0  0  0
   64.6070  -43.1250   13.5800 F   0  0  0  0  0  0  0  0  0  0  0  0
  1 23  1  0  0  0  0
  1  2  1  0  0  0  0
  3  2  2  0  0  0  0
  3  4  1  0  0  0  0
  5  4  2  0  0  0  0
  6  5  1  0  0  0  0
  7  6  2  0  0  0  0
  8  7  1  0  0  0  0
  9  8  2  0  0  0  0
  9 10  1  0  0  0  0
 10 11  1  0  0  0  0
 10  6  1  0  0  0  0
 11  3  1  0  0  0  0
 12 13  1  0  0  0  0
 12 11  2  0  0  0  0
 13  1  2  0  0  0  0
 14 15  1  0  0  0  0
 14 13  1  0  0  0  0
 16 15  2  0  0  0  0
 17 16  1  0  0  0  0
 18 17  2  0  0  0  0
 18 19  1  0  0  0  0
 19 14  2  0  0  0  0
 20 29  1  0  0  0  0
 21 20  2  0  0  0  0
 22 21  1  0  0  0  0
 23 22  2  0  0  0  0
 23 24  1  0  0  0  0
 24 25  2  0  0  0  0
 25 20  1  0  0  0  0
 27 26  1  1  0  0  0
 27 30  1  0  0  0  0
 28 27  1  0  0  0  0
 28 29  1  0  0  0  0
 29 31  1  1  0  0  0
 29 30  1  0  0  0  0
 31 33  1  0  0  0  0
 31 32  1  0  0  0  0
 34 31  1  0  0  0  0
 35 27  1  0  0  0  0
 36 35  1  0  0  0  0
 37  9  1  0  0  0  0
 38 37  1  0  0  0  0
 39 37  1  0  0  0  0
M  END
>  <minimizedAffinity>
-2.86072612

$$$$
