
 OpenBabel11232419423D

 39 44  0  0  1  0  0  0  0  0999 V2000
   60.0990  -42.7900   16.3430 C   0  0  0  0  0  0  0  0  0  0  0  0
   60.6450  -43.7340   15.5280 N   0  0  0  0  0  0  0  0  0  0  0  0
   61.9600  -44.0070   15.6470 C   0  0  0  0  0  0  0  0  0  0  0  0
   62.4690  -45.0440   14.7500 C   0  0  0  0  0  3  0  0  0  0  0  0
   63.7600  -45.3960   14.7870 C   0  0  0  0  0  3  0  0  0  0  0  0
   64.6440  -44.7570   15.6890 C   0  0  0  0  0  0  0  0  0  0  0  0
   65.9290  -44.9370   15.8850 N   0  0  0  0  0  0  0  0  0  0  0  0
   66.3300  -44.0660   16.8540 N   0  0  0  0  0  0  0  0  0  0  0  0
   65.2870  -43.3560   17.2450 C   0  0  0  0  0  0  0  0  0  0  0  0
   64.1670  -43.7650   16.5430 N   0  0  0  0  0  0  0  0  0  0  0  0
   62.8030  -43.3710   16.5550 C   0  0  0  0  0  0  0  0  0  0  0  0
   62.2400  -42.4190   17.3980 C   0  0  0  0  0  3  0  0  0  0  0  0
   60.8630  -42.1090   17.3130 C   0  0  0  0  0  0  0  0  0  0  0  0
   60.3100  -41.1250   18.2610 C   0  0  0  0  0  0  0  0  0  0  0  0
   60.3480  -39.7510   17.9690 C   0  0  0  0  0  3  0  0  0  0  0  0
   59.8340  -38.8120   18.8670 C   0  0  0  0  0  3  0  0  0  0  0  0
   59.2800  -39.2330   20.0730 C   0  0  0  0  0  3  0  0  0  0  0  0
   59.2430  -40.5900   20.3850 C   0  0  0  0  0  3  0  0  0  0  0  0
   59.7570  -41.5290   19.4870 C   0  0  0  0  0  3  0  0  0  0  0  0
   55.8600  -42.0860   15.4800 C   0  0  0  0  0  0  0  0  0  0  0  0
   56.7940  -42.4600   14.4940 C   0  0  0  0  0  3  0  0  0  0  0  0
   58.1460  -42.6970   14.7830 C   0  0  0  0  0  3  0  0  0  0  0  0
   58.6560  -42.5760   16.0820 C   0  0  0  0  0  0  0  0  0  0  0  0
   57.7450  -42.2100   17.0790 C   0  0  0  0  0  3  0  0  0  0  0  0
   56.3860  -41.9960   16.7900 C   0  0  0  0  0  3  0  0  0  0  0  0
   52.6270  -40.4780   12.4010 C   0  0  0  0  0  1  0  0  0  0  0  0
   53.8400  -40.9270   13.2030 C   0  0  2  0  0  0  0  0  0  0  0  0
   53.7460  -42.3550   13.8060 C   0  0  0  0  0  2  0  0  0  0  0  0
   54.3180  -41.7890   15.1390 C   0  0  2  0  0  0  0  0  0  0  0  0
   53.8700  -40.3780   14.6530 C   0  0  0  0  0  2  0  0  0  0  0  0
   53.4940  -42.1940   16.3090 N   0  0  0  0  0  4  0  0  0  0  0  0
   53.8780  -41.7870   17.1740 H   0  0  0  0  0  0  0  0  0  0  0  0
   52.5160  -41.8910   16.2380 H   0  0  0  0  0  0  0  0  0  0  0  0
   53.4850  -43.2130   16.4330 H   0  0  0  0  0  0  0  0  0  0  0  0
   55.0420  -40.6610   12.4580 O   0  0  0  0  0  0  0  0  0  0  0  0
   54.9060  -41.0200   11.5600 H   0  0  0  0  0  0  0  0  0  0  0  0
   65.3570  -42.2870   18.2580 C   0  0  0  0  0  3  0  0  0  0  0  0
   64.8130  -41.1270   17.7990 F   0  0  0  0  0  0  0  0  0  0  0  0
   64.6670  -42.6180   19.3830 F   0  0  0  0  0  0  0  0  0  0  0  0
  1 13  1  0  0  0  0
  2  3  1  0  0  0  0
  2  1  2  0  0  0  0
  3 11  2  0  0  0  0
  4  5  2  0  0  0  0
  4  3  1  0  0  0  0
  5  6  1  0  0  0  0
  6  7  2  0  0  0  0
  6 10  1  0  0  0  0
  7  8  1  0  0  0  0
  8  9  2  0  0  0  0
  9 37  1  0  0  0  0
 10 11  1  0  0  0  0
 10  9  1  0  0  0  0
 11 12  1  0  0  0  0
 13 12  2  0  0  0  0
 13 14  1  0  0  0  0
 14 19  1  0  0  0  0
 15 14  2  0  0  0  0
 15 16  1  0  0  0  0
 16 17  2  0  0  0  0
 17 18  1  0  0  0  0
 19 18  2  0  0  0  0
 20 25  1  0  0  0  0
 21 22  1  0  0  0  0
 21 20  2  0  0  0  0
 22 23  2  0  0  0  0
 23  1  1  0  0  0  0
 23 24  1  0  0  0  0
 25 24  2  0  0  0  0
 27 26  1  6  0  0  0
 27 28  1  0  0  0  0
 27 30  1  0  0  0  0
 28 29  1  0  0  0  0
 29 20  1  0  0  0  0
 29 31  1  1  0  0  0
 30 29  1  0  0  0  0
 31 34  1  0  0  0  0
 31 32  1  0  0  0  0
 33 31  1  0  0  0  0
 35 27  1  0  0  0  0
 36 35  1  0  0  0  0
 37 39  1  0  0  0  0
 38 37  1  0  0  0  0
M  END
>  <minimizedAffinity>
-4.26170826

$$$$
