
 OpenBabel11232419423D

 39 44  0  0  1  0  0  0  0  0999 V2000
   58.8550  -42.3150   17.0470 C   0  0  0  0  0  0  0  0  0  0  0  0
   58.1120  -43.2470   16.3870 N   0  0  0  0  0  0  0  0  0  0  0  0
   56.8480  -43.4720   16.7970 C   0  0  0  0  0  0  0  0  0  0  0  0
   56.1090  -44.4740   16.0300 C   0  0  0  0  0  3  0  0  0  0  0  0
   54.8430  -44.7720   16.3500 C   0  0  0  0  0  3  0  0  0  0  0  0
   54.2170  -44.1270   17.4420 C   0  0  0  0  0  0  0  0  0  0  0  0
   53.0060  -44.2700   17.9290 N   0  0  0  0  0  0  0  0  0  0  0  0
   52.8840  -43.4340   18.9990 N   0  0  0  0  0  0  0  0  0  0  0  0
   54.0220  -42.7850   19.1620 C   0  0  0  0  0  0  0  0  0  0  0  0
   54.9160  -43.1750   18.1800 N   0  0  0  0  0  0  0  0  0  0  0  0
   56.2520  -42.8100   17.8690 C   0  0  0  0  0  0  0  0  0  0  0  0
   57.0070  -41.8470   18.5290 C   0  0  0  0  0  3  0  0  0  0  0  0
   58.3330  -41.5720   18.1260 C   0  0  0  0  0  0  0  0  0  0  0  0
   59.0710  -40.5100   18.8330 C   0  0  0  0  0  0  0  0  0  0  0  0
   59.0490  -40.4360   20.2360 C   0  0  0  0  0  3  0  0  0  0  0  0
   59.7390  -39.4260   20.9120 C   0  0  0  0  0  3  0  0  0  0  0  0
   60.4570  -38.4730   20.1950 C   0  0  0  0  0  3  0  0  0  0  0  0
   60.4820  -38.5240   18.8030 C   0  0  0  0  0  3  0  0  0  0  0  0
   59.7920  -39.5340   18.1270 C   0  0  0  0  0  3  0  0  0  0  0  0
   62.9530  -41.9030   15.5490 C   0  0  0  0  0  0  0  0  0  0  0  0
   62.6460  -42.4560   16.8070 C   0  0  0  0  0  3  0  0  0  0  0  0
   61.3300  -42.5960   17.2720 C   0  0  0  0  0  3  0  0  0  0  0  0
   60.2290  -42.1930   16.5050 C   0  0  0  0  0  0  0  0  0  0  0  0
   60.5110  -41.6450   15.2490 C   0  0  0  0  0  3  0  0  0  0  0  0
   61.8290  -41.5270   14.7780 C   0  0  0  0  0  3  0  0  0  0  0  0
   66.4930  -43.3910   12.7610 C   0  0  0  0  0  1  0  0  0  0  0  0
   65.2240  -43.1180   13.5550 C   0  0  2  0  0  0  0  0  0  0  0  0
   64.7050  -41.6560   13.4970 C   0  0  0  0  0  2  0  0  0  0  0  0
   64.4640  -41.7180   15.0330 C   0  0  2  0  0  0  0  0  0  0  0  0
   65.4680  -42.9100   15.0730 C   0  0  0  0  0  2  0  0  0  0  0  0
   65.0570  -40.5480   15.7330 N   0  0  0  0  0  4  0  0  0  0  0  0
   64.9070  -40.6260   16.7490 H   0  0  0  0  0  0  0  0  0  0  0  0
   66.0690  -40.4580   15.5810 H   0  0  0  0  0  0  0  0  0  0  0  0
   64.6280  -39.6670   15.4310 H   0  0  0  0  0  0  0  0  0  0  0  0
   64.2390  -44.1240   13.2590 O   0  0  0  0  0  0  0  0  0  0  0  0
   64.1860  -44.1920   12.2860 H   0  0  0  0  0  0  0  0  0  0  0  0
   54.2660  -41.8210   20.2510 C   0  0  0  0  0  3  0  0  0  0  0  0
   54.1220  -40.5360   19.8230 F   0  0  0  0  0  0  0  0  0  0  0  0
   53.3840  -41.9880   21.2730 F   0  0  0  0  0  0  0  0  0  0  0  0
  1 13  1  0  0  0  0
  2  3  1  0  0  0  0
  2  1  2  0  0  0  0
  3 11  2  0  0  0  0
  4  5  2  0  0  0  0
  4  3  1  0  0  0  0
  5  6  1  0  0  0  0
  6  7  2  0  0  0  0
  6 10  1  0  0  0  0
  7  8  1  0  0  0  0
  8  9  2  0  0  0  0
  9 37  1  0  0  0  0
 10  9  1  0  0  0  0
 11 10  1  0  0  0  0
 11 12  1  0  0  0  0
 13 12  2  0  0  0  0
 13 14  1  0  0  0  0
 14 15  1  0  0  0  0
 15 16  2  0  0  0  0
 17 16  1  0  0  0  0
 18 17  2  0  0  0  0
 19 18  1  0  0  0  0
 19 14  2  0  0  0  0
 20 21  1  0  0  0  0
 21 22  2  0  0  0  0
 23  1  1  0  0  0  0
 23 22  1  0  0  0  0
 24 23  2  0  0  0  0
 25 24  1  0  0  0  0
 25 20  2  0  0  0  0
 27 26  1  6  0  0  0
 27 30  1  0  0  0  0
 28 27  1  0  0  0  0
 28 29  1  0  0  0  0
 29 30  1  0  0  0  0
 29 20  1  0  0  0  0
 29 31  1  1  0  0  0
 31 32  1  0  0  0  0
 33 31  1  0  0  0  0
 34 31  1  0  0  0  0
 35 27  1  0  0  0  0
 36 35  1  0  0  0  0
 37 39  1  0  0  0  0
 38 37  1  0  0  0  0
M  END
>  <minimizedAffinity>
-4.77910805

$$$$
