
 OpenBabel11232419423D

 39 44  0  0  1  0  0  0  0  0999 V2000
   59.5030  -42.6830   17.4740 C   0  0  0  0  0  0  0  0  0  0  0  0
   59.6890  -43.7290   16.6210 N   0  0  0  0  0  0  0  0  0  0  0  0
   60.8700  -43.8370   15.9810 C   0  0  0  0  0  0  0  0  0  0  0  0
   61.0000  -44.9930   15.0960 C   0  0  0  0  0  3  0  0  0  0  0  0
   62.1340  -45.1990   14.4140 C   0  0  0  0  0  3  0  0  0  0  0  0
   63.2110  -44.2900   14.5380 C   0  0  0  0  0  0  0  0  0  0  0  0
   64.3920  -44.2930   13.9650 N   0  0  0  0  0  0  0  0  0  0  0  0
   65.0700  -43.1920   14.3970 N   0  0  0  0  0  0  0  0  0  0  0  0
   64.2980  -42.5190   15.2310 C   0  0  0  0  0  0  0  0  0  0  0  0
   63.0930  -43.1840   15.3760 N   0  0  0  0  0  0  0  0  0  0  0  0
   61.9190  -42.9330   16.1350 C   0  0  0  0  0  0  0  0  0  0  0  0
   61.7340  -41.8760   17.0200 C   0  0  0  0  0  3  0  0  0  0  0  0
   60.5140  -41.7310   17.7190 C   0  0  0  0  0  0  0  0  0  0  0  0
   60.3880  -40.6180   18.6770 C   0  0  0  0  0  0  0  0  0  0  0  0
   60.0530  -40.8650   20.0200 C   0  0  0  0  0  3  0  0  0  0  0  0
   59.9240  -39.8150   20.9320 C   0  0  0  0  0  3  0  0  0  0  0  0
   60.1200  -38.5020   20.5140 C   0  0  0  0  0  3  0  0  0  0  0  0
   60.4420  -38.2360   19.1850 C   0  0  0  0  0  3  0  0  0  0  0  0
   60.5720  -39.2870   18.2730 C   0  0  0  0  0  3  0  0  0  0  0  0
   55.5190  -42.5460   19.2960 C   0  0  0  0  0  0  0  0  0  0  0  0
   55.9320  -41.6600   18.2820 C   0  0  0  0  0  3  0  0  0  0  0  0
   57.2050  -41.7210   17.6950 C   0  0  0  0  0  3  0  0  0  0  0  0
   58.1520  -42.6770   18.0840 C   0  0  0  0  0  0  0  0  0  0  0  0
   57.7620  -43.5700   19.0870 C   0  0  0  0  0  3  0  0  0  0  0  0
   56.4780  -43.5210   19.6560 C   0  0  0  0  0  3  0  0  0  0  0  0
   52.9190  -41.6710   23.1680 C   0  0  0  0  0  1  0  0  0  0  0  0
   53.9600  -41.9030   22.0830 C   0  0  2  0  0  0  0  0  0  0  0  0
   53.7100  -41.1470   20.7490 C   0  0  0  0  0  2  0  0  0  0  0  0
   54.0700  -42.4540   19.9840 C   0  0  2  0  0  0  0  0  0  0  0  0
   53.7660  -43.2290   21.3010 C   0  0  0  0  0  2  0  0  0  0  0  0
   53.0450  -42.7950   18.9620 N   0  0  0  0  0  4  0  0  0  0  0  0
   53.2920  -43.6750   18.4870 H   0  0  0  0  0  0  0  0  0  0  0  0
   52.1050  -42.9160   19.3580 H   0  0  0  0  0  0  0  0  0  0  0  0
   52.9750  -42.0710   18.2380 H   0  0  0  0  0  0  0  0  0  0  0  0
   55.2810  -41.7420   22.6320 O   0  0  0  0  0  0  0  0  0  0  0  0
   55.2840  -40.8980   23.1220 H   0  0  0  0  0  0  0  0  0  0  0  0
   64.6920  -41.2480   15.8660 C   0  0  0  0  0  3  0  0  0  0  0  0
   66.0320  -41.0310   15.7620 F   0  0  0  0  0  0  0  0  0  0  0  0
   64.0820  -40.1840   15.2750 F   0  0  0  0  0  0  0  0  0  0  0  0
  1 13  1  0  0  0  0
  1 23  1  0  0  0  0
  2  1  2  0  0  0  0
  3 11  2  0  0  0  0
  3  2  1  0  0  0  0
  4  3  1  0  0  0  0
  5  6  1  0  0  0  0
  5  4  2  0  0  0  0
  6 10  1  0  0  0  0
  7  8  1  0  0  0  0
  7  6  2  0  0  0  0
  8  9  2  0  0  0  0
  9 10  1  0  0  0  0
  9 37  1  0  0  0  0
 10 11  1  0  0  0  0
 11 12  1  0  0  0  0
 12 13  2  0  0  0  0
 13 14  1  0  0  0  0
 14 15  1  0  0  0  0
 15 16  2  0  0  0  0
 17 16  1  0  0  0  0
 18 17  2  0  0  0  0
 19 14  2  0  0  0  0
 19 18  1  0  0  0  0
 20 25  1  0  0  0  0
 20 29  1  0  0  0  0
 21 20  2  0  0  0  0
 22 23  2  0  0  0  0
 22 21  1  0  0  0  0
 23 24  1  0  0  0  0
 24 25  2  0  0  0  0
 27 35  1  0  0  0  0
 27 26  1  1  0  0  0
 28 27  1  0  0  0  0
 29 31  1  6  0  0  0
 29 28  1  0  0  0  0
 29 30  1  0  0  0  0
 30 27  1  0  0  0  0
 31 33  1  0  0  0  0
 32 31  1  0  0  0  0
 34 31  1  0  0  0  0
 35 36  1  0  0  0  0
 38 37  1  0  0  0  0
 39 37  1  0  0  0  0
M  END
>  <minimizedAffinity>
-5.60836458

$$$$
