
 OpenBabel11232419423D

 39 44  0  0  1  0  0  0  0  0999 V2000
   59.5030  -42.6830   17.4740 C   0  0  0  0  0  0  0  0  0  0  0  0
   59.6890  -43.7290   16.6210 N   0  0  0  0  0  0  0  0  0  0  0  0
   60.8700  -43.8370   15.9810 C   0  0  0  0  0  0  0  0  0  0  0  0
   61.0000  -44.9930   15.0960 C   0  0  0  0  0  3  0  0  0  0  0  0
   62.1340  -45.1990   14.4140 C   0  0  0  0  0  3  0  0  0  0  0  0
   63.2110  -44.2900   14.5380 C   0  0  0  0  0  0  0  0  0  0  0  0
   64.3920  -44.2930   13.9650 N   0  0  0  0  0  0  0  0  0  0  0  0
   65.0700  -43.1920   14.3970 N   0  0  0  0  0  0  0  0  0  0  0  0
   64.2980  -42.5190   15.2310 C   0  0  0  0  0  0  0  0  0  0  0  0
   63.0930  -43.1840   15.3760 N   0  0  0  0  0  0  0  0  0  0  0  0
   61.9190  -42.9330   16.1350 C   0  0  0  0  0  0  0  0  0  0  0  0
   61.7340  -41.8760   17.0200 C   0  0  0  0  0  3  0  0  0  0  0  0
   60.5140  -41.7310   17.7190 C   0  0  0  0  0  0  0  0  0  0  0  0
   60.3880  -40.6180   18.6770 C   0  0  0  0  0  0  0  0  0  0  0  0
   60.0530  -40.8650   20.0200 C   0  0  0  0  0  3  0  0  0  0  0  0
   59.9240  -39.8150   20.9320 C   0  0  0  0  0  3  0  0  0  0  0  0
   60.1200  -38.5020   20.5140 C   0  0  0  0  0  3  0  0  0  0  0  0
   60.4420  -38.2360   19.1850 C   0  0  0  0  0  3  0  0  0  0  0  0
   60.5720  -39.2870   18.2730 C   0  0  0  0  0  3  0  0  0  0  0  0
   55.5190  -42.5460   19.2960 C   0  0  0  0  0  0  0  0  0  0  0  0
   55.9320  -41.6600   18.2820 C   0  0  0  0  0  3  0  0  0  0  0  0
   57.2050  -41.7210   17.6950 C   0  0  0  0  0  3  0  0  0  0  0  0
   58.1520  -42.6770   18.0840 C   0  0  0  0  0  0  0  0  0  0  0  0
   57.7620  -43.5700   19.0870 C   0  0  0  0  0  3  0  0  0  0  0  0
   56.4780  -43.5210   19.6560 C   0  0  0  0  0  3  0  0  0  0  0  0
   52.9190  -41.6710   23.1680 C   0  0  0  0  0  1  0  0  0  0  0  0
   53.9600  -41.9030   22.0830 C   0  0  2  0  0  0  0  0  0  0  0  0
   53.7100  -41.1470   20.7490 C   0  0  0  0  0  2  0  0  0  0  0  0
   54.0700  -42.4540   19.9840 C   0  0  2  0  0  0  0  0  0  0  0  0
   53.7660  -43.2290   21.3010 C   0  0  0  0  0  2  0  0  0  0  0  0
   53.0450  -42.7950   18.9620 N   0  0  0  0  0  4  0  0  0  0  0  0
   53.2920  -43.6750   18.4870 H   0  0  0  0  0  0  0  0  0  0  0  0
   52.1050  -42.9160   19.3580 H   0  0  0  0  0  0  0  0  0  0  0  0
   52.9750  -42.0710   18.2380 H   0  0  0  0  0  0  0  0  0  0  0  0
   55.2810  -41.7420   22.6320 O   0  0  0  0  0  0  0  0  0  0  0  0
   55.2840  -40.8980   23.1220 H   0  0  0  0  0  0  0  0  0  0  0  0
   64.6920  -41.2480   15.8660 C   0  0  0  0  0  3  0  0  0  0  0  0
   66.0320  -41.0310   15.7620 F   0  0  0  0  0  0  0  0  0  0  0  0
   64.0820  -40.1840   15.2750 F   0  0  0  0  0  0  0  0  0  0  0  0
  1 13  1  0  0  0  0
  1 23  1  0  0  0  0
  2  1  2  0  0  0  0
  3 11  2  0  0  0  0
  3  2  1  0  0  0  0
  4  3  1  0  0  0  0
  5  6  1  0  0  0  0
  5  4  2  0  0  0  0
  6 10  1  0  0  0  0
  7  8  1  0  0  0  0
  7  6  2  0  0  0  0
  8  9  2  0  0  0  0
  9 10  1  0  0  0  0
  9 37  1  0  0  0  0
 10 11  1  0  0  0  0
 11 12  1  0  0  0  0
 12 13  2  0  0  0  0
 13 14  1  0  0  0  0
 14 15  1  0  0  0  0
 15 16  2  0  0  0  0
 17 16  1  0  0  0  0
 18 17  2  0  0  0  0
 19 14  2  0  0  0  0
 19 18  1  0  0  0  0
 20 25  1  0  0  0  0
 20 29  1  0  0  0  0
 21 20  2  0  0  0  0
 22 23  2  0  0  0  0
 22 21  1  0  0  0  0
 23 24  1  0  0  0  0
 24 25  2  0  0  0  0
 27 35  1  0  0  0  0
 27 26  1  1  0  0  0
 28 27  1  0  0  0  0
 29 31  1  6  0  0  0
 29 28  1  0  0  0  0
 29 30  1  0  0  0  0
 30 27  1  0  0  0  0
 31 33  1  0  0  0  0
 32 31  1  0  0  0  0
 34 31  1  0  0  0  0
 35 36  1  0  0  0  0
 38 37  1  0  0  0  0
 39 37  1  0  0  0  0
M  END
>  <minimizedAffinity>
-5.60836458

$$$$

 OpenBabel11232419423D

 39 44  0  0  1  0  0  0  0  0999 V2000
   60.2870  -42.2660   17.0880 C   0  0  0  0  0  0  0  0  0  0  0  0
   61.3170  -42.2320   17.9790 N   0  0  0  0  0  0  0  0  0  0  0  0
   62.5780  -42.2100   17.5050 C   0  0  0  0  0  0  0  0  0  0  0  0
   63.6290  -42.1560   18.5210 C   0  0  0  0  0  3  0  0  0  0  0  0
   64.9180  -42.1270   18.1600 C   0  0  0  0  0  3  0  0  0  0  0  0
   65.2720  -42.1580   16.7910 C   0  0  0  0  0  0  0  0  0  0  0  0
   66.4540  -42.1460   16.2220 N   0  0  0  0  0  0  0  0  0  0  0  0
   66.2700  -42.2070   14.8720 N   0  0  0  0  0  0  0  0  0  0  0  0
   64.9740  -42.2580   14.6230 C   0  0  0  0  0  0  0  0  0  0  0  0
   64.2770  -42.2130   15.8170 N   0  0  0  0  0  0  0  0  0  0  0  0
   62.8960  -42.2270   16.1490 C   0  0  0  0  0  0  0  0  0  0  0  0
   61.8430  -42.2450   15.2410 C   0  0  0  0  0  3  0  0  0  0  0  0
   60.5040  -42.2590   15.6950 C   0  0  0  0  0  0  0  0  0  0  0  0
   59.4270  -42.2320   14.6900 C   0  0  0  0  0  0  0  0  0  0  0  0
   59.5980  -41.5450   13.4760 C   0  0  0  0  0  3  0  0  0  0  0  0
   58.5780  -41.5070   12.5220 C   0  0  0  0  0  3  0  0  0  0  0  0
   57.3690  -42.1510   12.7710 C   0  0  0  0  0  3  0  0  0  0  0  0
   57.1760  -42.8280   13.9730 C   0  0  0  0  0  3  0  0  0  0  0  0
   58.1960  -42.8650   14.9270 C   0  0  0  0  0  3  0  0  0  0  0  0
   56.4050  -42.3240   19.1220 C   0  0  0  0  0  0  0  0  0  0  0  0
   57.0200  -41.1400   18.6740 C   0  0  0  0  0  3  0  0  0  0  0  0
   58.2570  -41.1330   18.0110 C   0  0  0  0  0  3  0  0  0  0  0  0
   58.9610  -42.3150   17.7500 C   0  0  0  0  0  0  0  0  0  0  0  0
   58.3660  -43.5050   18.1830 C   0  0  0  0  0  3  0  0  0  0  0  0
   57.1160  -43.5100   18.8260 C   0  0  0  0  0  3  0  0  0  0  0  0
   53.8640  -43.7030   22.8860 C   0  0  0  0  0  1  0  0  0  0  0  0
   54.8750  -43.3990   21.7900 C   0  0  2  0  0  0  0  0  0  0  0  0
   55.0050  -41.9000   21.4030 C   0  0  0  0  0  2  0  0  0  0  0  0
   55.0010  -42.3240   19.9060 C   0  0  2  0  0  0  0  0  0  0  0  0
   54.3440  -43.6630   20.3570 C   0  0  0  0  0  2  0  0  0  0  0  0
   54.0230  -41.5350   19.1110 N   0  0  0  0  0  4  0  0  0  0  0  0
   54.0210  -41.8520   18.1300 H   0  0  0  0  0  0  0  0  0  0  0  0
   53.0610  -41.6190   19.4590 H   0  0  0  0  0  0  0  0  0  0  0  0
   54.2550  -40.5360   19.1050 H   0  0  0  0  0  0  0  0  0  0  0  0
   56.1200  -44.0600   22.0780 O   0  0  0  0  0  0  0  0  0  0  0  0
   56.3450  -43.8520   23.0050 H   0  0  0  0  0  0  0  0  0  0  0  0
   64.4040  -42.3690   13.2670 C   0  0  0  0  0  3  0  0  0  0  0  0
   63.9330  -41.1720   12.8230 F   0  0  0  0  0  0  0  0  0  0  0  0
   65.3390  -42.7750   12.3650 F   0  0  0  0  0  0  0  0  0  0  0  0
  1 23  1  0  0  0  0
  1  2  1  0  0  0  0
  3  2  2  0  0  0  0
  3  4  1  0  0  0  0
  5  4  2  0  0  0  0
  6  5  1  0  0  0  0
  7  6  2  0  0  0  0
  8  7  1  0  0  0  0
  9  8  2  0  0  0  0
  9 10  1  0  0  0  0
 10 11  1  0  0  0  0
 10  6  1  0  0  0  0
 11  3  1  0  0  0  0
 12 13  1  0  0  0  0
 12 11  2  0  0  0  0
 13  1  2  0  0  0  0
 14 19  1  0  0  0  0
 14 13  1  0  0  0  0
 15 14  2  0  0  0  0
 16 17  2  0  0  0  0
 16 15  1  0  0  0  0
 17 18  1  0  0  0  0
 18 19  2  0  0  0  0
 20 29  1  0  0  0  0
 21 20  2  0  0  0  0
 22 21  1  0  0  0  0
 23 22  2  0  0  0  0
 23 24  1  0  0  0  0
 24 25  2  0  0  0  0
 25 20  1  0  0  0  0
 27 35  1  0  0  0  0
 27 26  1  1  0  0  0
 28 27  1  0  0  0  0
 29 31  1  6  0  0  0
 29 30  1  0  0  0  0
 29 28  1  0  0  0  0
 30 27  1  0  0  0  0
 31 33  1  0  0  0  0
 32 31  1  0  0  0  0
 34 31  1  0  0  0  0
 35 36  1  0  0  0  0
 37  9  1  0  0  0  0
 38 37  1  0  0  0  0
 39 37  1  0  0  0  0
M  END
>  <minimizedAffinity>
-5.06483221

$$$$

 OpenBabel11232419423D

 39 44  0  0  1  0  0  0  0  0999 V2000
   58.8550  -42.3150   17.0470 C   0  0  0  0  0  0  0  0  0  0  0  0
   58.1120  -43.2470   16.3870 N   0  0  0  0  0  0  0  0  0  0  0  0
   56.8480  -43.4720   16.7970 C   0  0  0  0  0  0  0  0  0  0  0  0
   56.1090  -44.4740   16.0300 C   0  0  0  0  0  3  0  0  0  0  0  0
   54.8430  -44.7720   16.3500 C   0  0  0  0  0  3  0  0  0  0  0  0
   54.2170  -44.1270   17.4420 C   0  0  0  0  0  0  0  0  0  0  0  0
   53.0060  -44.2700   17.9290 N   0  0  0  0  0  0  0  0  0  0  0  0
   52.8840  -43.4340   18.9990 N   0  0  0  0  0  0  0  0  0  0  0  0
   54.0220  -42.7850   19.1620 C   0  0  0  0  0  0  0  0  0  0  0  0
   54.9160  -43.1750   18.1800 N   0  0  0  0  0  0  0  0  0  0  0  0
   56.2520  -42.8100   17.8690 C   0  0  0  0  0  0  0  0  0  0  0  0
   57.0070  -41.8470   18.5290 C   0  0  0  0  0  3  0  0  0  0  0  0
   58.3330  -41.5720   18.1260 C   0  0  0  0  0  0  0  0  0  0  0  0
   59.0710  -40.5100   18.8330 C   0  0  0  0  0  0  0  0  0  0  0  0
   59.0490  -40.4360   20.2360 C   0  0  0  0  0  3  0  0  0  0  0  0
   59.7390  -39.4260   20.9120 C   0  0  0  0  0  3  0  0  0  0  0  0
   60.4570  -38.4730   20.1950 C   0  0  0  0  0  3  0  0  0  0  0  0
   60.4820  -38.5240   18.8030 C   0  0  0  0  0  3  0  0  0  0  0  0
   59.7920  -39.5340   18.1270 C   0  0  0  0  0  3  0  0  0  0  0  0
   62.9530  -41.9030   15.5490 C   0  0  0  0  0  0  0  0  0  0  0  0
   62.6460  -42.4560   16.8070 C   0  0  0  0  0  3  0  0  0  0  0  0
   61.3300  -42.5960   17.2720 C   0  0  0  0  0  3  0  0  0  0  0  0
   60.2290  -42.1930   16.5050 C   0  0  0  0  0  0  0  0  0  0  0  0
   60.5110  -41.6450   15.2490 C   0  0  0  0  0  3  0  0  0  0  0  0
   61.8290  -41.5270   14.7780 C   0  0  0  0  0  3  0  0  0  0  0  0
   66.4930  -43.3910   12.7610 C   0  0  0  0  0  1  0  0  0  0  0  0
   65.2240  -43.1180   13.5550 C   0  0  2  0  0  0  0  0  0  0  0  0
   64.7050  -41.6560   13.4970 C   0  0  0  0  0  2  0  0  0  0  0  0
   64.4640  -41.7180   15.0330 C   0  0  2  0  0  0  0  0  0  0  0  0
   65.4680  -42.9100   15.0730 C   0  0  0  0  0  2  0  0  0  0  0  0
   65.0570  -40.5480   15.7330 N   0  0  0  0  0  4  0  0  0  0  0  0
   64.9070  -40.6260   16.7490 H   0  0  0  0  0  0  0  0  0  0  0  0
   66.0690  -40.4580   15.5810 H   0  0  0  0  0  0  0  0  0  0  0  0
   64.6280  -39.6670   15.4310 H   0  0  0  0  0  0  0  0  0  0  0  0
   64.2390  -44.1240   13.2590 O   0  0  0  0  0  0  0  0  0  0  0  0
   64.1860  -44.1920   12.2860 H   0  0  0  0  0  0  0  0  0  0  0  0
   54.2660  -41.8210   20.2510 C   0  0  0  0  0  3  0  0  0  0  0  0
   54.1220  -40.5360   19.8230 F   0  0  0  0  0  0  0  0  0  0  0  0
   53.3840  -41.9880   21.2730 F   0  0  0  0  0  0  0  0  0  0  0  0
  1 13  1  0  0  0  0
  2  3  1  0  0  0  0
  2  1  2  0  0  0  0
  3 11  2  0  0  0  0
  4  5  2  0  0  0  0
  4  3  1  0  0  0  0
  5  6  1  0  0  0  0
  6  7  2  0  0  0  0
  6 10  1  0  0  0  0
  7  8  1  0  0  0  0
  8  9  2  0  0  0  0
  9 37  1  0  0  0  0
 10  9  1  0  0  0  0
 11 10  1  0  0  0  0
 11 12  1  0  0  0  0
 13 12  2  0  0  0  0
 13 14  1  0  0  0  0
 14 15  1  0  0  0  0
 15 16  2  0  0  0  0
 17 16  1  0  0  0  0
 18 17  2  0  0  0  0
 19 18  1  0  0  0  0
 19 14  2  0  0  0  0
 20 21  1  0  0  0  0
 21 22  2  0  0  0  0
 23  1  1  0  0  0  0
 23 22  1  0  0  0  0
 24 23  2  0  0  0  0
 25 24  1  0  0  0  0
 25 20  2  0  0  0  0
 27 26  1  6  0  0  0
 27 30  1  0  0  0  0
 28 27  1  0  0  0  0
 28 29  1  0  0  0  0
 29 30  1  0  0  0  0
 29 20  1  0  0  0  0
 29 31  1  1  0  0  0
 31 32  1  0  0  0  0
 33 31  1  0  0  0  0
 34 31  1  0  0  0  0
 35 27  1  0  0  0  0
 36 35  1  0  0  0  0
 37 39  1  0  0  0  0
 38 37  1  0  0  0  0
M  END
>  <minimizedAffinity>
-4.77910805

$$$$

 OpenBabel11232419423D

 39 44  0  0  1  0  0  0  0  0999 V2000
   60.0990  -42.7900   16.3430 C   0  0  0  0  0  0  0  0  0  0  0  0
   60.6450  -43.7340   15.5280 N   0  0  0  0  0  0  0  0  0  0  0  0
   61.9600  -44.0070   15.6470 C   0  0  0  0  0  0  0  0  0  0  0  0
   62.4690  -45.0440   14.7500 C   0  0  0  0  0  3  0  0  0  0  0  0
   63.7600  -45.3960   14.7870 C   0  0  0  0  0  3  0  0  0  0  0  0
   64.6440  -44.7570   15.6890 C   0  0  0  0  0  0  0  0  0  0  0  0
   65.9290  -44.9370   15.8850 N   0  0  0  0  0  0  0  0  0  0  0  0
   66.3300  -44.0660   16.8540 N   0  0  0  0  0  0  0  0  0  0  0  0
   65.2870  -43.3560   17.2450 C   0  0  0  0  0  0  0  0  0  0  0  0
   64.1670  -43.7650   16.5430 N   0  0  0  0  0  0  0  0  0  0  0  0
   62.8030  -43.3710   16.5550 C   0  0  0  0  0  0  0  0  0  0  0  0
   62.2400  -42.4190   17.3980 C   0  0  0  0  0  3  0  0  0  0  0  0
   60.8630  -42.1090   17.3130 C   0  0  0  0  0  0  0  0  0  0  0  0
   60.3100  -41.1250   18.2610 C   0  0  0  0  0  0  0  0  0  0  0  0
   60.3480  -39.7510   17.9690 C   0  0  0  0  0  3  0  0  0  0  0  0
   59.8340  -38.8120   18.8670 C   0  0  0  0  0  3  0  0  0  0  0  0
   59.2800  -39.2330   20.0730 C   0  0  0  0  0  3  0  0  0  0  0  0
   59.2430  -40.5900   20.3850 C   0  0  0  0  0  3  0  0  0  0  0  0
   59.7570  -41.5290   19.4870 C   0  0  0  0  0  3  0  0  0  0  0  0
   55.8600  -42.0860   15.4800 C   0  0  0  0  0  0  0  0  0  0  0  0
   56.7940  -42.4600   14.4940 C   0  0  0  0  0  3  0  0  0  0  0  0
   58.1460  -42.6970   14.7830 C   0  0  0  0  0  3  0  0  0  0  0  0
   58.6560  -42.5760   16.0820 C   0  0  0  0  0  0  0  0  0  0  0  0
   57.7450  -42.2100   17.0790 C   0  0  0  0  0  3  0  0  0  0  0  0
   56.3860  -41.9960   16.7900 C   0  0  0  0  0  3  0  0  0  0  0  0
   52.6270  -40.4780   12.4010 C   0  0  0  0  0  1  0  0  0  0  0  0
   53.8400  -40.9270   13.2030 C   0  0  2  0  0  0  0  0  0  0  0  0
   53.7460  -42.3550   13.8060 C   0  0  0  0  0  2  0  0  0  0  0  0
   54.3180  -41.7890   15.1390 C   0  0  2  0  0  0  0  0  0  0  0  0
   53.8700  -40.3780   14.6530 C   0  0  0  0  0  2  0  0  0  0  0  0
   53.4940  -42.1940   16.3090 N   0  0  0  0  0  4  0  0  0  0  0  0
   53.8780  -41.7870   17.1740 H   0  0  0  0  0  0  0  0  0  0  0  0
   52.5160  -41.8910   16.2380 H   0  0  0  0  0  0  0  0  0  0  0  0
   53.4850  -43.2130   16.4330 H   0  0  0  0  0  0  0  0  0  0  0  0
   55.0420  -40.6610   12.4580 O   0  0  0  0  0  0  0  0  0  0  0  0
   54.9060  -41.0200   11.5600 H   0  0  0  0  0  0  0  0  0  0  0  0
   65.3570  -42.2870   18.2580 C   0  0  0  0  0  3  0  0  0  0  0  0
   64.8130  -41.1270   17.7990 F   0  0  0  0  0  0  0  0  0  0  0  0
   64.6670  -42.6180   19.3830 F   0  0  0  0  0  0  0  0  0  0  0  0
  1 13  1  0  0  0  0
  2  3  1  0  0  0  0
  2  1  2  0  0  0  0
  3 11  2  0  0  0  0
  4  5  2  0  0  0  0
  4  3  1  0  0  0  0
  5  6  1  0  0  0  0
  6  7  2  0  0  0  0
  6 10  1  0  0  0  0
  7  8  1  0  0  0  0
  8  9  2  0  0  0  0
  9 37  1  0  0  0  0
 10 11  1  0  0  0  0
 10  9  1  0  0  0  0
 11 12  1  0  0  0  0
 13 12  2  0  0  0  0
 13 14  1  0  0  0  0
 14 19  1  0  0  0  0
 15 14  2  0  0  0  0
 15 16  1  0  0  0  0
 16 17  2  0  0  0  0
 17 18  1  0  0  0  0
 19 18  2  0  0  0  0
 20 25  1  0  0  0  0
 21 22  1  0  0  0  0
 21 20  2  0  0  0  0
 22 23  2  0  0  0  0
 23  1  1  0  0  0  0
 23 24  1  0  0  0  0
 25 24  2  0  0  0  0
 27 26  1  6  0  0  0
 27 28  1  0  0  0  0
 27 30  1  0  0  0  0
 28 29  1  0  0  0  0
 29 20  1  0  0  0  0
 29 31  1  1  0  0  0
 30 29  1  0  0  0  0
 31 34  1  0  0  0  0
 31 32  1  0  0  0  0
 33 31  1  0  0  0  0
 35 27  1  0  0  0  0
 36 35  1  0  0  0  0
 37 39  1  0  0  0  0
 38 37  1  0  0  0  0
M  END
>  <minimizedAffinity>
-4.26170826

$$$$

 OpenBabel11232419423D

 39 44  0  0  1  0  0  0  0  0999 V2000
   60.0620  -41.7760   17.1710 C   0  0  0  0  0  0  0  0  0  0  0  0
   61.0150  -41.3590   18.0500 N   0  0  0  0  0  0  0  0  0  0  0  0
   62.3120  -41.4970   17.7080 C   0  0  0  0  0  0  0  0  0  0  0  0
   63.2750  -41.0110   18.6960 C   0  0  0  0  0  3  0  0  0  0  0  0
   64.5900  -41.0970   18.4560 C   0  0  0  0  0  3  0  0  0  0  0  0
   65.0550  -41.6690   17.2490 C   0  0  0  0  0  0  0  0  0  0  0  0
   66.2810  -41.8580   16.8180 N   0  0  0  0  0  0  0  0  0  0  0  0
   66.2070  -42.4630   15.5990 N   0  0  0  0  0  0  0  0  0  0  0  0
   64.9360  -42.6430   15.2900 C   0  0  0  0  0  0  0  0  0  0  0  0
   64.1430  -42.1380   16.3060 N   0  0  0  0  0  0  0  0  0  0  0  0
   62.7400  -42.0520   16.5050 C   0  0  0  0  0  0  0  0  0  0  0  0
   61.7640  -42.4610   15.6020 C   0  0  0  0  0  3  0  0  0  0  0  0
   60.3930  -42.3250   15.9160 C   0  0  0  0  0  0  0  0  0  0  0  0
   59.4020  -42.7340   14.9040 C   0  0  0  0  0  0  0  0  0  0  0  0
   58.7840  -43.9940   14.9750 C   0  0  0  0  0  3  0  0  0  0  0  0
   57.8510  -44.3910   14.0150 C   0  0  0  0  0  3  0  0  0  0  0  0
   57.5270  -43.5370   12.9640 C   0  0  0  0  0  3  0  0  0  0  0  0
   58.1360  -42.2880   12.8710 C   0  0  0  0  0  3  0  0  0  0  0  0
   59.0700  -41.8910   13.8320 C   0  0  0  0  0  3  0  0  0  0  0  0
   56.0290  -41.2650   18.8110 C   0  0  0  0  0  0  0  0  0  0  0  0
   57.1910  -40.8240   19.4750 C   0  0  0  0  0  3  0  0  0  0  0  0
   58.4760  -40.9800   18.9350 C   0  0  0  0  0  3  0  0  0  0  0  0
   58.6860  -41.5870   17.6900 C   0  0  0  0  0  0  0  0  0  0  0  0
   57.5450  -42.0290   17.0110 C   0  0  0  0  0  3  0  0  0  0  0  0
   56.2580  -41.8500   17.5440 C   0  0  0  0  0  3  0  0  0  0  0  0
   52.6990  -42.9020   21.7700 C   0  0  0  0  0  1  0  0  0  0  0  0
   53.9070  -42.5870   20.9000 C   0  0  2  0  0  0  0  0  0  0  0  0
   54.4350  -41.1290   20.9980 C   0  0  0  0  0  2  0  0  0  0  0  0
   54.5610  -41.1090   19.4460 C   0  0  2  0  0  0  0  0  0  0  0  0
   53.5530  -42.2980   19.4170 C   0  0  0  0  0  2  0  0  0  0  0  0
   53.9220  -39.9040   18.8560 N   0  0  0  0  0  4  0  0  0  0  0  0
   53.9970  -39.9270   17.8290 H   0  0  0  0  0  0  0  0  0  0  0  0
   52.9250  -39.8220   19.0870 H   0  0  0  0  0  0  0  0  0  0  0  0
   54.3760  -39.0390   19.1720 H   0  0  0  0  0  0  0  0  0  0  0  0
   54.9080  -43.6060   21.0690 O   0  0  0  0  0  0  0  0  0  0  0  0
   55.0320  -43.7270   22.0290 H   0  0  0  0  0  0  0  0  0  0  0  0
   64.4790  -43.3060   14.0550 C   0  0  0  0  0  3  0  0  0  0  0  0
   63.8340  -44.4740   14.3240 F   0  0  0  0  0  0  0  0  0  0  0  0
   63.5990  -42.5300   13.3670 F   0  0  0  0  0  0  0  0  0  0  0  0
  1 23  1  0  0  0  0
  1  2  1  0  0  0  0
  3  2  2  0  0  0  0
  3  4  1  0  0  0  0
  5  4  2  0  0  0  0
  6  5  1  0  0  0  0
  7  6  2  0  0  0  0
  8  7  1  0  0  0  0
  9  8  2  0  0  0  0
  9 10  1  0  0  0  0
 10 11  1  0  0  0  0
 10  6  1  0  0  0  0
 11  3  1  0  0  0  0
 12 13  1  0  0  0  0
 12 11  2  0  0  0  0
 13  1  2  0  0  0  0
 14 15  1  0  0  0  0
 14 13  1  0  0  0  0
 16 15  2  0  0  0  0
 17 16  1  0  0  0  0
 18 17  2  0  0  0  0
 18 19  1  0  0  0  0
 19 14  2  0  0  0  0
 20 29  1  0  0  0  0
 20 21  1  0  0  0  0
 22 21  2  0  0  0  0
 23 22  1  0  0  0  0
 24 25  1  0  0  0  0
 24 23  2  0  0  0  0
 25 20  2  0  0  0  0
 27 28  1  0  0  0  0
 27 35  1  0  0  0  0
 27 26  1  1  0  0  0
 29 31  1  6  0  0  0
 29 28  1  0  0  0  0
 30 29  1  0  0  0  0
 30 27  1  0  0  0  0
 31 33  1  0  0  0  0
 31 34  1  0  0  0  0
 32 31  1  0  0  0  0
 35 36  1  0  0  0  0
 37 38  1  0  0  0  0
 37  9  1  0  0  0  0
 39 37  1  0  0  0  0
M  END
>  <minimizedAffinity>
-3.55590343

$$$$

 OpenBabel11232419423D

 39 44  0  0  1  0  0  0  0  0999 V2000
   58.7720  -42.7590   17.2480 C   0  0  0  0  0  0  0  0  0  0  0  0
   58.4200  -42.3740   18.5060 N   0  0  0  0  0  0  0  0  0  0  0  0
   57.1200  -42.4320   18.8590 C   0  0  0  0  0  0  0  0  0  0  0  0
   56.8240  -42.0180   20.2300 C   0  0  0  0  0  3  0  0  0  0  0  0
   55.5650  -42.0400   20.6860 C   0  0  0  0  0  3  0  0  0  0  0  0
   54.5110  -42.4530   19.8370 C   0  0  0  0  0  0  0  0  0  0  0  0
   53.2220  -42.5420   20.0700 N   0  0  0  0  0  0  0  0  0  0  0  0
   52.6190  -42.9760   18.9270 N   0  0  0  0  0  0  0  0  0  0  0  0
   53.5440  -43.1490   17.9990 C   0  0  0  0  0  0  0  0  0  0  0  0
   54.7850  -42.8440   18.5280 N   0  0  0  0  0  0  0  0  0  0  0  0
   56.1050  -42.8570   18.0050 C   0  0  0  0  0  0  0  0  0  0  0  0
   56.4680  -43.2660   16.7270 C   0  0  0  0  0  3  0  0  0  0  0  0
   57.8210  -43.2310   16.3190 C   0  0  0  0  0  0  0  0  0  0  0  0
   58.1550  -43.7180   14.9690 C   0  0  0  0  0  0  0  0  0  0  0  0
   57.7520  -43.0000   13.8290 C   0  0  0  0  0  3  0  0  0  0  0  0
   58.0580  -43.4610   12.5460 C   0  0  0  0  0  3  0  0  0  0  0  0
   58.7650  -44.6490   12.3830 C   0  0  0  0  0  3  0  0  0  0  0  0
   59.1640  -45.3790   13.5000 C   0  0  0  0  0  3  0  0  0  0  0  0
   58.8590  -44.9190   14.7830 C   0  0  0  0  0  3  0  0  0  0  0  0
   63.0520  -42.3870   16.3820 C   0  0  0  0  0  0  0  0  0  0  0  0
   62.0490  -41.9050   15.5200 C   0  0  0  0  0  3  0  0  0  0  0  0
   60.6810  -42.0170   15.8130 C   0  0  0  0  0  3  0  0  0  0  0  0
   60.2250  -42.6180   16.9930 C   0  0  0  0  0  0  0  0  0  0  0  0
   61.2050  -43.1000   17.8660 C   0  0  0  0  0  3  0  0  0  0  0  0
   62.5740  -42.9660   17.5810 C   0  0  0  0  0  3  0  0  0  0  0  0
   66.4460  -41.9910   13.0890 C   0  0  0  0  0  1  0  0  0  0  0  0
   65.1910  -42.1200   13.9400 C   0  0  2  0  0  0  0  0  0  0  0  0
   65.0780  -41.1100   15.1150 C   0  0  0  0  0  2  0  0  0  0  0  0
   64.6160  -42.2820   16.0300 C   0  0  2  0  0  0  0  0  0  0  0  0
   65.2650  -43.2530   14.9970 C   0  0  0  0  0  2  0  0  0  0  0  0
   65.3860  -42.3250   17.3010 N   0  0  0  0  0  4  0  0  0  0  0  0
   65.0800  -43.1230   17.8770 H   0  0  0  0  0  0  0  0  0  0  0  0
   66.3980  -42.4250   17.1560 H   0  0  0  0  0  0  0  0  0  0  0  0
   65.2440  -41.4780   17.8610 H   0  0  0  0  0  0  0  0  0  0  0  0
   64.0320  -42.1940   13.0910 O   0  0  0  0  0  0  0  0  0  0  0  0
   64.1000  -41.4590   12.4520 H   0  0  0  0  0  0  0  0  0  0  0  0
   53.2490  -43.5770   16.6190 C   0  0  0  0  0  3  0  0  0  0  0  0
   53.7320  -42.6900   15.7060 F   0  0  0  0  0  0  0  0  0  0  0  0
   53.8250  -44.7760   16.3340 F   0  0  0  0  0  0  0  0  0  0  0  0
  1  2  1  0  0  0  0
  2  3  2  0  0  0  0
  3  4  1  0  0  0  0
  4  5  2  0  0  0  0
  6  7  2  0  0  0  0
  6  5  1  0  0  0  0
  8  7  1  0  0  0  0
  9 10  1  0  0  0  0
  9  8  2  0  0  0  0
 10  6  1  0  0  0  0
 11 10  1  0  0  0  0
 11  3  1  0  0  0  0
 12 11  2  0  0  0  0
 13 12  1  0  0  0  0
 13  1  2  0  0  0  0
 14 13  1  0  0  0  0
 15 14  2  0  0  0  0
 16 15  1  0  0  0  0
 17 16  2  0  0  0  0
 17 18  1  0  0  0  0
 18 19  2  0  0  0  0
 19 14  1  0  0  0  0
 20 25  1  0  0  0  0
 21 22  1  0  0  0  0
 21 20  2  0  0  0  0
 22 23  2  0  0  0  0
 23  1  1  0  0  0  0
 23 24  1  0  0  0  0
 25 24  2  0  0  0  0
 27 26  1  6  0  0  0
 27 30  1  0  0  0  0
 27 28  1  0  0  0  0
 28 29  1  0  0  0  0
 29 20  1  0  0  0  0
 29 31  1  1  0  0  0
 30 29  1  0  0  0  0
 31 34  1  0  0  0  0
 31 32  1  0  0  0  0
 33 31  1  0  0  0  0
 35 27  1  0  0  0  0
 36 35  1  0  0  0  0
 37  9  1  0  0  0  0
 38 37  1  0  0  0  0
 39 37  1  0  0  0  0
M  END
>  <minimizedAffinity>
-2.88095975

$$$$

 OpenBabel11232419423D

 39 44  0  0  1  0  0  0  0  0999 V2000
   60.3440  -42.5590   17.2240 C   0  0  0  0  0  0  0  0  0  0  0  0
   61.2270  -42.4360   18.2540 N   0  0  0  0  0  0  0  0  0  0  0  0
   62.5270  -42.7120   18.0250 C   0  0  0  0  0  0  0  0  0  0  0  0
   63.4150  -42.5410   19.1740 C   0  0  0  0  0  3  0  0  0  0  0  0
   64.7270  -42.7840   19.0560 C   0  0  0  0  0  3  0  0  0  0  0  0
   65.2590  -43.2190   17.8190 C   0  0  0  0  0  0  0  0  0  0  0  0
   66.4930  -43.5180   17.4870 N   0  0  0  0  0  0  0  0  0  0  0  0
   66.4930  -43.9020   16.1790 N   0  0  0  0  0  0  0  0  0  0  0  0
   65.2570  -43.8370   15.7170 C   0  0  0  0  0  0  0  0  0  0  0  0
   64.4180  -43.3880   16.7220 N   0  0  0  0  0  0  0  0  0  0  0  0
   63.0240  -43.1250   16.7910 C   0  0  0  0  0  0  0  0  0  0  0  0
   62.1240  -43.2320   15.7370 C   0  0  0  0  0  3  0  0  0  0  0  0
   60.7540  -42.9440   15.9310 C   0  0  0  0  0  0  0  0  0  0  0  0
   59.8510  -43.0310   14.7690 C   0  0  0  0  0  0  0  0  0  0  0  0
   58.6090  -42.3730   14.7770 C   0  0  0  0  0  3  0  0  0  0  0  0
   57.7450  -42.4590   13.6820 C   0  0  0  0  0  3  0  0  0  0  0  0
   58.1070  -43.2080   12.5660 C   0  0  0  0  0  3  0  0  0  0  0  0
   59.3300  -43.8750   12.5440 C   0  0  0  0  0  3  0  0  0  0  0  0
   60.1940  -43.7890   13.6380 C   0  0  0  0  0  3  0  0  0  0  0  0
   56.1860  -41.7170   18.3240 C   0  0  0  0  0  0  0  0  0  0  0  0
   56.6710  -43.0180   18.0930 C   0  0  0  0  0  3  0  0  0  0  0  0
   58.0080  -43.2780   17.7540 C   0  0  0  0  0  3  0  0  0  0  0  0
   58.9510  -42.2510   17.6270 C   0  0  0  0  0  0  0  0  0  0  0  0
   58.4910  -40.9500   17.8570 C   0  0  0  0  0  3  0  0  0  0  0  0
   57.1580  -40.6950   18.2190 C   0  0  0  0  0  3  0  0  0  0  0  0
   52.6240  -38.5960   18.6370 C   0  0  0  0  0  1  0  0  0  0  0  0
   53.9110  -39.3890   18.4600 C   0  0  2  0  0  0  0  0  0  0  0  0
   53.7800  -40.6890   17.6190 C   0  0  0  0  0  2  0  0  0  0  0  0
   54.6480  -41.4210   18.6840 C   0  0  2  0  0  0  0  0  0  0  0  0
   54.2690  -40.2810   19.6770 C   0  0  0  0  0  2  0  0  0  0  0  0
   54.0190  -42.6930   19.1290 N   0  0  0  0  0  4  0  0  0  0  0  0
   54.5990  -43.1450   19.8510 H   0  0  0  0  0  0  0  0  0  0  0  0
   53.0830  -42.5620   19.5290 H   0  0  0  0  0  0  0  0  0  0  0  0
   53.9240  -43.3610   18.3560 H   0  0  0  0  0  0  0  0  0  0  0  0
   54.9730  -38.5090   18.0530 O   0  0  0  0  0  0  0  0  0  0  0  0
   54.6340  -37.9790   17.3060 H   0  0  0  0  0  0  0  0  0  0  0  0
   64.8750  -44.2180   14.3450 C   0  0  0  0  0  3  0  0  0  0  0  0
   63.7480  -44.9820   14.3340 F   0  0  0  0  0  0  0  0  0  0  0  0
   64.6070  -43.1250   13.5800 F   0  0  0  0  0  0  0  0  0  0  0  0
  1 23  1  0  0  0  0
  1  2  1  0  0  0  0
  3  2  2  0  0  0  0
  3  4  1  0  0  0  0
  5  4  2  0  0  0  0
  6  5  1  0  0  0  0
  7  6  2  0  0  0  0
  8  7  1  0  0  0  0
  9  8  2  0  0  0  0
  9 10  1  0  0  0  0
 10 11  1  0  0  0  0
 10  6  1  0  0  0  0
 11  3  1  0  0  0  0
 12 13  1  0  0  0  0
 12 11  2  0  0  0  0
 13  1  2  0  0  0  0
 14 15  1  0  0  0  0
 14 13  1  0  0  0  0
 16 15  2  0  0  0  0
 17 16  1  0  0  0  0
 18 17  2  0  0  0  0
 18 19  1  0  0  0  0
 19 14  2  0  0  0  0
 20 29  1  0  0  0  0
 21 20  2  0  0  0  0
 22 21  1  0  0  0  0
 23 22  2  0  0  0  0
 23 24  1  0  0  0  0
 24 25  2  0  0  0  0
 25 20  1  0  0  0  0
 27 26  1  1  0  0  0
 27 30  1  0  0  0  0
 28 27  1  0  0  0  0
 28 29  1  0  0  0  0
 29 31  1  1  0  0  0
 29 30  1  0  0  0  0
 31 33  1  0  0  0  0
 31 32  1  0  0  0  0
 34 31  1  0  0  0  0
 35 27  1  0  0  0  0
 36 35  1  0  0  0  0
 37  9  1  0  0  0  0
 38 37  1  0  0  0  0
 39 37  1  0  0  0  0
M  END
>  <minimizedAffinity>
-2.86072612

$$$$
