
 OpenBabel10152418433D

 34 37  0  0  0  0  0  0  0  0999 V2000
   -1.1970  -11.0380  -21.7980 C   0  0  0  0  0  0  0  0  0  0  0  0
   -0.6930  -12.0370  -22.6460 C   0  0  0  0  0  3  0  0  0  0  0  0
   -0.2290  -11.6930  -23.9050 C   0  0  0  0  0  3  0  0  0  0  0  0
   -0.2670  -10.3580  -24.3000 C   0  0  0  0  0  3  0  0  0  0  0  0
   -0.7640   -9.3430  -23.4390 C   0  0  0  0  0  0  0  0  0  0  0  0
   -0.8280   -7.9780  -23.7810 C   0  0  0  0  0  0  0  0  0  0  0  0
   -0.3650   -7.5330  -25.0130 N   0  0  0  0  0  0  0  0  0  0  0  0
   -1.3610   -7.0650  -22.9520 N   0  0  0  0  0  0  0  0  0  0  0  0
   -1.7790   -7.4970  -21.7620 C   0  0  0  0  0  3  0  0  0  0  0  0
   -1.7240   -8.7540  -21.3230 N   0  0  0  0  0  0  0  0  0  0  0  0
   -1.2480   -9.6870  -22.1640 C   0  0  0  0  0  0  0  0  0  0  0  0
    0.5000   -7.9210  -25.3600 H   0  0  0  0  0  0  0  0  0  0  0  0
   -0.7990  -12.0380  -19.6450 N   0  0  0  0  0  0  0  0  0  0  0  0
   -1.7160  -11.4660  -20.4840 C   0  0  0  0  0  0  0  0  0  0  0  0
   -2.8970  -11.3720  -20.1830 O   0  0  0  0  0  0  0  0  0  0  0  0
   -1.1270  -12.3410  -18.7360 H   0  0  0  0  0  0  0  0  0  0  0  0
    0.1860  -12.1050  -19.8570 H   0  0  0  0  0  0  0  0  0  0  0  0
   -0.7660   -6.2320  -25.5080 C   0  0  0  0  0  2  0  0  0  0  0  0
    0.0940   -5.8080  -26.6790 C   0  0  0  0  0  0  0  0  0  0  0  0
   -0.2780   -4.7230  -27.4790 C   0  0  0  0  0  3  0  0  0  0  0  0
    0.6060   -4.2300  -28.4370 C   0  0  0  0  0  3  0  0  0  0  0  0
    1.8590   -4.8250  -28.6150 C   0  0  0  0  0  3  0  0  0  0  0  0
    2.2150   -5.9600  -27.8960 C   0  0  0  0  0  0  0  0  0  0  0  0
    1.3370   -6.4270  -26.9080 C   0  0  0  0  0  3  0  0  0  0  0  0
    3.4790   -6.5680  -27.9680 N   0  0  0  0  0  0  0  0  0  0  0  0
    3.9040   -7.8040  -28.3440 C   0  0  0  0  0  0  0  0  0  0  0  0
    4.9730   -7.8420  -28.9720 O   0  0  0  0  0  0  0  0  0  0  0  0
    4.2510   -5.9090  -27.9800 H   0  0  0  0  0  0  0  0  0  0  0  0
    3.3590   -9.1230  -27.7750 C   0  0  0  0  0  3  0  0  0  0  0  0
    4.2530  -10.2630  -28.3040 C   0  0  0  0  0  2  0  0  0  0  0  0
    3.6650  -11.6370  -27.9950 C   0  0  0  0  0  2  0  0  0  0  0  0
    3.4090  -11.8130  -26.5040 C   0  0  0  0  0  2  0  0  0  0  0  0
    2.5430  -10.6880  -25.9550 C   0  0  0  0  0  2  0  0  0  0  0  0
    3.1170   -9.3070  -26.2800 C   0  0  0  0  0  2  0  0  0  0  0  0
  1 14  1  0  0  0  0
  2  1  2  0  0  0  0
  3  2  1  0  0  0  0
  4  3  2  0  0  0  0
  4  5  1  0  0  0  0
  5 11  1  0  0  0  0
  6  5  2  0  0  0  0
  6  8  1  0  0  0  0
  7  6  1  0  0  0  0
  8  9  2  0  0  0  0
  9 10  1  0  0  0  0
 11  1  1  0  0  0  0
 11 10  2  0  0  0  0
 12  7  1  0  0  0  0
 13 16  1  0  0  0  0
 14 15  2  0  0  0  0
 14 13  1  0  0  0  0
 17 13  1  0  0  0  0
 18  7  1  0  0  0  0
 19 18  1  0  0  0  0
 20 19  2  0  0  0  0
 21 20  1  0  0  0  0
 22 21  2  0  0  0  0
 22 23  1  0  0  0  0
 23 24  2  0  0  0  0
 24 19  1  0  0  0  0
 25 23  1  0  0  0  0
 26 25  1  0  0  0  0
 26 29  1  0  0  0  0
 27 26  2  0  0  0  0
 28 25  1  0  0  0  0
 29 34  1  0  0  0  0
 30 31  1  0  0  0  0
 30 29  1  0  0  0  0
 31 32  1  0  0  0  0
 32 33  1  0  0  0  0
 34 33  1  0  0  0  0
M  END
>  <minimizedAffinity>
-9.50004673

$$$$

 OpenBabel10152418433D

 34 37  0  0  0  0  0  0  0  0999 V2000
    4.4290   -8.6420  -28.9590 C   0  0  0  0  0  0  0  0  0  0  0  0
    4.5300   -7.3810  -28.3500 C   0  0  0  0  0  3  0  0  0  0  0  0
    4.1280   -7.2240  -27.0340 C   0  0  0  0  0  3  0  0  0  0  0  0
    3.6390   -8.3270  -26.3390 C   0  0  0  0  0  3  0  0  0  0  0  0
    3.5470   -9.6080  -26.9480 C   0  0  0  0  0  0  0  0  0  0  0  0
    3.0610  -10.7590  -26.2980 C   0  0  0  0  0  0  0  0  0  0  0  0
    2.6570  -10.7060  -24.9690 N   0  0  0  0  0  0  0  0  0  0  0  0
    2.9410  -11.9350  -26.9360 N   0  0  0  0  0  0  0  0  0  0  0  0
    3.3560  -11.9830  -28.2020 C   0  0  0  0  0  3  0  0  0  0  0  0
    3.8710  -10.9680  -28.8950 N   0  0  0  0  0  0  0  0  0  0  0  0
    3.9420   -9.7710  -28.2880 C   0  0  0  0  0  0  0  0  0  0  0  0
    3.2250  -10.1760  -24.3240 H   0  0  0  0  0  0  0  0  0  0  0  0
    4.9740   -7.5530  -31.0350 N   0  0  0  0  0  0  0  0  0  0  0  0
    4.8320   -8.7430  -30.3750 C   0  0  0  0  0  0  0  0  0  0  0  0
    4.9740   -9.8170  -30.9420 O   0  0  0  0  0  0  0  0  0  0  0  0
    5.2500   -7.5910  -32.0080 H   0  0  0  0  0  0  0  0  0  0  0  0
    4.8880   -6.6530  -30.5850 H   0  0  0  0  0  0  0  0  0  0  0  0
    1.8230  -11.7590  -24.4250 C   0  0  0  0  0  2  0  0  0  0  0  0
    0.5700  -11.1890  -23.7960 C   0  0  0  0  0  0  0  0  0  0  0  0
   -0.4110  -12.0370  -23.2720 C   0  0  0  0  0  3  0  0  0  0  0  0
   -1.4690  -11.5060  -22.5370 C   0  0  0  0  0  3  0  0  0  0  0  0
   -1.5630  -10.1250  -22.3330 C   0  0  0  0  0  3  0  0  0  0  0  0
   -0.6520   -9.2550  -22.9200 C   0  0  0  0  0  0  0  0  0  0  0  0
    0.4310   -9.8000  -23.6260 C   0  0  0  0  0  3  0  0  0  0  0  0
   -0.6410   -7.8680  -22.7020 N   0  0  0  0  0  0  0  0  0  0  0  0
   -0.9010   -6.7930  -23.4930 C   0  0  0  0  0  0  0  0  0  0  0  0
   -1.4970   -5.8500  -22.9500 O   0  0  0  0  0  0  0  0  0  0  0  0
   -0.6890   -7.6060  -21.7230 H   0  0  0  0  0  0  0  0  0  0  0  0
   -0.2370   -6.5330  -24.8540 C   0  0  0  0  0  3  0  0  0  0  0  0
   -0.6920   -7.6510  -25.8150 C   0  0  0  0  0  2  0  0  0  0  0  0
    0.0890   -7.6290  -27.1260 C   0  0  0  0  0  2  0  0  0  0  0  0
   -0.0050   -6.2720  -27.8100 C   0  0  0  0  0  2  0  0  0  0  0  0
    0.4230   -5.1500  -26.8740 C   0  0  0  0  0  2  0  0  0  0  0  0
   -0.3440   -5.1800  -25.5490 C   0  0  0  0  0  2  0  0  0  0  0  0
  1  2  2  0  0  0  0
  1 11  1  0  0  0  0
  2  3  1  0  0  0  0
  3  4  2  0  0  0  0
  5  4  1  0  0  0  0
  5  6  1  0  0  0  0
  6  7  1  0  0  0  0
  7 18  1  0  0  0  0
  7 12  1  0  0  0  0
  8  6  2  0  0  0  0
  9  8  1  0  0  0  0
 10 11  1  0  0  0  0
 10  9  2  0  0  0  0
 11  5  2  0  0  0  0
 13 17  1  0  0  0  0
 13 14  1  0  0  0  0
 14  1  1  0  0  0  0
 15 14  2  0  0  0  0
 16 13  1  0  0  0  0
 18 19  1  0  0  0  0
 19 24  2  0  0  0  0
 19 20  1  0  0  0  0
 20 21  2  0  0  0  0
 21 22  1  0  0  0  0
 23 25  1  0  0  0  0
 23 22  2  0  0  0  0
 24 23  1  0  0  0  0
 25 28  1  0  0  0  0
 26 27  2  0  0  0  0
 26 25  1  0  0  0  0
 29 26  1  0  0  0  0
 30 29  1  0  0  0  0
 31 30  1  0  0  0  0
 32 31  1  0  0  0  0
 32 33  1  0  0  0  0
 33 34  1  0  0  0  0
 34 29  1  0  0  0  0
M  END
>  <minimizedAffinity>
-9.23290157

$$$$

 OpenBabel10152418433D

 34 37  0  0  0  0  0  0  0  0999 V2000
   -0.5830  -10.0750  -24.3980 C   0  0  0  0  0  0  0  0  0  0  0  0
   -1.0890  -11.2790  -24.9120 C   0  0  0  0  0  3  0  0  0  0  0  0
   -0.3210  -12.0230  -25.7920 C   0  0  0  0  0  3  0  0  0  0  0  0
    0.9450  -11.5600  -26.1430 C   0  0  0  0  0  3  0  0  0  0  0  0
    1.4650  -10.3470  -25.6160 C   0  0  0  0  0  0  0  0  0  0  0  0
    2.7360   -9.8280  -25.9330 C   0  0  0  0  0  0  0  0  0  0  0  0
    3.5890  -10.5150  -26.7890 N   0  0  0  0  0  0  0  0  0  0  0  0
    3.1580   -8.6470  -25.4520 N   0  0  0  0  0  0  0  0  0  0  0  0
    2.3440   -8.0090  -24.6110 C   0  0  0  0  0  3  0  0  0  0  0  0
    1.1450   -8.4310  -24.2110 N   0  0  0  0  0  0  0  0  0  0  0  0
    0.6840   -9.5820  -24.7310 C   0  0  0  0  0  0  0  0  0  0  0  0
    3.6570  -11.5160  -26.6830 H   0  0  0  0  0  0  0  0  0  0  0  0
   -0.9540   -9.0500  -22.2520 N   0  0  0  0  0  0  0  0  0  0  0  0
   -1.4610   -9.3030  -23.4970 C   0  0  0  0  0  0  0  0  0  0  0  0
   -2.5910   -8.9590  -23.8160 O   0  0  0  0  0  0  0  0  0  0  0  0
   -1.5340   -8.5210  -21.6120 H   0  0  0  0  0  0  0  0  0  0  0  0
   -0.0160   -9.2990  -21.9710 H   0  0  0  0  0  0  0  0  0  0  0  0
    4.7040   -9.8240  -27.4030 C   0  0  0  0  0  2  0  0  0  0  0  0
    4.2770   -9.1280  -28.6770 C   0  0  0  0  0  0  0  0  0  0  0  0
    4.3740   -9.7790  -29.9110 C   0  0  0  0  0  3  0  0  0  0  0  0
    3.8130   -9.2020  -31.0480 C   0  0  0  0  0  3  0  0  0  0  0  0
    3.1640   -7.9650  -30.9660 C   0  0  0  0  0  3  0  0  0  0  0  0
    3.1340   -7.2570  -29.7710 C   0  0  0  0  0  0  0  0  0  0  0  0
    3.6680   -7.8610  -28.6230 C   0  0  0  0  0  3  0  0  0  0  0  0
    2.4430   -6.0470  -29.5950 N   0  0  0  0  0  0  0  0  0  0  0  0
    1.9540   -5.3970  -28.5050 C   0  0  0  0  0  0  0  0  0  0  0  0
    2.0590   -4.1610  -28.5170 O   0  0  0  0  0  0  0  0  0  0  0  0
    2.5260   -5.4090  -30.3800 H   0  0  0  0  0  0  0  0  0  0  0  0
    1.0150   -6.0260  -27.4640 C   0  0  0  0  0  3  0  0  0  0  0  0
    0.2730   -4.8770  -26.7520 C   0  0  0  0  0  2  0  0  0  0  0  0
   -0.5110   -5.3700  -25.5390 C   0  0  0  0  0  2  0  0  0  0  0  0
   -1.4860   -6.4770  -25.9150 C   0  0  0  0  0  2  0  0  0  0  0  0
   -0.7780   -7.6160  -26.6370 C   0  0  0  0  0  2  0  0  0  0  0  0
    0.0250   -7.1230  -27.8430 C   0  0  0  0  0  2  0  0  0  0  0  0
  1 14  1  0  0  0  0
  2  1  2  0  0  0  0
  3  2  1  0  0  0  0
  4  3  2  0  0  0  0
  4  5  1  0  0  0  0
  5 11  1  0  0  0  0
  6  5  2  0  0  0  0
  6  8  1  0  0  0  0
  7 12  1  0  0  0  0
  7  6  1  0  0  0  0
  8  9  2  0  0  0  0
  9 10  1  0  0  0  0
 11  1  1  0  0  0  0
 11 10  2  0  0  0  0
 13 17  1  0  0  0  0
 13 16  1  0  0  0  0
 14 13  1  0  0  0  0
 15 14  2  0  0  0  0
 18  7  1  0  0  0  0
 19 24  1  0  0  0  0
 19 18  1  0  0  0  0
 20 19  2  0  0  0  0
 21 22  2  0  0  0  0
 21 20  1  0  0  0  0
 22 23  1  0  0  0  0
 23 25  1  0  0  0  0
 23 24  2  0  0  0  0
 25 26  1  0  0  0  0
 26 29  1  0  0  0  0
 27 26  2  0  0  0  0
 28 25  1  0  0  0  0
 29 30  1  0  0  0  0
 30 31  1  0  0  0  0
 32 31  1  0  0  0  0
 33 32  1  0  0  0  0
 34 29  1  0  0  0  0
 34 33  1  0  0  0  0
M  END
>  <minimizedAffinity>
-8.09444046

$$$$

 OpenBabel10152418433D

 34 37  0  0  0  0  0  0  0  0999 V2000
   -1.4180   -8.7480  -22.3440 C   0  0  0  0  0  0  0  0  0  0  0  0
   -1.3810   -7.4570  -22.8930 C   0  0  0  0  0  3  0  0  0  0  0  0
   -0.6590   -7.2280  -24.0530 C   0  0  0  0  0  3  0  0  0  0  0  0
    0.0110   -8.2900  -24.6540 C   0  0  0  0  0  3  0  0  0  0  0  0
   -0.0340   -9.6010  -24.1070 C   0  0  0  0  0  0  0  0  0  0  0  0
    0.6220  -10.7140  -24.6680 C   0  0  0  0  0  0  0  0  0  0  0  0
    1.3520  -10.5890  -25.8440 N   0  0  0  0  0  0  0  0  0  0  0  0
    0.5950  -11.9220  -24.0810 N   0  0  0  0  0  0  0  0  0  0  0  0
   -0.1290  -12.0390  -22.9670 C   0  0  0  0  0  3  0  0  0  0  0  0
   -0.8220  -11.0640  -22.3790 N   0  0  0  0  0  0  0  0  0  0  0  0
   -0.7560   -9.8370  -22.9230 C   0  0  0  0  0  0  0  0  0  0  0  0
    0.9590  -10.0280  -26.5860 H   0  0  0  0  0  0  0  0  0  0  0  0
   -2.0620   -7.9010  -20.1850 N   0  0  0  0  0  0  0  0  0  0  0  0
   -2.1680   -8.9260  -21.0850 C   0  0  0  0  0  0  0  0  0  0  0  0
   -2.7970   -9.9440  -20.8340 O   0  0  0  0  0  0  0  0  0  0  0  0
   -2.5670   -7.9950  -19.3120 H   0  0  0  0  0  0  0  0  0  0  0  0
   -1.5720   -7.0390  -20.3770 H   0  0  0  0  0  0  0  0  0  0  0  0
    2.3150  -11.6080  -26.2090 C   0  0  0  0  0  2  0  0  0  0  0  0
    3.1450  -11.1710  -27.3960 C   0  0  0  0  0  0  0  0  0  0  0  0
    3.3610  -12.0390  -28.4710 C   0  0  0  0  0  3  0  0  0  0  0  0
    3.9700  -11.5690  -29.6330 C   0  0  0  0  0  3  0  0  0  0  0  0
    4.3810  -10.2350  -29.7250 C   0  0  0  0  0  3  0  0  0  0  0  0
    4.2600   -9.3780  -28.6380 C   0  0  0  0  0  0  0  0  0  0  0  0
    3.6120   -9.8470  -27.4860 C   0  0  0  0  0  3  0  0  0  0  0  0
    4.5820   -8.0120  -28.6780 N   0  0  0  0  0  0  0  0  0  0  0  0
    4.0000   -6.8950  -28.1660 C   0  0  0  0  0  0  0  0  0  0  0  0
    4.7740   -6.0260  -27.7370 O   0  0  0  0  0  0  0  0  0  0  0  0
    5.5510   -7.8260  -28.9200 H   0  0  0  0  0  0  0  0  0  0  0  0
    2.5300   -6.5020  -28.3840 C   0  0  0  0  0  3  0  0  0  0  0  0
    1.6900   -7.2380  -27.3200 C   0  0  0  0  0  2  0  0  0  0  0  0
    0.1920   -7.1080  -27.5880 C   0  0  0  0  0  2  0  0  0  0  0  0
   -0.2340   -5.6500  -27.6840 C   0  0  0  0  0  2  0  0  0  0  0  0
    0.5950   -4.8980  -28.7170 C   0  0  0  0  0  2  0  0  0  0  0  0
    2.0980   -5.0420  -28.4640 C   0  0  0  0  0  2  0  0  0  0  0  0
  1 14  1  0  0  0  0
  2  1  1  0  0  0  0
  3  2  2  0  0  0  0
  4  5  2  0  0  0  0
  4  3  1  0  0  0  0
  5 11  1  0  0  0  0
  6  5  1  0  0  0  0
  6  8  2  0  0  0  0
  7  6  1  0  0  0  0
  8  9  1  0  0  0  0
  9 10  2  0  0  0  0
 11 10  1  0  0  0  0
 11  1  2  0  0  0  0
 12  7  1  0  0  0  0
 13 16  1  0  0  0  0
 14 15  2  0  0  0  0
 14 13  1  0  0  0  0
 17 13  1  0  0  0  0
 18  7  1  0  0  0  0
 19 18  1  0  0  0  0
 20 19  2  0  0  0  0
 21 20  1  0  0  0  0
 22 21  2  0  0  0  0
 22 23  1  0  0  0  0
 23 24  2  0  0  0  0
 24 19  1  0  0  0  0
 25 23  1  0  0  0  0
 25 26  1  0  0  0  0
 26 27  2  0  0  0  0
 28 25  1  0  0  0  0
 29 26  1  0  0  0  0
 29 30  1  0  0  0  0
 31 30  1  0  0  0  0
 32 31  1  0  0  0  0
 33 34  1  0  0  0  0
 33 32  1  0  0  0  0
 34 29  1  0  0  0  0
M  END
>  <minimizedAffinity>
-7.94847202

$$$$

 OpenBabel10152418433D

 34 37  0  0  0  0  0  0  0  0999 V2000
   -0.1380   -3.6820  -26.9390 C   0  0  0  0  0  0  0  0  0  0  0  0
    0.5730   -3.3170  -28.0930 C   0  0  0  0  0  3  0  0  0  0  0  0
    1.4930   -4.1980  -28.6360 C   0  0  0  0  0  3  0  0  0  0  0  0
    1.6860   -5.4360  -28.0270 C   0  0  0  0  0  3  0  0  0  0  0  0
    0.9590   -5.8140  -26.8660 C   0  0  0  0  0  0  0  0  0  0  0  0
    1.1100   -7.0490  -26.2060 C   0  0  0  0  0  0  0  0  0  0  0  0
    1.9910   -8.0090  -26.6900 N   0  0  0  0  0  0  0  0  0  0  0  0
    0.4390   -7.3350  -25.0780 N   0  0  0  0  0  0  0  0  0  0  0  0
   -0.4230   -6.4190  -24.6360 C   0  0  0  0  0  3  0  0  0  0  0  0
   -0.6740   -5.2420  -25.2070 N   0  0  0  0  0  0  0  0  0  0  0  0
    0.0330   -4.9170  -26.3020 C   0  0  0  0  0  0  0  0  0  0  0  0
    2.0220   -8.1600  -27.6880 H   0  0  0  0  0  0  0  0  0  0  0  0
   -0.6100   -1.4010  -26.3330 N   0  0  0  0  0  0  0  0  0  0  0  0
   -1.0740   -2.6870  -26.3790 C   0  0  0  0  0  0  0  0  0  0  0  0
   -2.1690   -2.9960  -25.9310 O   0  0  0  0  0  0  0  0  0  0  0  0
   -1.2310   -0.6970  -25.9540 H   0  0  0  0  0  0  0  0  0  0  0  0
    0.2780   -1.1140  -26.7180 H   0  0  0  0  0  0  0  0  0  0  0  0
    2.4230   -9.0920  -25.8300 C   0  0  0  0  0  2  0  0  0  0  0  0
    1.2810  -10.0420  -25.5410 C   0  0  0  0  0  0  0  0  0  0  0  0
    0.7190  -10.8120  -26.5640 C   0  0  0  0  0  3  0  0  0  0  0  0
   -0.2020  -11.8110  -26.2570 C   0  0  0  0  0  3  0  0  0  0  0  0
   -0.5810  -12.0380  -24.9300 C   0  0  0  0  0  3  0  0  0  0  0  0
   -0.1070  -11.2270  -23.9060 C   0  0  0  0  0  0  0  0  0  0  0  0
    0.8490  -10.2500  -24.2180 C   0  0  0  0  0  3  0  0  0  0  0  0
   -0.3850  -11.4390  -22.5460 N   0  0  0  0  0  0  0  0  0  0  0  0
   -1.4640  -11.1810  -21.7590 C   0  0  0  0  0  0  0  0  0  0  0  0
   -1.7300  -12.0390  -20.9030 O   0  0  0  0  0  0  0  0  0  0  0  0
    0.2160  -12.1290  -22.1070 H   0  0  0  0  0  0  0  0  0  0  0  0
   -2.1380   -9.8060  -21.6310 C   0  0  0  0  0  3  0  0  0  0  0  0
   -1.2690   -8.9490  -20.6890 C   0  0  0  0  0  2  0  0  0  0  0  0
   -1.9640   -7.6460  -20.3010 C   0  0  0  0  0  2  0  0  0  0  0  0
   -2.3670   -6.8410  -21.5300 C   0  0  0  0  0  2  0  0  0  0  0  0
   -3.2110   -7.6740  -22.4840 C   0  0  0  0  0  2  0  0  0  0  0  0
   -2.5270   -8.9910  -22.8590 C   0  0  0  0  0  2  0  0  0  0  0  0
  1 14  1  0  0  0  0
  1 11  1  0  0  0  0
  2  1  2  0  0  0  0
  3  2  1  0  0  0  0
  3  4  2  0  0  0  0
  4  5  1  0  0  0  0
  5 11  2  0  0  0  0
  5  6  1  0  0  0  0
  6  8  2  0  0  0  0
  7  6  1  0  0  0  0
  7 18  1  0  0  0  0
  8  9  1  0  0  0  0
 10  9  2  0  0  0  0
 11 10  1  0  0  0  0
 12  7  1  0  0  0  0
 13 16  1  0  0  0  0
 14 13  1  0  0  0  0
 14 15  2  0  0  0  0
 17 13  1  0  0  0  0
 18 19  1  0  0  0  0
 19 24  1  0  0  0  0
 20 21  1  0  0  0  0
 20 19  2  0  0  0  0
 21 22  2  0  0  0  0
 22 23  1  0  0  0  0
 23 25  1  0  0  0  0
 24 23  2  0  0  0  0
 25 28  1  0  0  0  0
 25 26  1  0  0  0  0
 26 29  1  0  0  0  0
 26 27  2  0  0  0  0
 29 30  1  0  0  0  0
 30 31  1  0  0  0  0
 32 31  1  0  0  0  0
 33 32  1  0  0  0  0
 34 33  1  0  0  0  0
 34 29  1  0  0  0  0
M  END
>  <minimizedAffinity>
-7.14774084

$$$$
