
 OpenBabel10152418433D

 34 37  0  0  0  0  0  0  0  0999 V2000
   -1.4180   -8.7480  -22.3440 C   0  0  0  0  0  0  0  0  0  0  0  0
   -1.3810   -7.4570  -22.8930 C   0  0  0  0  0  3  0  0  0  0  0  0
   -0.6590   -7.2280  -24.0530 C   0  0  0  0  0  3  0  0  0  0  0  0
    0.0110   -8.2900  -24.6540 C   0  0  0  0  0  3  0  0  0  0  0  0
   -0.0340   -9.6010  -24.1070 C   0  0  0  0  0  0  0  0  0  0  0  0
    0.6220  -10.7140  -24.6680 C   0  0  0  0  0  0  0  0  0  0  0  0
    1.3520  -10.5890  -25.8440 N   0  0  0  0  0  0  0  0  0  0  0  0
    0.5950  -11.9220  -24.0810 N   0  0  0  0  0  0  0  0  0  0  0  0
   -0.1290  -12.0390  -22.9670 C   0  0  0  0  0  3  0  0  0  0  0  0
   -0.8220  -11.0640  -22.3790 N   0  0  0  0  0  0  0  0  0  0  0  0
   -0.7560   -9.8370  -22.9230 C   0  0  0  0  0  0  0  0  0  0  0  0
    0.9590  -10.0280  -26.5860 H   0  0  0  0  0  0  0  0  0  0  0  0
   -2.0620   -7.9010  -20.1850 N   0  0  0  0  0  0  0  0  0  0  0  0
   -2.1680   -8.9260  -21.0850 C   0  0  0  0  0  0  0  0  0  0  0  0
   -2.7970   -9.9440  -20.8340 O   0  0  0  0  0  0  0  0  0  0  0  0
   -2.5670   -7.9950  -19.3120 H   0  0  0  0  0  0  0  0  0  0  0  0
   -1.5720   -7.0390  -20.3770 H   0  0  0  0  0  0  0  0  0  0  0  0
    2.3150  -11.6080  -26.2090 C   0  0  0  0  0  2  0  0  0  0  0  0
    3.1450  -11.1710  -27.3960 C   0  0  0  0  0  0  0  0  0  0  0  0
    3.3610  -12.0390  -28.4710 C   0  0  0  0  0  3  0  0  0  0  0  0
    3.9700  -11.5690  -29.6330 C   0  0  0  0  0  3  0  0  0  0  0  0
    4.3810  -10.2350  -29.7250 C   0  0  0  0  0  3  0  0  0  0  0  0
    4.2600   -9.3780  -28.6380 C   0  0  0  0  0  0  0  0  0  0  0  0
    3.6120   -9.8470  -27.4860 C   0  0  0  0  0  3  0  0  0  0  0  0
    4.5820   -8.0120  -28.6780 N   0  0  0  0  0  0  0  0  0  0  0  0
    4.0000   -6.8950  -28.1660 C   0  0  0  0  0  0  0  0  0  0  0  0
    4.7740   -6.0260  -27.7370 O   0  0  0  0  0  0  0  0  0  0  0  0
    5.5510   -7.8260  -28.9200 H   0  0  0  0  0  0  0  0  0  0  0  0
    2.5300   -6.5020  -28.3840 C   0  0  0  0  0  3  0  0  0  0  0  0
    1.6900   -7.2380  -27.3200 C   0  0  0  0  0  2  0  0  0  0  0  0
    0.1920   -7.1080  -27.5880 C   0  0  0  0  0  2  0  0  0  0  0  0
   -0.2340   -5.6500  -27.6840 C   0  0  0  0  0  2  0  0  0  0  0  0
    0.5950   -4.8980  -28.7170 C   0  0  0  0  0  2  0  0  0  0  0  0
    2.0980   -5.0420  -28.4640 C   0  0  0  0  0  2  0  0  0  0  0  0
  1 14  1  0  0  0  0
  2  1  1  0  0  0  0
  3  2  2  0  0  0  0
  4  5  2  0  0  0  0
  4  3  1  0  0  0  0
  5 11  1  0  0  0  0
  6  5  1  0  0  0  0
  6  8  2  0  0  0  0
  7  6  1  0  0  0  0
  8  9  1  0  0  0  0
  9 10  2  0  0  0  0
 11 10  1  0  0  0  0
 11  1  2  0  0  0  0
 12  7  1  0  0  0  0
 13 16  1  0  0  0  0
 14 15  2  0  0  0  0
 14 13  1  0  0  0  0
 17 13  1  0  0  0  0
 18  7  1  0  0  0  0
 19 18  1  0  0  0  0
 20 19  2  0  0  0  0
 21 20  1  0  0  0  0
 22 21  2  0  0  0  0
 22 23  1  0  0  0  0
 23 24  2  0  0  0  0
 24 19  1  0  0  0  0
 25 23  1  0  0  0  0
 25 26  1  0  0  0  0
 26 27  2  0  0  0  0
 28 25  1  0  0  0  0
 29 26  1  0  0  0  0
 29 30  1  0  0  0  0
 31 30  1  0  0  0  0
 32 31  1  0  0  0  0
 33 34  1  0  0  0  0
 33 32  1  0  0  0  0
 34 29  1  0  0  0  0
M  END
>  <minimizedAffinity>
-7.94847202

$$$$
