
 OpenBabel10152418433D

 34 37  0  0  0  0  0  0  0  0999 V2000
   -0.1380   -3.6820  -26.9390 C   0  0  0  0  0  0  0  0  0  0  0  0
    0.5730   -3.3170  -28.0930 C   0  0  0  0  0  3  0  0  0  0  0  0
    1.4930   -4.1980  -28.6360 C   0  0  0  0  0  3  0  0  0  0  0  0
    1.6860   -5.4360  -28.0270 C   0  0  0  0  0  3  0  0  0  0  0  0
    0.9590   -5.8140  -26.8660 C   0  0  0  0  0  0  0  0  0  0  0  0
    1.1100   -7.0490  -26.2060 C   0  0  0  0  0  0  0  0  0  0  0  0
    1.9910   -8.0090  -26.6900 N   0  0  0  0  0  0  0  0  0  0  0  0
    0.4390   -7.3350  -25.0780 N   0  0  0  0  0  0  0  0  0  0  0  0
   -0.4230   -6.4190  -24.6360 C   0  0  0  0  0  3  0  0  0  0  0  0
   -0.6740   -5.2420  -25.2070 N   0  0  0  0  0  0  0  0  0  0  0  0
    0.0330   -4.9170  -26.3020 C   0  0  0  0  0  0  0  0  0  0  0  0
    2.0220   -8.1600  -27.6880 H   0  0  0  0  0  0  0  0  0  0  0  0
   -0.6100   -1.4010  -26.3330 N   0  0  0  0  0  0  0  0  0  0  0  0
   -1.0740   -2.6870  -26.3790 C   0  0  0  0  0  0  0  0  0  0  0  0
   -2.1690   -2.9960  -25.9310 O   0  0  0  0  0  0  0  0  0  0  0  0
   -1.2310   -0.6970  -25.9540 H   0  0  0  0  0  0  0  0  0  0  0  0
    0.2780   -1.1140  -26.7180 H   0  0  0  0  0  0  0  0  0  0  0  0
    2.4230   -9.0920  -25.8300 C   0  0  0  0  0  2  0  0  0  0  0  0
    1.2810  -10.0420  -25.5410 C   0  0  0  0  0  0  0  0  0  0  0  0
    0.7190  -10.8120  -26.5640 C   0  0  0  0  0  3  0  0  0  0  0  0
   -0.2020  -11.8110  -26.2570 C   0  0  0  0  0  3  0  0  0  0  0  0
   -0.5810  -12.0380  -24.9300 C   0  0  0  0  0  3  0  0  0  0  0  0
   -0.1070  -11.2270  -23.9060 C   0  0  0  0  0  0  0  0  0  0  0  0
    0.8490  -10.2500  -24.2180 C   0  0  0  0  0  3  0  0  0  0  0  0
   -0.3850  -11.4390  -22.5460 N   0  0  0  0  0  0  0  0  0  0  0  0
   -1.4640  -11.1810  -21.7590 C   0  0  0  0  0  0  0  0  0  0  0  0
   -1.7300  -12.0390  -20.9030 O   0  0  0  0  0  0  0  0  0  0  0  0
    0.2160  -12.1290  -22.1070 H   0  0  0  0  0  0  0  0  0  0  0  0
   -2.1380   -9.8060  -21.6310 C   0  0  0  0  0  3  0  0  0  0  0  0
   -1.2690   -8.9490  -20.6890 C   0  0  0  0  0  2  0  0  0  0  0  0
   -1.9640   -7.6460  -20.3010 C   0  0  0  0  0  2  0  0  0  0  0  0
   -2.3670   -6.8410  -21.5300 C   0  0  0  0  0  2  0  0  0  0  0  0
   -3.2110   -7.6740  -22.4840 C   0  0  0  0  0  2  0  0  0  0  0  0
   -2.5270   -8.9910  -22.8590 C   0  0  0  0  0  2  0  0  0  0  0  0
  1 14  1  0  0  0  0
  1 11  1  0  0  0  0
  2  1  2  0  0  0  0
  3  2  1  0  0  0  0
  3  4  2  0  0  0  0
  4  5  1  0  0  0  0
  5 11  2  0  0  0  0
  5  6  1  0  0  0  0
  6  8  2  0  0  0  0
  7  6  1  0  0  0  0
  7 18  1  0  0  0  0
  8  9  1  0  0  0  0
 10  9  2  0  0  0  0
 11 10  1  0  0  0  0
 12  7  1  0  0  0  0
 13 16  1  0  0  0  0
 14 13  1  0  0  0  0
 14 15  2  0  0  0  0
 17 13  1  0  0  0  0
 18 19  1  0  0  0  0
 19 24  1  0  0  0  0
 20 21  1  0  0  0  0
 20 19  2  0  0  0  0
 21 22  2  0  0  0  0
 22 23  1  0  0  0  0
 23 25  1  0  0  0  0
 24 23  2  0  0  0  0
 25 28  1  0  0  0  0
 25 26  1  0  0  0  0
 26 29  1  0  0  0  0
 26 27  2  0  0  0  0
 29 30  1  0  0  0  0
 30 31  1  0  0  0  0
 32 31  1  0  0  0  0
 33 32  1  0  0  0  0
 34 33  1  0  0  0  0
 34 29  1  0  0  0  0
M  END
>  <minimizedAffinity>
-7.14774084

$$$$
