
 OpenBabel10152418433D

 34 37  0  0  0  0  0  0  0  0999 V2000
   -1.1970  -11.0380  -21.7980 C   0  0  0  0  0  0  0  0  0  0  0  0
   -0.6930  -12.0370  -22.6460 C   0  0  0  0  0  3  0  0  0  0  0  0
   -0.2290  -11.6930  -23.9050 C   0  0  0  0  0  3  0  0  0  0  0  0
   -0.2670  -10.3580  -24.3000 C   0  0  0  0  0  3  0  0  0  0  0  0
   -0.7640   -9.3430  -23.4390 C   0  0  0  0  0  0  0  0  0  0  0  0
   -0.8280   -7.9780  -23.7810 C   0  0  0  0  0  0  0  0  0  0  0  0
   -0.3650   -7.5330  -25.0130 N   0  0  0  0  0  0  0  0  0  0  0  0
   -1.3610   -7.0650  -22.9520 N   0  0  0  0  0  0  0  0  0  0  0  0
   -1.7790   -7.4970  -21.7620 C   0  0  0  0  0  3  0  0  0  0  0  0
   -1.7240   -8.7540  -21.3230 N   0  0  0  0  0  0  0  0  0  0  0  0
   -1.2480   -9.6870  -22.1640 C   0  0  0  0  0  0  0  0  0  0  0  0
    0.5000   -7.9210  -25.3600 H   0  0  0  0  0  0  0  0  0  0  0  0
   -0.7990  -12.0380  -19.6450 N   0  0  0  0  0  0  0  0  0  0  0  0
   -1.7160  -11.4660  -20.4840 C   0  0  0  0  0  0  0  0  0  0  0  0
   -2.8970  -11.3720  -20.1830 O   0  0  0  0  0  0  0  0  0  0  0  0
   -1.1270  -12.3410  -18.7360 H   0  0  0  0  0  0  0  0  0  0  0  0
    0.1860  -12.1050  -19.8570 H   0  0  0  0  0  0  0  0  0  0  0  0
   -0.7660   -6.2320  -25.5080 C   0  0  0  0  0  2  0  0  0  0  0  0
    0.0940   -5.8080  -26.6790 C   0  0  0  0  0  0  0  0  0  0  0  0
   -0.2780   -4.7230  -27.4790 C   0  0  0  0  0  3  0  0  0  0  0  0
    0.6060   -4.2300  -28.4370 C   0  0  0  0  0  3  0  0  0  0  0  0
    1.8590   -4.8250  -28.6150 C   0  0  0  0  0  3  0  0  0  0  0  0
    2.2150   -5.9600  -27.8960 C   0  0  0  0  0  0  0  0  0  0  0  0
    1.3370   -6.4270  -26.9080 C   0  0  0  0  0  3  0  0  0  0  0  0
    3.4790   -6.5680  -27.9680 N   0  0  0  0  0  0  0  0  0  0  0  0
    3.9040   -7.8040  -28.3440 C   0  0  0  0  0  0  0  0  0  0  0  0
    4.9730   -7.8420  -28.9720 O   0  0  0  0  0  0  0  0  0  0  0  0
    4.2510   -5.9090  -27.9800 H   0  0  0  0  0  0  0  0  0  0  0  0
    3.3590   -9.1230  -27.7750 C   0  0  0  0  0  3  0  0  0  0  0  0
    4.2530  -10.2630  -28.3040 C   0  0  0  0  0  2  0  0  0  0  0  0
    3.6650  -11.6370  -27.9950 C   0  0  0  0  0  2  0  0  0  0  0  0
    3.4090  -11.8130  -26.5040 C   0  0  0  0  0  2  0  0  0  0  0  0
    2.5430  -10.6880  -25.9550 C   0  0  0  0  0  2  0  0  0  0  0  0
    3.1170   -9.3070  -26.2800 C   0  0  0  0  0  2  0  0  0  0  0  0
  1 14  1  0  0  0  0
  2  1  2  0  0  0  0
  3  2  1  0  0  0  0
  4  3  2  0  0  0  0
  4  5  1  0  0  0  0
  5 11  1  0  0  0  0
  6  5  2  0  0  0  0
  6  8  1  0  0  0  0
  7  6  1  0  0  0  0
  8  9  2  0  0  0  0
  9 10  1  0  0  0  0
 11  1  1  0  0  0  0
 11 10  2  0  0  0  0
 12  7  1  0  0  0  0
 13 16  1  0  0  0  0
 14 15  2  0  0  0  0
 14 13  1  0  0  0  0
 17 13  1  0  0  0  0
 18  7  1  0  0  0  0
 19 18  1  0  0  0  0
 20 19  2  0  0  0  0
 21 20  1  0  0  0  0
 22 21  2  0  0  0  0
 22 23  1  0  0  0  0
 23 24  2  0  0  0  0
 24 19  1  0  0  0  0
 25 23  1  0  0  0  0
 26 25  1  0  0  0  0
 26 29  1  0  0  0  0
 27 26  2  0  0  0  0
 28 25  1  0  0  0  0
 29 34  1  0  0  0  0
 30 31  1  0  0  0  0
 30 29  1  0  0  0  0
 31 32  1  0  0  0  0
 32 33  1  0  0  0  0
 34 33  1  0  0  0  0
M  END
>  <minimizedAffinity>
-9.50004673

$$$$
