
 OpenBabel10152419323D

 38 41  0  0  1  0  0  0  0  0999 V2000
    1.4210   -5.9230  -27.8760 C   0  0  0  0  0  0  0  0  0  0  0  0
    1.0150   -4.6130  -28.1310 C   0  0  0  0  0  3  0  0  0  0  0  0
    0.0140   -4.0250  -27.3600 C   0  0  0  0  0  3  0  0  0  0  0  0
   -0.5150   -4.7050  -26.2630 C   0  0  0  0  0  3  0  0  0  0  0  0
   -0.0630   -5.9920  -25.9320 C   0  0  0  0  0  0  0  0  0  0  0  0
    0.8600   -6.6270  -26.8000 C   0  0  0  0  0  3  0  0  0  0  0  0
    3.5860   -7.1560  -28.1740 C   0  0  0  0  0  0  0  0  0  0  0  0
    4.7220   -6.8730  -28.5510 O   0  0  0  0  0  0  0  0  0  0  0  0
    2.5200   -6.4070  -28.6070 N   0  0  0  0  0  0  0  0  0  0  0  0
    2.6530   -6.0090  -29.5290 H   0  0  0  0  0  0  0  0  0  0  0  0
    3.1280  -10.4690  -26.6690 C   0  0  0  0  0  0  0  0  0  0  0  0
    3.2830   -9.7080  -27.8610 C   0  0  0  0  0  3  0  0  0  0  0  0
    3.3060   -8.3830  -27.4710 C   0  0  0  0  0  0  0  0  0  0  0  0
    3.1540   -8.4230  -26.1120 N   0  0  0  0  0  0  0  0  0  0  0  0
    3.0180   -9.6590  -25.6090 N   0  0  0  0  0  0  0  0  0  0  0  0
    3.1680   -7.6340  -25.4720 H   0  0  0  0  0  0  0  0  0  0  0  0
    3.2170  -12.7330  -27.8220 C   0  0  0  0  0  1  0  0  0  0  0  0
    3.0120  -11.9720  -26.5060 C   0  0  0  0  0  3  0  0  0  0  0  0
    3.9450  -12.5500  -25.4410 C   0  0  0  0  0  1  0  0  0  0  0  0
   -0.4100   -6.6230  -24.5780 C   0  0  1  0  0  3  0  0  0  0  0  0
   -0.1720   -5.6300  -23.4380 C   0  0  0  0  0  1  0  0  0  0  0  0
   -1.7990   -7.0650  -24.5210 N   0  0  0  0  0  0  0  0  0  0  0  0
   -2.4890   -6.6370  -25.1150 H   0  0  0  0  0  0  0  0  0  0  0  0
   -2.0670   -8.2690  -23.8800 C   0  0  0  0  0  0  0  0  0  0  0  0
   -2.3470   -8.2030  -22.5670 N   0  0  0  0  0  0  0  0  0  0  0  0
   -2.1080   -9.2950  -21.8490 C   0  0  0  0  0  3  0  0  0  0  0  0
   -1.5050  -10.3870  -22.3100 N   0  0  0  0  0  0  0  0  0  0  0  0
   -1.2870  -10.4520  -23.6370 C   0  0  0  0  0  0  0  0  0  0  0  0
   -0.4440  -11.4140  -24.1940 C   0  0  0  0  0  0  0  0  0  0  0  0
   -0.3550  -11.6620  -25.5730 C   0  0  0  0  0  3  0  0  0  0  0  0
   -1.0140  -10.8160  -26.4460 C   0  0  0  0  0  3  0  0  0  0  0  0
   -1.6220   -9.6760  -25.9250 C   0  0  0  0  0  3  0  0  0  0  0  0
   -1.7180   -9.4680  -24.5180 C   0  0  0  0  0  0  0  0  0  0  0  0
    0.8560  -11.4860  -23.4940 C   0  0  0  0  0  0  0  0  0  0  0  0
    1.4650  -10.2560  -23.4310 N   0  0  0  0  0  0  0  0  0  0  0  0
    1.3340  -12.5120  -23.0420 O   0  0  0  0  0  0  0  0  0  0  0  0
    2.2690  -10.1390  -22.8420 H   0  0  0  0  0  0  0  0  0  0  0  0
    1.0600   -9.4180  -23.8330 H   0  0  0  0  0  0  0  0  0  0  0  0
  1  6  1  0  0  0  0
  2  1  2  0  0  0  0
  2  3  1  0  0  0  0
  3  4  2  0  0  0  0
  4  5  1  0  0  0  0
  5 20  1  0  0  0  0
  6  5  2  0  0  0  0
  7 13  1  0  0  0  0
  8  7  2  0  0  0  0
  9  7  1  0  0  0  0
  9  1  1  0  0  0  0
 10  9  1  0  0  0  0
 11 18  1  0  0  0  0
 11 15  2  0  0  0  0
 12 13  2  0  0  0  0
 12 11  1  0  0  0  0
 13 14  1  0  0  0  0
 14 15  1  0  0  0  0
 14 16  1  0  0  0  0
 17 18  1  0  0  0  0
 18 19  1  0  0  0  0
 20 22  1  0  0  0  0
 20 21  1  1  0  0  0
 22 24  1  0  0  0  0
 23 22  1  0  0  0  0
 24 25  1  0  0  0  0
 25 26  2  0  0  0  0
 27 26  1  0  0  0  0
 28 27  2  0  0  0  0
 29 28  1  0  0  0  0
 29 34  1  0  0  0  0
 30 29  2  0  0  0  0
 31 32  2  0  0  0  0
 31 30  1  0  0  0  0
 32 33  1  0  0  0  0
 33 24  2  0  0  0  0
 33 28  1  0  0  0  0
 34 35  1  0  0  0  0
 34 36  2  0  0  0  0
 35 37  1  0  0  0  0
 38 35  1  0  0  0  0
M  END
>  <minimizedAffinity>
-9.79300499

$$$$
