
 OpenBabel10152419323D

 38 41  0  0  1  0  0  0  0  0999 V2000
   -0.0010  -12.3240  -24.0750 C   0  0  0  0  0  0  0  0  0  0  0  0
   -0.3660  -12.9540  -25.2640 C   0  0  0  0  0  3  0  0  0  0  0  0
    0.2090  -12.5640  -26.4720 C   0  0  0  0  0  3  0  0  0  0  0  0
    1.2300  -11.6140  -26.4860 C   0  0  0  0  0  3  0  0  0  0  0  0
    1.6770  -11.0250  -25.2930 C   0  0  0  0  0  0  0  0  0  0  0  0
    0.9940  -11.3360  -24.0910 C   0  0  0  0  0  3  0  0  0  0  0  0
   -0.5890  -12.2790  -21.6350 C   0  0  0  0  0  0  0  0  0  0  0  0
   -0.3030  -12.9470  -20.6440 O   0  0  0  0  0  0  0  0  0  0  0  0
   -0.5250  -12.8520  -22.8820 N   0  0  0  0  0  0  0  0  0  0  0  0
   -0.7160  -13.8470  -22.8800 H   0  0  0  0  0  0  0  0  0  0  0  0
   -2.1980   -8.9870  -21.7730 C   0  0  0  0  0  0  0  0  0  0  0  0
   -1.3010   -9.9060  -22.3850 C   0  0  0  0  0  3  0  0  0  0  0  0
   -1.2040  -10.9800  -21.5220 C   0  0  0  0  0  0  0  0  0  0  0  0
   -2.0120  -10.6490  -20.4700 N   0  0  0  0  0  0  0  0  0  0  0  0
   -2.5980   -9.4470  -20.5810 N   0  0  0  0  0  0  0  0  0  0  0  0
   -2.2260  -11.2220  -19.6590 H   0  0  0  0  0  0  0  0  0  0  0  0
   -1.4770   -6.7240  -22.6810 C   0  0  0  0  0  1  0  0  0  0  0  0
   -2.6470   -7.6240  -22.2630 C   0  0  0  0  0  3  0  0  0  0  0  0
   -3.6670   -7.6830  -23.4010 C   0  0  0  0  0  1  0  0  0  0  0  0
    2.9790  -10.2150  -25.2560 C   0  0  1  0  0  3  0  0  0  0  0  0
    3.8410  -10.5150  -26.4840 C   0  0  0  0  0  1  0  0  0  0  0  0
    2.7280   -8.7790  -25.2090 N   0  0  0  0  0  0  0  0  0  0  0  0
    3.0810   -8.2300  -24.4440 H   0  0  0  0  0  0  0  0  0  0  0  0
    2.2850   -8.1630  -26.3750 C   0  0  0  0  0  0  0  0  0  0  0  0
    3.2270   -7.6070  -27.1560 N   0  0  0  0  0  0  0  0  0  0  0  0
    2.8360   -6.6190  -27.9540 C   0  0  0  0  0  3  0  0  0  0  0  0
    1.6250   -6.0700  -27.9400 N   0  0  0  0  0  0  0  0  0  0  0  0
    0.6850   -6.6790  -27.1920 C   0  0  0  0  0  0  0  0  0  0  0  0
   -0.5300   -6.0600  -26.8980 C   0  0  0  0  0  0  0  0  0  0  0  0
   -1.6190   -6.7280  -26.3150 C   0  0  0  0  0  3  0  0  0  0  0  0
   -1.4430   -8.0230  -25.8640 C   0  0  0  0  0  3  0  0  0  0  0  0
   -0.1570   -8.5570  -25.8830 C   0  0  0  0  0  3  0  0  0  0  0  0
    0.9220   -7.8630  -26.5070 C   0  0  0  0  0  0  0  0  0  0  0  0
   -0.3460   -4.6810  -26.3990 C   0  0  0  0  0  0  0  0  0  0  0  0
    0.1290   -3.8470  -27.3840 N   0  0  0  0  0  0  0  0  0  0  0  0
   -0.5730   -4.3310  -25.2540 O   0  0  0  0  0  0  0  0  0  0  0  0
    0.1410   -2.8570  -27.2210 H   0  0  0  0  0  0  0  0  0  0  0  0
    0.3330   -4.1630  -28.3250 H   0  0  0  0  0  0  0  0  0  0  0  0
  1  9  1  0  0  0  0
  2  1  2  0  0  0  0
  3  2  1  0  0  0  0
  4  3  2  0  0  0  0
  4  5  1  0  0  0  0
  5 20  1  0  0  0  0
  5  6  2  0  0  0  0
  6  1  1  0  0  0  0
  7 13  1  0  0  0  0
  7  8  2  0  0  0  0
  9 10  1  0  0  0  0
  9  7  1  0  0  0  0
 11 15  2  0  0  0  0
 12 11  1  0  0  0  0
 12 13  2  0  0  0  0
 13 14  1  0  0  0  0
 14 16  1  0  0  0  0
 15 14  1  0  0  0  0
 17 18  1  0  0  0  0
 18 11  1  0  0  0  0
 19 18  1  0  0  0  0
 20 21  1  6  0  0  0
 20 22  1  0  0  0  0
 22 23  1  0  0  0  0
 24 22  1  0  0  0  0
 25 24  2  0  0  0  0
 26 27  2  0  0  0  0
 26 25  1  0  0  0  0
 27 28  1  0  0  0  0
 28 29  2  0  0  0  0
 28 33  1  0  0  0  0
 29 34  1  0  0  0  0
 29 30  1  0  0  0  0
 30 31  2  0  0  0  0
 32 31  1  0  0  0  0
 33 24  1  0  0  0  0
 33 32  2  0  0  0  0
 34 36  2  0  0  0  0
 35 37  1  0  0  0  0
 35 34  1  0  0  0  0
 38 35  1  0  0  0  0
M  END
>  <minimizedAffinity>
-8.28870392

$$$$
