
 OpenBabel10152419323D

 38 41  0  0  1  0  0  0  0  0999 V2000
    3.2500   -7.0650  -28.3420 C   0  0  0  0  0  0  0  0  0  0  0  0
    3.6760   -7.3870  -29.6310 C   0  0  0  0  0  3  0  0  0  0  0  0
    4.0600   -8.6910  -29.9380 C   0  0  0  0  0  3  0  0  0  0  0  0
    3.9190   -9.7050  -28.9900 C   0  0  0  0  0  3  0  0  0  0  0  0
    3.4110   -9.4240  -27.7110 C   0  0  0  0  0  0  0  0  0  0  0  0
    3.1490   -8.0730  -27.3720 C   0  0  0  0  0  3  0  0  0  0  0  0
    1.4590   -5.3290  -28.0590 C   0  0  0  0  0  0  0  0  0  0  0  0
    1.1280   -4.2980  -28.6390 O   0  0  0  0  0  0  0  0  0  0  0  0
    2.7600   -5.7630  -28.1360 N   0  0  0  0  0  0  0  0  0  0  0  0
    3.4320   -5.0120  -28.2390 H   0  0  0  0  0  0  0  0  0  0  0  0
   -0.6310   -6.7000  -25.3760 C   0  0  0  0  0  0  0  0  0  0  0  0
    0.6080   -6.1020  -25.7400 C   0  0  0  0  0  3  0  0  0  0  0  0
    0.5870   -5.9830  -27.1160 C   0  0  0  0  0  0  0  0  0  0  0  0
   -0.6190   -6.5120  -27.4880 N   0  0  0  0  0  0  0  0  0  0  0  0
   -1.3560   -6.9740  -26.4670 N   0  0  0  0  0  0  0  0  0  0  0  0
   -1.0040   -6.5540  -28.4270 H   0  0  0  0  0  0  0  0  0  0  0  0
   -0.9000   -5.9970  -22.9480 C   0  0  0  0  0  1  0  0  0  0  0  0
   -1.1330   -7.0890  -23.9990 C   0  0  0  0  0  3  0  0  0  0  0  0
   -2.6050   -7.5040  -23.9750 C   0  0  0  0  0  1  0  0  0  0  0  0
    2.9760  -10.5560  -26.7730 C   0  0  1  0  0  3  0  0  0  0  0  0
    4.1900  -11.2050  -26.1040 C   0  0  0  0  0  1  0  0  0  0  0  0
    2.0730  -10.0840  -25.7290 N   0  0  0  0  0  0  0  0  0  0  0  0
    2.2480   -9.2070  -25.2690 H   0  0  0  0  0  0  0  0  0  0  0  0
    0.8310  -10.7010  -25.6220 C   0  0  0  0  0  0  0  0  0  0  0  0
   -0.1640  -10.1840  -26.3640 N   0  0  0  0  0  0  0  0  0  0  0  0
   -1.4020  -10.3910  -25.9290 C   0  0  0  0  0  3  0  0  0  0  0  0
   -1.7120  -10.9560  -24.7670 N   0  0  0  0  0  0  0  0  0  0  0  0
   -0.7050  -11.5160  -24.0700 C   0  0  0  0  0  0  0  0  0  0  0  0
   -0.8620  -11.9030  -22.7390 C   0  0  0  0  0  0  0  0  0  0  0  0
    0.0760  -12.6820  -22.0420 C   0  0  0  0  0  3  0  0  0  0  0  0
    1.2910  -12.9570  -22.6430 C   0  0  0  0  0  3  0  0  0  0  0  0
    1.5830  -12.3350  -23.8540 C   0  0  0  0  0  3  0  0  0  0  0  0
    0.5980  -11.5720  -24.5480 C   0  0  0  0  0  0  0  0  0  0  0  0
   -1.4720  -10.8360  -21.9180 C   0  0  0  0  0  0  0  0  0  0  0  0
   -0.7520   -9.6680  -21.9910 N   0  0  0  0  0  0  0  0  0  0  0  0
   -2.4810  -10.9790  -21.2490 O   0  0  0  0  0  0  0  0  0  0  0  0
   -1.1470   -8.8260  -21.6140 H   0  0  0  0  0  0  0  0  0  0  0  0
    0.0980   -9.5760  -22.5370 H   0  0  0  0  0  0  0  0  0  0  0  0
  1  9  1  0  0  0  0
  1  6  1  0  0  0  0
  2  1  2  0  0  0  0
  3  2  1  0  0  0  0
  3  4  2  0  0  0  0
  4  5  1  0  0  0  0
  5  6  2  0  0  0  0
  5 20  1  0  0  0  0
  7 13  1  0  0  0  0
  8  7  2  0  0  0  0
  9  7  1  0  0  0  0
 10  9  1  0  0  0  0
 11 18  1  0  0  0  0
 12 11  1  0  0  0  0
 13 12  2  0  0  0  0
 14 13  1  0  0  0  0
 14 15  1  0  0  0  0
 15 11  2  0  0  0  0
 16 14  1  0  0  0  0
 18 19  1  0  0  0  0
 18 17  1  0  0  0  0
 20 21  1  1  0  0  0
 20 22  1  0  0  0  0
 22 24  1  0  0  0  0
 22 23  1  0  0  0  0
 24 33  1  0  0  0  0
 25 26  1  0  0  0  0
 25 24  2  0  0  0  0
 26 27  2  0  0  0  0
 27 28  1  0  0  0  0
 28 29  1  0  0  0  0
 29 30  2  0  0  0  0
 29 34  1  0  0  0  0
 31 30  1  0  0  0  0
 32 31  2  0  0  0  0
 33 28  2  0  0  0  0
 33 32  1  0  0  0  0
 34 36  2  0  0  0  0
 35 34  1  0  0  0  0
 35 37  1  0  0  0  0
 38 35  1  0  0  0  0
M  END
>  <minimizedAffinity>
-8.98043728

$$$$
