
 OpenBabel10152419323D

 38 41  0  0  1  0  0  0  0  0999 V2000
    3.8530  -12.0750  -27.7390 C   0  0  0  0  0  0  0  0  0  0  0  0
    3.9580  -12.7760  -28.9410 C   0  0  0  0  0  3  0  0  0  0  0  0
    3.9300  -12.0940  -30.1560 C   0  0  0  0  0  3  0  0  0  0  0  0
    3.9060  -10.7000  -30.1760 C   0  0  0  0  0  3  0  0  0  0  0  0
    3.8880   -9.9660  -28.9790 C   0  0  0  0  0  0  0  0  0  0  0  0
    3.7830  -10.6740  -27.7570 C   0  0  0  0  0  3  0  0  0  0  0  0
    3.6380  -12.4830  -25.2720 C   0  0  0  0  0  0  0  0  0  0  0  0
    4.4100  -12.6910  -24.3390 O   0  0  0  0  0  0  0  0  0  0  0  0
    4.0140  -12.8100  -26.5510 N   0  0  0  0  0  0  0  0  0  0  0  0
    4.6490  -13.5990  -26.5970 H   0  0  0  0  0  0  0  0  0  0  0  0
    0.2690  -11.3820  -24.3310 C   0  0  0  0  0  0  0  0  0  0  0  0
    1.5090  -11.9340  -23.9050 C   0  0  0  0  0  3  0  0  0  0  0  0
    2.2630  -12.1130  -25.0490 C   0  0  0  0  0  0  0  0  0  0  0  0
    1.4520  -11.6850  -26.0640 N   0  0  0  0  0  0  0  0  0  0  0  0
    0.2410  -11.2680  -25.6650 N   0  0  0  0  0  0  0  0  0  0  0  0
    1.6870  -11.6270  -27.0510 H   0  0  0  0  0  0  0  0  0  0  0  0
   -1.1870  -11.9780  -22.3340 C   0  0  0  0  0  1  0  0  0  0  0  0
   -0.9450  -11.0120  -23.5010 C   0  0  0  0  0  3  0  0  0  0  0  0
   -0.9140   -9.5780  -22.9690 C   0  0  0  0  0  1  0  0  0  0  0  0
    4.1590   -8.4570  -28.9790 C   0  0  1  0  0  3  0  0  0  0  0  0
    4.7220   -8.0050  -30.3290 C   0  0  0  0  0  1  0  0  0  0  0  0
    2.9530   -7.6850  -28.7020 N   0  0  0  0  0  0  0  0  0  0  0  0
    2.2370   -7.5990  -29.4030 H   0  0  0  0  0  0  0  0  0  0  0  0
    2.6870   -7.3570  -27.3770 C   0  0  0  0  0  0  0  0  0  0  0  0
    3.1820   -8.1860  -26.4410 N   0  0  0  0  0  0  0  0  0  0  0  0
    2.5550   -8.2070  -25.2700 C   0  0  0  0  0  3  0  0  0  0  0  0
    1.4190   -7.5690  -25.0080 N   0  0  0  0  0  0  0  0  0  0  0  0
    0.9740   -6.7030  -25.9380 C   0  0  0  0  0  0  0  0  0  0  0  0
   -0.3170   -6.1790  -25.8910 C   0  0  0  0  0  0  0  0  0  0  0  0
   -0.7530   -5.1170  -26.7000 C   0  0  0  0  0  3  0  0  0  0  0  0
    0.0810   -4.6590  -27.7050 C   0  0  0  0  0  3  0  0  0  0  0  0
    1.2560   -5.3630  -27.9570 C   0  0  0  0  0  3  0  0  0  0  0  0
    1.6820   -6.4200  -27.0990 C   0  0  0  0  0  0  0  0  0  0  0  0
   -1.3370   -7.2300  -25.6950 C   0  0  0  0  0  0  0  0  0  0  0  0
   -1.0370   -8.3650  -26.4100 N   0  0  0  0  0  0  0  0  0  0  0  0
   -2.3280   -7.1010  -24.9960 O   0  0  0  0  0  0  0  0  0  0  0  0
   -1.5590   -9.2040  -26.2350 H   0  0  0  0  0  0  0  0  0  0  0  0
   -0.2190   -8.4440  -27.0030 H   0  0  0  0  0  0  0  0  0  0  0  0
  1  9  1  0  0  0  0
  2  1  2  0  0  0  0
  3  2  1  0  0  0  0
  4  3  2  0  0  0  0
  4  5  1  0  0  0  0
  5 20  1  0  0  0  0
  5  6  2  0  0  0  0
  6  1  1  0  0  0  0
  7 13  1  0  0  0  0
  7  8  2  0  0  0  0
  9  7  1  0  0  0  0
 10  9  1  0  0  0  0
 11 12  1  0  0  0  0
 11 18  1  0  0  0  0
 13 12  2  0  0  0  0
 14 15  1  0  0  0  0
 14 13  1  0  0  0  0
 15 11  2  0  0  0  0
 16 14  1  0  0  0  0
 18 19  1  0  0  0  0
 18 17  1  0  0  0  0
 20 21  1  6  0  0  0
 20 22  1  0  0  0  0
 22 24  1  0  0  0  0
 23 22  1  0  0  0  0
 24 33  2  0  0  0  0
 24 25  1  0  0  0  0
 25 26  2  0  0  0  0
 26 27  1  0  0  0  0
 28 29  1  0  0  0  0
 28 27  2  0  0  0  0
 29 34  1  0  0  0  0
 30 29  2  0  0  0  0
 31 30  1  0  0  0  0
 32 31  2  0  0  0  0
 32 33  1  0  0  0  0
 33 28  1  0  0  0  0
 34 36  2  0  0  0  0
 35 37  1  0  0  0  0
 35 34  1  0  0  0  0
 38 35  1  0  0  0  0
M  END
>  <minimizedAffinity>
-7.67196989

$$$$
