
 OpenBabel10152419323D

 38 41  0  0  1  0  0  0  0  0999 V2000
   -1.5900  -10.5850  -22.5700 C   0  0  0  0  0  0  0  0  0  0  0  0
   -0.9490  -11.5410  -21.7810 C   0  0  0  0  0  3  0  0  0  0  0  0
   -0.2000  -12.5540  -22.3750 C   0  0  0  0  0  3  0  0  0  0  0  0
    0.0020  -12.5580  -23.7550 C   0  0  0  0  0  3  0  0  0  0  0  0
   -0.5610  -11.5590  -24.5650 C   0  0  0  0  0  0  0  0  0  0  0  0
   -1.4260  -10.6120  -23.9630 C   0  0  0  0  0  3  0  0  0  0  0  0
   -1.8660   -8.1970  -21.8500 C   0  0  0  0  0  0  0  0  0  0  0  0
   -1.9150   -7.5960  -20.7790 O   0  0  0  0  0  0  0  0  0  0  0  0
   -2.2230   -9.5220  -21.9020 N   0  0  0  0  0  0  0  0  0  0  0  0
   -2.9250   -9.7790  -21.2180 H   0  0  0  0  0  0  0  0  0  0  0  0
   -0.9300   -6.4810  -24.9520 C   0  0  0  0  0  0  0  0  0  0  0  0
   -0.6430   -6.7060  -23.5770 C   0  0  0  0  0  3  0  0  0  0  0  0
   -1.6630   -7.5060  -23.0990 C   0  0  0  0  0  0  0  0  0  0  0  0
   -2.4830   -7.6980  -24.1760 N   0  0  0  0  0  0  0  0  0  0  0  0
   -2.0820   -7.0710  -25.2930 N   0  0  0  0  0  0  0  0  0  0  0  0
   -3.3180   -8.2750  -24.2150 H   0  0  0  0  0  0  0  0  0  0  0  0
   -0.2610   -6.2010  -27.3890 C   0  0  0  0  0  1  0  0  0  0  0  0
   -0.1620   -5.6490  -25.9620 C   0  0  0  0  0  3  0  0  0  0  0  0
   -0.5530   -4.1700  -25.9670 C   0  0  0  0  0  1  0  0  0  0  0  0
   -0.1100  -11.3800  -26.0200 C   0  0  1  0  0  3  0  0  0  0  0  0
   -0.4490   -9.9760  -26.5250 C   0  0  0  0  0  1  0  0  0  0  0  0
    1.3240  -11.5930  -26.1780 N   0  0  0  0  0  0  0  0  0  0  0  0
    1.6610  -12.3730  -26.7150 H   0  0  0  0  0  0  0  0  0  0  0  0
    2.1720  -10.5410  -25.8510 C   0  0  0  0  0  0  0  0  0  0  0  0
    1.7570   -9.7140  -24.8750 N   0  0  0  0  0  0  0  0  0  0  0  0
    2.2490   -8.4800  -24.8880 C   0  0  0  0  0  3  0  0  0  0  0  0
    3.0130   -7.9800  -25.8540 N   0  0  0  0  0  0  0  0  0  0  0  0
    3.4610   -8.8400  -26.7870 C   0  0  0  0  0  0  0  0  0  0  0  0
    4.0450   -8.3940  -27.9730 C   0  0  0  0  0  0  0  0  0  0  0  0
    4.7200   -9.2370  -28.8700 C   0  0  0  0  0  3  0  0  0  0  0  0
    4.6800  -10.6040  -28.6590 C   0  0  0  0  0  3  0  0  0  0  0  0
    3.8570  -11.0890  -27.6450 C   0  0  0  0  0  3  0  0  0  0  0  0
    3.2070  -10.2040  -26.7350 C   0  0  0  0  0  0  0  0  0  0  0  0
    3.2320   -7.3540  -28.6370 C   0  0  0  0  0  0  0  0  0  0  0  0
    3.3280   -6.1460  -27.9870 N   0  0  0  0  0  0  0  0  0  0  0  0
    2.5500   -7.5470  -29.6280 O   0  0  0  0  0  0  0  0  0  0  0  0
    2.9580   -5.3240  -28.4280 H   0  0  0  0  0  0  0  0  0  0  0  0
    3.8840   -6.0120  -27.1500 H   0  0  0  0  0  0  0  0  0  0  0  0
  1  9  1  0  0  0  0
  1  2  1  0  0  0  0
  3  2  2  0  0  0  0
  4  3  1  0  0  0  0
  5  6  1  0  0  0  0
  5  4  2  0  0  0  0
  6  1  2  0  0  0  0
  7  8  2  0  0  0  0
  9  7  1  0  0  0  0
  9 10  1  0  0  0  0
 11 12  1  0  0  0  0
 12 13  2  0  0  0  0
 13  7  1  0  0  0  0
 14 13  1  0  0  0  0
 15 11  2  0  0  0  0
 15 14  1  0  0  0  0
 16 14  1  0  0  0  0
 17 18  1  0  0  0  0
 18 11  1  0  0  0  0
 19 18  1  0  0  0  0
 20 21  1  1  0  0  0
 20  5  1  0  0  0  0
 22 20  1  0  0  0  0
 22 24  1  0  0  0  0
 23 22  1  0  0  0  0
 24 25  1  0  0  0  0
 26 25  2  0  0  0  0
 27 26  1  0  0  0  0
 28 33  1  0  0  0  0
 28 27  2  0  0  0  0
 29 28  1  0  0  0  0
 30 31  1  0  0  0  0
 30 29  2  0  0  0  0
 31 32  2  0  0  0  0
 32 33  1  0  0  0  0
 33 24  2  0  0  0  0
 34 35  1  0  0  0  0
 34 29  1  0  0  0  0
 35 38  1  0  0  0  0
 36 34  2  0  0  0  0
 37 35  1  0  0  0  0
M  END
>  <minimizedAffinity>
-7.63820267

$$$$
