
 OpenBabel10152419323D

 38 41  0  0  1  0  0  0  0  0999 V2000
    1.4210   -5.9230  -27.8760 C   0  0  0  0  0  0  0  0  0  0  0  0
    1.0150   -4.6130  -28.1310 C   0  0  0  0  0  3  0  0  0  0  0  0
    0.0140   -4.0250  -27.3600 C   0  0  0  0  0  3  0  0  0  0  0  0
   -0.5150   -4.7050  -26.2630 C   0  0  0  0  0  3  0  0  0  0  0  0
   -0.0630   -5.9920  -25.9320 C   0  0  0  0  0  0  0  0  0  0  0  0
    0.8600   -6.6270  -26.8000 C   0  0  0  0  0  3  0  0  0  0  0  0
    3.5860   -7.1560  -28.1740 C   0  0  0  0  0  0  0  0  0  0  0  0
    4.7220   -6.8730  -28.5510 O   0  0  0  0  0  0  0  0  0  0  0  0
    2.5200   -6.4070  -28.6070 N   0  0  0  0  0  0  0  0  0  0  0  0
    2.6530   -6.0090  -29.5290 H   0  0  0  0  0  0  0  0  0  0  0  0
    3.1280  -10.4690  -26.6690 C   0  0  0  0  0  0  0  0  0  0  0  0
    3.2830   -9.7080  -27.8610 C   0  0  0  0  0  3  0  0  0  0  0  0
    3.3060   -8.3830  -27.4710 C   0  0  0  0  0  0  0  0  0  0  0  0
    3.1540   -8.4230  -26.1120 N   0  0  0  0  0  0  0  0  0  0  0  0
    3.0180   -9.6590  -25.6090 N   0  0  0  0  0  0  0  0  0  0  0  0
    3.1680   -7.6340  -25.4720 H   0  0  0  0  0  0  0  0  0  0  0  0
    3.2170  -12.7330  -27.8220 C   0  0  0  0  0  1  0  0  0  0  0  0
    3.0120  -11.9720  -26.5060 C   0  0  0  0  0  3  0  0  0  0  0  0
    3.9450  -12.5500  -25.4410 C   0  0  0  0  0  1  0  0  0  0  0  0
   -0.4100   -6.6230  -24.5780 C   0  0  1  0  0  3  0  0  0  0  0  0
   -0.1720   -5.6300  -23.4380 C   0  0  0  0  0  1  0  0  0  0  0  0
   -1.7990   -7.0650  -24.5210 N   0  0  0  0  0  0  0  0  0  0  0  0
   -2.4890   -6.6370  -25.1150 H   0  0  0  0  0  0  0  0  0  0  0  0
   -2.0670   -8.2690  -23.8800 C   0  0  0  0  0  0  0  0  0  0  0  0
   -2.3470   -8.2030  -22.5670 N   0  0  0  0  0  0  0  0  0  0  0  0
   -2.1080   -9.2950  -21.8490 C   0  0  0  0  0  3  0  0  0  0  0  0
   -1.5050  -10.3870  -22.3100 N   0  0  0  0  0  0  0  0  0  0  0  0
   -1.2870  -10.4520  -23.6370 C   0  0  0  0  0  0  0  0  0  0  0  0
   -0.4440  -11.4140  -24.1940 C   0  0  0  0  0  0  0  0  0  0  0  0
   -0.3550  -11.6620  -25.5730 C   0  0  0  0  0  3  0  0  0  0  0  0
   -1.0140  -10.8160  -26.4460 C   0  0  0  0  0  3  0  0  0  0  0  0
   -1.6220   -9.6760  -25.9250 C   0  0  0  0  0  3  0  0  0  0  0  0
   -1.7180   -9.4680  -24.5180 C   0  0  0  0  0  0  0  0  0  0  0  0
    0.8560  -11.4860  -23.4940 C   0  0  0  0  0  0  0  0  0  0  0  0
    1.4650  -10.2560  -23.4310 N   0  0  0  0  0  0  0  0  0  0  0  0
    1.3340  -12.5120  -23.0420 O   0  0  0  0  0  0  0  0  0  0  0  0
    2.2690  -10.1390  -22.8420 H   0  0  0  0  0  0  0  0  0  0  0  0
    1.0600   -9.4180  -23.8330 H   0  0  0  0  0  0  0  0  0  0  0  0
  1  6  1  0  0  0  0
  2  1  2  0  0  0  0
  2  3  1  0  0  0  0
  3  4  2  0  0  0  0
  4  5  1  0  0  0  0
  5 20  1  0  0  0  0
  6  5  2  0  0  0  0
  7 13  1  0  0  0  0
  8  7  2  0  0  0  0
  9  7  1  0  0  0  0
  9  1  1  0  0  0  0
 10  9  1  0  0  0  0
 11 18  1  0  0  0  0
 11 15  2  0  0  0  0
 12 13  2  0  0  0  0
 12 11  1  0  0  0  0
 13 14  1  0  0  0  0
 14 15  1  0  0  0  0
 14 16  1  0  0  0  0
 17 18  1  0  0  0  0
 18 19  1  0  0  0  0
 20 22  1  0  0  0  0
 20 21  1  1  0  0  0
 22 24  1  0  0  0  0
 23 22  1  0  0  0  0
 24 25  1  0  0  0  0
 25 26  2  0  0  0  0
 27 26  1  0  0  0  0
 28 27  2  0  0  0  0
 29 28  1  0  0  0  0
 29 34  1  0  0  0  0
 30 29  2  0  0  0  0
 31 32  2  0  0  0  0
 31 30  1  0  0  0  0
 32 33  1  0  0  0  0
 33 24  2  0  0  0  0
 33 28  1  0  0  0  0
 34 35  1  0  0  0  0
 34 36  2  0  0  0  0
 35 37  1  0  0  0  0
 38 35  1  0  0  0  0
M  END
>  <minimizedAffinity>
-9.79300499

$$$$

 OpenBabel10152419323D

 38 41  0  0  1  0  0  0  0  0999 V2000
    3.2500   -7.0650  -28.3420 C   0  0  0  0  0  0  0  0  0  0  0  0
    3.6760   -7.3870  -29.6310 C   0  0  0  0  0  3  0  0  0  0  0  0
    4.0600   -8.6910  -29.9380 C   0  0  0  0  0  3  0  0  0  0  0  0
    3.9190   -9.7050  -28.9900 C   0  0  0  0  0  3  0  0  0  0  0  0
    3.4110   -9.4240  -27.7110 C   0  0  0  0  0  0  0  0  0  0  0  0
    3.1490   -8.0730  -27.3720 C   0  0  0  0  0  3  0  0  0  0  0  0
    1.4590   -5.3290  -28.0590 C   0  0  0  0  0  0  0  0  0  0  0  0
    1.1280   -4.2980  -28.6390 O   0  0  0  0  0  0  0  0  0  0  0  0
    2.7600   -5.7630  -28.1360 N   0  0  0  0  0  0  0  0  0  0  0  0
    3.4320   -5.0120  -28.2390 H   0  0  0  0  0  0  0  0  0  0  0  0
   -0.6310   -6.7000  -25.3760 C   0  0  0  0  0  0  0  0  0  0  0  0
    0.6080   -6.1020  -25.7400 C   0  0  0  0  0  3  0  0  0  0  0  0
    0.5870   -5.9830  -27.1160 C   0  0  0  0  0  0  0  0  0  0  0  0
   -0.6190   -6.5120  -27.4880 N   0  0  0  0  0  0  0  0  0  0  0  0
   -1.3560   -6.9740  -26.4670 N   0  0  0  0  0  0  0  0  0  0  0  0
   -1.0040   -6.5540  -28.4270 H   0  0  0  0  0  0  0  0  0  0  0  0
   -0.9000   -5.9970  -22.9480 C   0  0  0  0  0  1  0  0  0  0  0  0
   -1.1330   -7.0890  -23.9990 C   0  0  0  0  0  3  0  0  0  0  0  0
   -2.6050   -7.5040  -23.9750 C   0  0  0  0  0  1  0  0  0  0  0  0
    2.9760  -10.5560  -26.7730 C   0  0  1  0  0  3  0  0  0  0  0  0
    4.1900  -11.2050  -26.1040 C   0  0  0  0  0  1  0  0  0  0  0  0
    2.0730  -10.0840  -25.7290 N   0  0  0  0  0  0  0  0  0  0  0  0
    2.2480   -9.2070  -25.2690 H   0  0  0  0  0  0  0  0  0  0  0  0
    0.8310  -10.7010  -25.6220 C   0  0  0  0  0  0  0  0  0  0  0  0
   -0.1640  -10.1840  -26.3640 N   0  0  0  0  0  0  0  0  0  0  0  0
   -1.4020  -10.3910  -25.9290 C   0  0  0  0  0  3  0  0  0  0  0  0
   -1.7120  -10.9560  -24.7670 N   0  0  0  0  0  0  0  0  0  0  0  0
   -0.7050  -11.5160  -24.0700 C   0  0  0  0  0  0  0  0  0  0  0  0
   -0.8620  -11.9030  -22.7390 C   0  0  0  0  0  0  0  0  0  0  0  0
    0.0760  -12.6820  -22.0420 C   0  0  0  0  0  3  0  0  0  0  0  0
    1.2910  -12.9570  -22.6430 C   0  0  0  0  0  3  0  0  0  0  0  0
    1.5830  -12.3350  -23.8540 C   0  0  0  0  0  3  0  0  0  0  0  0
    0.5980  -11.5720  -24.5480 C   0  0  0  0  0  0  0  0  0  0  0  0
   -1.4720  -10.8360  -21.9180 C   0  0  0  0  0  0  0  0  0  0  0  0
   -0.7520   -9.6680  -21.9910 N   0  0  0  0  0  0  0  0  0  0  0  0
   -2.4810  -10.9790  -21.2490 O   0  0  0  0  0  0  0  0  0  0  0  0
   -1.1470   -8.8260  -21.6140 H   0  0  0  0  0  0  0  0  0  0  0  0
    0.0980   -9.5760  -22.5370 H   0  0  0  0  0  0  0  0  0  0  0  0
  1  9  1  0  0  0  0
  1  6  1  0  0  0  0
  2  1  2  0  0  0  0
  3  2  1  0  0  0  0
  3  4  2  0  0  0  0
  4  5  1  0  0  0  0
  5  6  2  0  0  0  0
  5 20  1  0  0  0  0
  7 13  1  0  0  0  0
  8  7  2  0  0  0  0
  9  7  1  0  0  0  0
 10  9  1  0  0  0  0
 11 18  1  0  0  0  0
 12 11  1  0  0  0  0
 13 12  2  0  0  0  0
 14 13  1  0  0  0  0
 14 15  1  0  0  0  0
 15 11  2  0  0  0  0
 16 14  1  0  0  0  0
 18 19  1  0  0  0  0
 18 17  1  0  0  0  0
 20 21  1  1  0  0  0
 20 22  1  0  0  0  0
 22 24  1  0  0  0  0
 22 23  1  0  0  0  0
 24 33  1  0  0  0  0
 25 26  1  0  0  0  0
 25 24  2  0  0  0  0
 26 27  2  0  0  0  0
 27 28  1  0  0  0  0
 28 29  1  0  0  0  0
 29 30  2  0  0  0  0
 29 34  1  0  0  0  0
 31 30  1  0  0  0  0
 32 31  2  0  0  0  0
 33 28  2  0  0  0  0
 33 32  1  0  0  0  0
 34 36  2  0  0  0  0
 35 34  1  0  0  0  0
 35 37  1  0  0  0  0
 38 35  1  0  0  0  0
M  END
>  <minimizedAffinity>
-8.98043728

$$$$

 OpenBabel10152419323D

 38 41  0  0  1  0  0  0  0  0999 V2000
    4.3190   -9.8930  -27.3700 C   0  0  0  0  0  0  0  0  0  0  0  0
    4.0960  -10.5540  -28.5780 C   0  0  0  0  0  3  0  0  0  0  0  0
    3.6870  -11.8860  -28.5850 C   0  0  0  0  0  3  0  0  0  0  0  0
    3.3940  -12.5350  -27.3860 C   0  0  0  0  0  3  0  0  0  0  0  0
    3.5270  -11.8660  -26.1580 C   0  0  0  0  0  0  0  0  0  0  0  0
    4.0690  -10.5570  -26.1590 C   0  0  0  0  0  3  0  0  0  0  0  0
    3.8120   -7.4860  -27.8660 C   0  0  0  0  0  0  0  0  0  0  0  0
    4.2890   -6.6110  -28.5860 O   0  0  0  0  0  0  0  0  0  0  0  0
    4.6080   -8.5180  -27.4340 N   0  0  0  0  0  0  0  0  0  0  0  0
    5.5820   -8.2620  -27.3280 H   0  0  0  0  0  0  0  0  0  0  0  0
    0.6920   -7.0560  -25.9880 C   0  0  0  0  0  0  0  0  0  0  0  0
    2.0310   -7.5370  -25.9890 C   0  0  0  0  0  3  0  0  0  0  0  0
    2.5060   -7.3490  -27.2720 C   0  0  0  0  0  0  0  0  0  0  0  0
    1.4550   -6.7960  -27.9490 N   0  0  0  0  0  0  0  0  0  0  0  0
    0.3460   -6.6350  -27.2110 N   0  0  0  0  0  0  0  0  0  0  0  0
    1.4480   -6.4780  -28.9140 H   0  0  0  0  0  0  0  0  0  0  0  0
   -0.0870   -5.8920  -23.8660 C   0  0  0  0  0  1  0  0  0  0  0  0
   -0.3160   -7.0420  -24.8550 C   0  0  0  0  0  3  0  0  0  0  0  0
   -1.7710   -7.0200  -25.3240 C   0  0  0  0  0  1  0  0  0  0  0  0
    2.9340  -12.4570  -24.8730 C   0  0  1  0  0  3  0  0  0  0  0  0
    4.0420  -12.9480  -23.9390 C   0  0  0  0  0  1  0  0  0  0  0  0
    2.1190  -11.4870  -24.1510 N   0  0  0  0  0  0  0  0  0  0  0  0
    2.5500  -10.6840  -23.7240 H   0  0  0  0  0  0  0  0  0  0  0  0
    0.7420  -11.5320  -24.3410 C   0  0  0  0  0  0  0  0  0  0  0  0
    0.2700  -10.9570  -25.4610 N   0  0  0  0  0  0  0  0  0  0  0  0
   -0.9900  -10.5380  -25.4320 C   0  0  0  0  0  3  0  0  0  0  0  0
   -1.7630  -10.5380  -24.3500 N   0  0  0  0  0  0  0  0  0  0  0  0
   -1.2900  -11.1690  -23.2590 C   0  0  0  0  0  0  0  0  0  0  0  0
   -1.8860  -11.0140  -22.0080 C   0  0  0  0  0  0  0  0  0  0  0  0
   -1.5720  -11.8100  -20.8950 C   0  0  0  0  0  3  0  0  0  0  0  0
   -0.5120  -12.6940  -20.9860 C   0  0  0  0  0  3  0  0  0  0  0  0
    0.2810  -12.6540  -22.1300 C   0  0  0  0  0  3  0  0  0  0  0  0
   -0.0820  -11.8540  -23.2530 C   0  0  0  0  0  0  0  0  0  0  0  0
   -2.1150   -9.5930  -21.6730 C   0  0  0  0  0  0  0  0  0  0  0  0
   -0.9680   -8.8490  -21.8180 N   0  0  0  0  0  0  0  0  0  0  0  0
   -3.1840   -9.1400  -21.3010 O   0  0  0  0  0  0  0  0  0  0  0  0
   -1.0280   -7.8470  -21.7810 H   0  0  0  0  0  0  0  0  0  0  0  0
   -0.0830   -9.2490  -22.1080 H   0  0  0  0  0  0  0  0  0  0  0  0
  1  6  1  0  0  0  0
  2  1  2  0  0  0  0
  3  2  1  0  0  0  0
  3  4  2  0  0  0  0
  4  5  1  0  0  0  0
  5 20  1  0  0  0  0
  6  5  2  0  0  0  0
  7  9  1  0  0  0  0
  7 13  1  0  0  0  0
  8  7  2  0  0  0  0
  9  1  1  0  0  0  0
  9 10  1  0  0  0  0
 11 18  1  0  0  0  0
 12 11  1  0  0  0  0
 13 12  2  0  0  0  0
 14 13  1  0  0  0  0
 14 15  1  0  0  0  0
 15 11  2  0  0  0  0
 16 14  1  0  0  0  0
 18 17  1  0  0  0  0
 19 18  1  0  0  0  0
 20 22  1  0  0  0  0
 20 21  1  1  0  0  0
 22 23  1  0  0  0  0
 24 22  1  0  0  0  0
 24 33  1  0  0  0  0
 25 26  1  0  0  0  0
 25 24  2  0  0  0  0
 26 27  2  0  0  0  0
 27 28  1  0  0  0  0
 28 33  2  0  0  0  0
 28 29  1  0  0  0  0
 29 34  1  0  0  0  0
 29 30  2  0  0  0  0
 31 30  1  0  0  0  0
 32 31  2  0  0  0  0
 33 32  1  0  0  0  0
 34 36  2  0  0  0  0
 35 37  1  0  0  0  0
 35 34  1  0  0  0  0
 38 35  1  0  0  0  0
M  END
>  <minimizedAffinity>
-8.77957439

$$$$

 OpenBabel10152419323D

 38 41  0  0  1  0  0  0  0  0999 V2000
   -0.5060   -6.6420  -24.8420 C   0  0  0  0  0  0  0  0  0  0  0  0
   -1.2890   -7.7790  -25.0430 C   0  0  0  0  0  3  0  0  0  0  0  0
   -1.2840   -8.4260  -26.2770 C   0  0  0  0  0  3  0  0  0  0  0  0
   -0.4160   -8.0060  -27.2840 C   0  0  0  0  0  3  0  0  0  0  0  0
    0.4460   -6.9160  -27.0790 C   0  0  0  0  0  0  0  0  0  0  0  0
    0.3360   -6.1890  -25.8680 C   0  0  0  0  0  3  0  0  0  0  0  0
   -1.3740   -6.2490  -22.5200 C   0  0  0  0  0  0  0  0  0  0  0  0
   -1.6760   -5.2680  -21.8430 O   0  0  0  0  0  0  0  0  0  0  0  0
   -0.4630   -6.1160  -23.5390 N   0  0  0  0  0  0  0  0  0  0  0  0
    0.2280   -5.3930  -23.3720 H   0  0  0  0  0  0  0  0  0  0  0  0
   -1.9700   -9.7460  -21.5900 C   0  0  0  0  0  0  0  0  0  0  0  0
   -1.2380   -8.8310  -22.3980 C   0  0  0  0  0  3  0  0  0  0  0  0
   -1.7700   -7.5820  -22.1430 C   0  0  0  0  0  0  0  0  0  0  0  0
   -2.7680   -7.8130  -21.2370 N   0  0  0  0  0  0  0  0  0  0  0  0
   -2.9280   -9.1050  -20.9100 N   0  0  0  0  0  0  0  0  0  0  0  0
   -3.3550   -7.1190  -20.7820 H   0  0  0  0  0  0  0  0  0  0  0  0
   -0.8340  -11.8280  -22.5060 C   0  0  0  0  0  1  0  0  0  0  0  0
   -1.8300  -11.2520  -21.4910 C   0  0  0  0  0  3  0  0  0  0  0  0
   -1.4640  -11.7470  -20.0910 C   0  0  0  0  0  1  0  0  0  0  0  0
    1.5980   -6.6320  -28.0500 C   0  0  1  0  0  3  0  0  0  0  0  0
    1.4660   -5.2330  -28.6570 C   0  0  0  0  0  1  0  0  0  0  0  0
    2.8990   -6.7310  -27.3990 N   0  0  0  0  0  0  0  0  0  0  0  0
    3.2360   -5.9740  -26.8290 H   0  0  0  0  0  0  0  0  0  0  0  0
    3.4920   -7.9870  -27.3290 C   0  0  0  0  0  0  0  0  0  0  0  0
    4.1500   -8.4040  -28.4250 N   0  0  0  0  0  0  0  0  0  0  0  0
    4.2730   -9.7170  -28.5840 C   0  0  0  0  0  3  0  0  0  0  0  0
    3.6930  -10.6310  -27.8120 N   0  0  0  0  0  0  0  0  0  0  0  0
    3.0890  -10.1920  -26.6910 C   0  0  0  0  0  0  0  0  0  0  0  0
    2.2380  -11.0110  -25.9500 C   0  0  0  0  0  0  0  0  0  0  0  0
    1.7620  -10.6800  -24.6710 C   0  0  0  0  0  3  0  0  0  0  0  0
    2.0170   -9.4150  -24.1720 C   0  0  0  0  0  3  0  0  0  0  0  0
    2.6140   -8.4830  -25.0170 C   0  0  0  0  0  3  0  0  0  0  0  0
    3.1100   -8.8600  -26.3000 C   0  0  0  0  0  0  0  0  0  0  0  0
    1.2320  -11.6820  -26.8000 C   0  0  0  0  0  0  0  0  0  0  0  0
    1.7800  -12.7320  -27.4970 N   0  0  0  0  0  0  0  0  0  0  0  0
    0.0660  -11.3380  -26.8820 O   0  0  0  0  0  0  0  0  0  0  0  0
    1.1710  -13.3680  -27.9810 H   0  0  0  0  0  0  0  0  0  0  0  0
    2.7580  -12.9890  -27.4310 H   0  0  0  0  0  0  0  0  0  0  0  0
  1  9  1  0  0  0  0
  2  1  1  0  0  0  0
  3  2  2  0  0  0  0
  4  5  2  0  0  0  0
  4  3  1  0  0  0  0
  5  6  1  0  0  0  0
  6  1  2  0  0  0  0
  7 13  1  0  0  0  0
  7  8  2  0  0  0  0
  9 10  1  0  0  0  0
  9  7  1  0  0  0  0
 11 18  1  0  0  0  0
 11 15  2  0  0  0  0
 12 13  2  0  0  0  0
 12 11  1  0  0  0  0
 13 14  1  0  0  0  0
 14 15  1  0  0  0  0
 14 16  1  0  0  0  0
 17 18  1  0  0  0  0
 18 19  1  0  0  0  0
 20 21  1  1  0  0  0
 20 22  1  0  0  0  0
 20  5  1  0  0  0  0
 22 24  1  0  0  0  0
 22 23  1  0  0  0  0
 24 33  1  0  0  0  0
 25 24  2  0  0  0  0
 26 25  1  0  0  0  0
 26 27  2  0  0  0  0
 27 28  1  0  0  0  0
 28 33  2  0  0  0  0
 28 29  1  0  0  0  0
 29 30  2  0  0  0  0
 30 31  1  0  0  0  0
 32 31  2  0  0  0  0
 33 32  1  0  0  0  0
 34 29  1  0  0  0  0
 35 38  1  0  0  0  0
 35 34  1  0  0  0  0
 36 34  2  0  0  0  0
 37 35  1  0  0  0  0
M  END
>  <minimizedAffinity>
-8.49020767

$$$$

 OpenBabel10152419323D

 38 41  0  0  1  0  0  0  0  0999 V2000
   -0.0010  -12.3240  -24.0750 C   0  0  0  0  0  0  0  0  0  0  0  0
   -0.3660  -12.9540  -25.2640 C   0  0  0  0  0  3  0  0  0  0  0  0
    0.2090  -12.5640  -26.4720 C   0  0  0  0  0  3  0  0  0  0  0  0
    1.2300  -11.6140  -26.4860 C   0  0  0  0  0  3  0  0  0  0  0  0
    1.6770  -11.0250  -25.2930 C   0  0  0  0  0  0  0  0  0  0  0  0
    0.9940  -11.3360  -24.0910 C   0  0  0  0  0  3  0  0  0  0  0  0
   -0.5890  -12.2790  -21.6350 C   0  0  0  0  0  0  0  0  0  0  0  0
   -0.3030  -12.9470  -20.6440 O   0  0  0  0  0  0  0  0  0  0  0  0
   -0.5250  -12.8520  -22.8820 N   0  0  0  0  0  0  0  0  0  0  0  0
   -0.7160  -13.8470  -22.8800 H   0  0  0  0  0  0  0  0  0  0  0  0
   -2.1980   -8.9870  -21.7730 C   0  0  0  0  0  0  0  0  0  0  0  0
   -1.3010   -9.9060  -22.3850 C   0  0  0  0  0  3  0  0  0  0  0  0
   -1.2040  -10.9800  -21.5220 C   0  0  0  0  0  0  0  0  0  0  0  0
   -2.0120  -10.6490  -20.4700 N   0  0  0  0  0  0  0  0  0  0  0  0
   -2.5980   -9.4470  -20.5810 N   0  0  0  0  0  0  0  0  0  0  0  0
   -2.2260  -11.2220  -19.6590 H   0  0  0  0  0  0  0  0  0  0  0  0
   -1.4770   -6.7240  -22.6810 C   0  0  0  0  0  1  0  0  0  0  0  0
   -2.6470   -7.6240  -22.2630 C   0  0  0  0  0  3  0  0  0  0  0  0
   -3.6670   -7.6830  -23.4010 C   0  0  0  0  0  1  0  0  0  0  0  0
    2.9790  -10.2150  -25.2560 C   0  0  1  0  0  3  0  0  0  0  0  0
    3.8410  -10.5150  -26.4840 C   0  0  0  0  0  1  0  0  0  0  0  0
    2.7280   -8.7790  -25.2090 N   0  0  0  0  0  0  0  0  0  0  0  0
    3.0810   -8.2300  -24.4440 H   0  0  0  0  0  0  0  0  0  0  0  0
    2.2850   -8.1630  -26.3750 C   0  0  0  0  0  0  0  0  0  0  0  0
    3.2270   -7.6070  -27.1560 N   0  0  0  0  0  0  0  0  0  0  0  0
    2.8360   -6.6190  -27.9540 C   0  0  0  0  0  3  0  0  0  0  0  0
    1.6250   -6.0700  -27.9400 N   0  0  0  0  0  0  0  0  0  0  0  0
    0.6850   -6.6790  -27.1920 C   0  0  0  0  0  0  0  0  0  0  0  0
   -0.5300   -6.0600  -26.8980 C   0  0  0  0  0  0  0  0  0  0  0  0
   -1.6190   -6.7280  -26.3150 C   0  0  0  0  0  3  0  0  0  0  0  0
   -1.4430   -8.0230  -25.8640 C   0  0  0  0  0  3  0  0  0  0  0  0
   -0.1570   -8.5570  -25.8830 C   0  0  0  0  0  3  0  0  0  0  0  0
    0.9220   -7.8630  -26.5070 C   0  0  0  0  0  0  0  0  0  0  0  0
   -0.3460   -4.6810  -26.3990 C   0  0  0  0  0  0  0  0  0  0  0  0
    0.1290   -3.8470  -27.3840 N   0  0  0  0  0  0  0  0  0  0  0  0
   -0.5730   -4.3310  -25.2540 O   0  0  0  0  0  0  0  0  0  0  0  0
    0.1410   -2.8570  -27.2210 H   0  0  0  0  0  0  0  0  0  0  0  0
    0.3330   -4.1630  -28.3250 H   0  0  0  0  0  0  0  0  0  0  0  0
  1  9  1  0  0  0  0
  2  1  2  0  0  0  0
  3  2  1  0  0  0  0
  4  3  2  0  0  0  0
  4  5  1  0  0  0  0
  5 20  1  0  0  0  0
  5  6  2  0  0  0  0
  6  1  1  0  0  0  0
  7 13  1  0  0  0  0
  7  8  2  0  0  0  0
  9 10  1  0  0  0  0
  9  7  1  0  0  0  0
 11 15  2  0  0  0  0
 12 11  1  0  0  0  0
 12 13  2  0  0  0  0
 13 14  1  0  0  0  0
 14 16  1  0  0  0  0
 15 14  1  0  0  0  0
 17 18  1  0  0  0  0
 18 11  1  0  0  0  0
 19 18  1  0  0  0  0
 20 21  1  6  0  0  0
 20 22  1  0  0  0  0
 22 23  1  0  0  0  0
 24 22  1  0  0  0  0
 25 24  2  0  0  0  0
 26 27  2  0  0  0  0
 26 25  1  0  0  0  0
 27 28  1  0  0  0  0
 28 29  2  0  0  0  0
 28 33  1  0  0  0  0
 29 34  1  0  0  0  0
 29 30  1  0  0  0  0
 30 31  2  0  0  0  0
 32 31  1  0  0  0  0
 33 24  1  0  0  0  0
 33 32  2  0  0  0  0
 34 36  2  0  0  0  0
 35 37  1  0  0  0  0
 35 34  1  0  0  0  0
 38 35  1  0  0  0  0
M  END
>  <minimizedAffinity>
-8.28870392

$$$$

 OpenBabel10152419323D

 38 41  0  0  1  0  0  0  0  0999 V2000
    3.8530  -12.0750  -27.7390 C   0  0  0  0  0  0  0  0  0  0  0  0
    3.9580  -12.7760  -28.9410 C   0  0  0  0  0  3  0  0  0  0  0  0
    3.9300  -12.0940  -30.1560 C   0  0  0  0  0  3  0  0  0  0  0  0
    3.9060  -10.7000  -30.1760 C   0  0  0  0  0  3  0  0  0  0  0  0
    3.8880   -9.9660  -28.9790 C   0  0  0  0  0  0  0  0  0  0  0  0
    3.7830  -10.6740  -27.7570 C   0  0  0  0  0  3  0  0  0  0  0  0
    3.6380  -12.4830  -25.2720 C   0  0  0  0  0  0  0  0  0  0  0  0
    4.4100  -12.6910  -24.3390 O   0  0  0  0  0  0  0  0  0  0  0  0
    4.0140  -12.8100  -26.5510 N   0  0  0  0  0  0  0  0  0  0  0  0
    4.6490  -13.5990  -26.5970 H   0  0  0  0  0  0  0  0  0  0  0  0
    0.2690  -11.3820  -24.3310 C   0  0  0  0  0  0  0  0  0  0  0  0
    1.5090  -11.9340  -23.9050 C   0  0  0  0  0  3  0  0  0  0  0  0
    2.2630  -12.1130  -25.0490 C   0  0  0  0  0  0  0  0  0  0  0  0
    1.4520  -11.6850  -26.0640 N   0  0  0  0  0  0  0  0  0  0  0  0
    0.2410  -11.2680  -25.6650 N   0  0  0  0  0  0  0  0  0  0  0  0
    1.6870  -11.6270  -27.0510 H   0  0  0  0  0  0  0  0  0  0  0  0
   -1.1870  -11.9780  -22.3340 C   0  0  0  0  0  1  0  0  0  0  0  0
   -0.9450  -11.0120  -23.5010 C   0  0  0  0  0  3  0  0  0  0  0  0
   -0.9140   -9.5780  -22.9690 C   0  0  0  0  0  1  0  0  0  0  0  0
    4.1590   -8.4570  -28.9790 C   0  0  1  0  0  3  0  0  0  0  0  0
    4.7220   -8.0050  -30.3290 C   0  0  0  0  0  1  0  0  0  0  0  0
    2.9530   -7.6850  -28.7020 N   0  0  0  0  0  0  0  0  0  0  0  0
    2.2370   -7.5990  -29.4030 H   0  0  0  0  0  0  0  0  0  0  0  0
    2.6870   -7.3570  -27.3770 C   0  0  0  0  0  0  0  0  0  0  0  0
    3.1820   -8.1860  -26.4410 N   0  0  0  0  0  0  0  0  0  0  0  0
    2.5550   -8.2070  -25.2700 C   0  0  0  0  0  3  0  0  0  0  0  0
    1.4190   -7.5690  -25.0080 N   0  0  0  0  0  0  0  0  0  0  0  0
    0.9740   -6.7030  -25.9380 C   0  0  0  0  0  0  0  0  0  0  0  0
   -0.3170   -6.1790  -25.8910 C   0  0  0  0  0  0  0  0  0  0  0  0
   -0.7530   -5.1170  -26.7000 C   0  0  0  0  0  3  0  0  0  0  0  0
    0.0810   -4.6590  -27.7050 C   0  0  0  0  0  3  0  0  0  0  0  0
    1.2560   -5.3630  -27.9570 C   0  0  0  0  0  3  0  0  0  0  0  0
    1.6820   -6.4200  -27.0990 C   0  0  0  0  0  0  0  0  0  0  0  0
   -1.3370   -7.2300  -25.6950 C   0  0  0  0  0  0  0  0  0  0  0  0
   -1.0370   -8.3650  -26.4100 N   0  0  0  0  0  0  0  0  0  0  0  0
   -2.3280   -7.1010  -24.9960 O   0  0  0  0  0  0  0  0  0  0  0  0
   -1.5590   -9.2040  -26.2350 H   0  0  0  0  0  0  0  0  0  0  0  0
   -0.2190   -8.4440  -27.0030 H   0  0  0  0  0  0  0  0  0  0  0  0
  1  9  1  0  0  0  0
  2  1  2  0  0  0  0
  3  2  1  0  0  0  0
  4  3  2  0  0  0  0
  4  5  1  0  0  0  0
  5 20  1  0  0  0  0
  5  6  2  0  0  0  0
  6  1  1  0  0  0  0
  7 13  1  0  0  0  0
  7  8  2  0  0  0  0
  9  7  1  0  0  0  0
 10  9  1  0  0  0  0
 11 12  1  0  0  0  0
 11 18  1  0  0  0  0
 13 12  2  0  0  0  0
 14 15  1  0  0  0  0
 14 13  1  0  0  0  0
 15 11  2  0  0  0  0
 16 14  1  0  0  0  0
 18 19  1  0  0  0  0
 18 17  1  0  0  0  0
 20 21  1  6  0  0  0
 20 22  1  0  0  0  0
 22 24  1  0  0  0  0
 23 22  1  0  0  0  0
 24 33  2  0  0  0  0
 24 25  1  0  0  0  0
 25 26  2  0  0  0  0
 26 27  1  0  0  0  0
 28 29  1  0  0  0  0
 28 27  2  0  0  0  0
 29 34  1  0  0  0  0
 30 29  2  0  0  0  0
 31 30  1  0  0  0  0
 32 31  2  0  0  0  0
 32 33  1  0  0  0  0
 33 28  1  0  0  0  0
 34 36  2  0  0  0  0
 35 37  1  0  0  0  0
 35 34  1  0  0  0  0
 38 35  1  0  0  0  0
M  END
>  <minimizedAffinity>
-7.67196989

$$$$

 OpenBabel10152419323D

 38 41  0  0  1  0  0  0  0  0999 V2000
   -1.5900  -10.5850  -22.5700 C   0  0  0  0  0  0  0  0  0  0  0  0
   -0.9490  -11.5410  -21.7810 C   0  0  0  0  0  3  0  0  0  0  0  0
   -0.2000  -12.5540  -22.3750 C   0  0  0  0  0  3  0  0  0  0  0  0
    0.0020  -12.5580  -23.7550 C   0  0  0  0  0  3  0  0  0  0  0  0
   -0.5610  -11.5590  -24.5650 C   0  0  0  0  0  0  0  0  0  0  0  0
   -1.4260  -10.6120  -23.9630 C   0  0  0  0  0  3  0  0  0  0  0  0
   -1.8660   -8.1970  -21.8500 C   0  0  0  0  0  0  0  0  0  0  0  0
   -1.9150   -7.5960  -20.7790 O   0  0  0  0  0  0  0  0  0  0  0  0
   -2.2230   -9.5220  -21.9020 N   0  0  0  0  0  0  0  0  0  0  0  0
   -2.9250   -9.7790  -21.2180 H   0  0  0  0  0  0  0  0  0  0  0  0
   -0.9300   -6.4810  -24.9520 C   0  0  0  0  0  0  0  0  0  0  0  0
   -0.6430   -6.7060  -23.5770 C   0  0  0  0  0  3  0  0  0  0  0  0
   -1.6630   -7.5060  -23.0990 C   0  0  0  0  0  0  0  0  0  0  0  0
   -2.4830   -7.6980  -24.1760 N   0  0  0  0  0  0  0  0  0  0  0  0
   -2.0820   -7.0710  -25.2930 N   0  0  0  0  0  0  0  0  0  0  0  0
   -3.3180   -8.2750  -24.2150 H   0  0  0  0  0  0  0  0  0  0  0  0
   -0.2610   -6.2010  -27.3890 C   0  0  0  0  0  1  0  0  0  0  0  0
   -0.1620   -5.6490  -25.9620 C   0  0  0  0  0  3  0  0  0  0  0  0
   -0.5530   -4.1700  -25.9670 C   0  0  0  0  0  1  0  0  0  0  0  0
   -0.1100  -11.3800  -26.0200 C   0  0  1  0  0  3  0  0  0  0  0  0
   -0.4490   -9.9760  -26.5250 C   0  0  0  0  0  1  0  0  0  0  0  0
    1.3240  -11.5930  -26.1780 N   0  0  0  0  0  0  0  0  0  0  0  0
    1.6610  -12.3730  -26.7150 H   0  0  0  0  0  0  0  0  0  0  0  0
    2.1720  -10.5410  -25.8510 C   0  0  0  0  0  0  0  0  0  0  0  0
    1.7570   -9.7140  -24.8750 N   0  0  0  0  0  0  0  0  0  0  0  0
    2.2490   -8.4800  -24.8880 C   0  0  0  0  0  3  0  0  0  0  0  0
    3.0130   -7.9800  -25.8540 N   0  0  0  0  0  0  0  0  0  0  0  0
    3.4610   -8.8400  -26.7870 C   0  0  0  0  0  0  0  0  0  0  0  0
    4.0450   -8.3940  -27.9730 C   0  0  0  0  0  0  0  0  0  0  0  0
    4.7200   -9.2370  -28.8700 C   0  0  0  0  0  3  0  0  0  0  0  0
    4.6800  -10.6040  -28.6590 C   0  0  0  0  0  3  0  0  0  0  0  0
    3.8570  -11.0890  -27.6450 C   0  0  0  0  0  3  0  0  0  0  0  0
    3.2070  -10.2040  -26.7350 C   0  0  0  0  0  0  0  0  0  0  0  0
    3.2320   -7.3540  -28.6370 C   0  0  0  0  0  0  0  0  0  0  0  0
    3.3280   -6.1460  -27.9870 N   0  0  0  0  0  0  0  0  0  0  0  0
    2.5500   -7.5470  -29.6280 O   0  0  0  0  0  0  0  0  0  0  0  0
    2.9580   -5.3240  -28.4280 H   0  0  0  0  0  0  0  0  0  0  0  0
    3.8840   -6.0120  -27.1500 H   0  0  0  0  0  0  0  0  0  0  0  0
  1  9  1  0  0  0  0
  1  2  1  0  0  0  0
  3  2  2  0  0  0  0
  4  3  1  0  0  0  0
  5  6  1  0  0  0  0
  5  4  2  0  0  0  0
  6  1  2  0  0  0  0
  7  8  2  0  0  0  0
  9  7  1  0  0  0  0
  9 10  1  0  0  0  0
 11 12  1  0  0  0  0
 12 13  2  0  0  0  0
 13  7  1  0  0  0  0
 14 13  1  0  0  0  0
 15 11  2  0  0  0  0
 15 14  1  0  0  0  0
 16 14  1  0  0  0  0
 17 18  1  0  0  0  0
 18 11  1  0  0  0  0
 19 18  1  0  0  0  0
 20 21  1  1  0  0  0
 20  5  1  0  0  0  0
 22 20  1  0  0  0  0
 22 24  1  0  0  0  0
 23 22  1  0  0  0  0
 24 25  1  0  0  0  0
 26 25  2  0  0  0  0
 27 26  1  0  0  0  0
 28 33  1  0  0  0  0
 28 27  2  0  0  0  0
 29 28  1  0  0  0  0
 30 31  1  0  0  0  0
 30 29  2  0  0  0  0
 31 32  2  0  0  0  0
 32 33  1  0  0  0  0
 33 24  2  0  0  0  0
 34 35  1  0  0  0  0
 34 29  1  0  0  0  0
 35 38  1  0  0  0  0
 36 34  2  0  0  0  0
 37 35  1  0  0  0  0
M  END
>  <minimizedAffinity>
-7.63820267

$$$$

 OpenBabel10152419323D

 38 41  0  0  1  0  0  0  0  0999 V2000
    2.6790   -8.3750  -26.6400 C   0  0  0  0  0  0  0  0  0  0  0  0
    2.6820   -7.7000  -25.4200 C   0  0  0  0  0  3  0  0  0  0  0  0
    2.2760   -8.3500  -24.2560 C   0  0  0  0  0  3  0  0  0  0  0  0
    1.9660   -9.7090  -24.2860 C   0  0  0  0  0  3  0  0  0  0  0  0
    2.0370  -10.4350  -25.4860 C   0  0  0  0  0  0  0  0  0  0  0  0
    2.3250   -9.7310  -26.6820 C   0  0  0  0  0  3  0  0  0  0  0  0
    2.5720   -6.9850  -28.7270 C   0  0  0  0  0  0  0  0  0  0  0  0
    2.9030   -7.1260  -29.9020 O   0  0  0  0  0  0  0  0  0  0  0  0
    3.2190   -7.6990  -27.7490 N   0  0  0  0  0  0  0  0  0  0  0  0
    4.1850   -7.9080  -27.9720 H   0  0  0  0  0  0  0  0  0  0  0  0
    0.2900   -4.4990  -27.2920 C   0  0  0  0  0  0  0  0  0  0  0  0
    0.6680   -5.8680  -27.3750 C   0  0  0  0  0  3  0  0  0  0  0  0
    1.6810   -5.9300  -28.3120 C   0  0  0  0  0  0  0  0  0  0  0  0
    1.8380   -4.6390  -28.7340 N   0  0  0  0  0  0  0  0  0  0  0  0
    0.9980   -3.7650  -28.1600 N   0  0  0  0  0  0  0  0  0  0  0  0
    2.5280   -4.2910  -29.3940 H   0  0  0  0  0  0  0  0  0  0  0  0
   -0.7240   -4.2780  -24.9720 C   0  0  0  0  0  1  0  0  0  0  0  0
   -0.7930   -3.8590  -26.4450 C   0  0  0  0  0  3  0  0  0  0  0  0
   -0.8220   -2.3320  -26.5320 C   0  0  0  0  0  1  0  0  0  0  0  0
    1.9910  -11.9670  -25.4820 C   0  0  1  0  0  3  0  0  0  0  0  0
    3.2840  -12.5490  -24.9050 C   0  0  0  0  0  1  0  0  0  0  0  0
    0.8690  -12.4780  -24.7030 N   0  0  0  0  0  0  0  0  0  0  0  0
    1.0340  -13.0860  -23.9190 H   0  0  0  0  0  0  0  0  0  0  0  0
   -0.3670  -11.8630  -24.8720 C   0  0  0  0  0  0  0  0  0  0  0  0
   -0.7460  -11.6100  -26.1370 N   0  0  0  0  0  0  0  0  0  0  0  0
   -1.6130  -10.6200  -26.3140 C   0  0  0  0  0  3  0  0  0  0  0  0
   -2.0280   -9.7970  -25.3560 N   0  0  0  0  0  0  0  0  0  0  0  0
   -1.6820  -10.1040  -24.0920 C   0  0  0  0  0  0  0  0  0  0  0  0
   -1.8360   -9.1910  -23.0490 C   0  0  0  0  0  0  0  0  0  0  0  0
   -1.6980   -9.5310  -21.6940 C   0  0  0  0  0  3  0  0  0  0  0  0
   -1.2360  -10.7940  -21.3680 C   0  0  0  0  0  3  0  0  0  0  0  0
   -0.7980  -11.6210  -22.3990 C   0  0  0  0  0  3  0  0  0  0  0  0
   -0.9780  -11.2560  -23.7650 C   0  0  0  0  0  0  0  0  0  0  0  0
   -1.2800   -7.8630  -23.3850 C   0  0  0  0  0  0  0  0  0  0  0  0
   -1.2750   -7.0270  -22.2940 N   0  0  0  0  0  0  0  0  0  0  0  0
   -0.8880   -7.5460  -24.4950 O   0  0  0  0  0  0  0  0  0  0  0  0
   -0.7740   -6.1580  -22.3480 H   0  0  0  0  0  0  0  0  0  0  0  0
   -1.6260   -7.3030  -21.3840 H   0  0  0  0  0  0  0  0  0  0  0  0
  1  2  1  0  0  0  0
  2  3  2  0  0  0  0
  4  3  1  0  0  0  0
  5 20  1  0  0  0  0
  5  4  2  0  0  0  0
  6  1  2  0  0  0  0
  6  5  1  0  0  0  0
  7 13  1  0  0  0  0
  7  9  1  0  0  0  0
  8  7  2  0  0  0  0
  9  1  1  0  0  0  0
 10  9  1  0  0  0  0
 11 18  1  0  0  0  0
 12 11  1  0  0  0  0
 13 12  2  0  0  0  0
 14 13  1  0  0  0  0
 14 15  1  0  0  0  0
 15 11  2  0  0  0  0
 16 14  1  0  0  0  0
 18 17  1  0  0  0  0
 19 18  1  0  0  0  0
 20 21  1  1  0  0  0
 20 22  1  0  0  0  0
 22 23  1  0  0  0  0
 24 22  1  0  0  0  0
 24 33  1  0  0  0  0
 25 24  2  0  0  0  0
 26 25  1  0  0  0  0
 26 27  2  0  0  0  0
 27 28  1  0  0  0  0
 28 33  2  0  0  0  0
 28 29  1  0  0  0  0
 29 30  2  0  0  0  0
 30 31  1  0  0  0  0
 32 31  2  0  0  0  0
 33 32  1  0  0  0  0
 34 29  1  0  0  0  0
 34 35  1  0  0  0  0
 35 38  1  0  0  0  0
 36 34  2  0  0  0  0
 37 35  1  0  0  0  0
M  END
>  <minimizedAffinity>
-7.61390972

$$$$

 OpenBabel10152419323D

 38 41  0  0  1  0  0  0  0  0999 V2000
    0.2110  -12.5380  -23.9230 C   0  0  0  0  0  0  0  0  0  0  0  0
    1.5310  -12.9590  -24.0810 C   0  0  0  0  0  3  0  0  0  0  0  0
    2.2920  -12.4980  -25.1530 C   0  0  0  0  0  3  0  0  0  0  0  0
    1.7750  -11.5310  -26.0150 C   0  0  0  0  0  3  0  0  0  0  0  0
    0.4780  -11.0260  -25.8280 C   0  0  0  0  0  0  0  0  0  0  0  0
   -0.3290  -11.5990  -24.8140 C   0  0  0  0  0  3  0  0  0  0  0  0
   -0.6420  -12.2540  -21.5800 C   0  0  0  0  0  0  0  0  0  0  0  0
   -0.4860  -12.8290  -20.5050 O   0  0  0  0  0  0  0  0  0  0  0  0
   -0.4560  -12.9420  -22.7530 N   0  0  0  0  0  0  0  0  0  0  0  0
   -0.6710  -13.9300  -22.6810 H   0  0  0  0  0  0  0  0  0  0  0  0
   -2.0650   -8.9310  -22.1970 C   0  0  0  0  0  0  0  0  0  0  0  0
   -1.0540   -9.8770  -22.5210 C   0  0  0  0  0  3  0  0  0  0  0  0
   -1.2320  -10.9410  -21.6570 C   0  0  0  0  0  0  0  0  0  0  0  0
   -2.2980  -10.5770  -20.8810 N   0  0  0  0  0  0  0  0  0  0  0  0
   -2.7980   -9.3650  -21.1640 N   0  0  0  0  0  0  0  0  0  0  0  0
   -2.7470  -11.1330  -20.1590 H   0  0  0  0  0  0  0  0  0  0  0  0
   -1.0610   -6.6970  -22.8810 C   0  0  0  0  0  1  0  0  0  0  0  0
   -2.3230   -7.5660  -22.8050 C   0  0  0  0  0  3  0  0  0  0  0  0
   -2.9800   -7.6210  -24.1860 C   0  0  0  0  0  1  0  0  0  0  0  0
    0.0100   -9.7690  -26.5710 C   0  0  1  0  0  3  0  0  0  0  0  0
   -1.4600   -9.8920  -26.9770 C   0  0  0  0  0  1  0  0  0  0  0  0
    0.1650   -8.5650  -25.7610 N   0  0  0  0  0  0  0  0  0  0  0  0
    0.0020   -8.6010  -24.7690 H   0  0  0  0  0  0  0  0  0  0  0  0
    0.8350   -7.4870  -26.3290 C   0  0  0  0  0  0  0  0  0  0  0  0
    0.0720   -6.5280  -26.8820 N   0  0  0  0  0  0  0  0  0  0  0  0
    0.6340   -5.7920  -27.8340 C   0  0  0  0  0  3  0  0  0  0  0  0
    1.8370   -6.0170  -28.3530 N   0  0  0  0  0  0  0  0  0  0  0  0
    2.6030   -6.9430  -27.7460 C   0  0  0  0  0  0  0  0  0  0  0  0
    3.7600   -7.4420  -28.3440 C   0  0  0  0  0  0  0  0  0  0  0  0
    4.7010   -8.2360  -27.6700 C   0  0  0  0  0  3  0  0  0  0  0  0
    4.4060   -8.6810  -26.3940 C   0  0  0  0  0  3  0  0  0  0  0  0
    3.1300   -8.4360  -25.8910 C   0  0  0  0  0  3  0  0  0  0  0  0
    2.2080   -7.6040  -26.5900 C   0  0  0  0  0  0  0  0  0  0  0  0
    3.5270   -7.8600  -29.7420 C   0  0  0  0  0  0  0  0  0  0  0  0
    4.4340   -8.8110  -30.1430 N   0  0  0  0  0  0  0  0  0  0  0  0
    2.6480   -7.4070  -30.4550 O   0  0  0  0  0  0  0  0  0  0  0  0
    4.2840   -9.2950  -31.0100 H   0  0  0  0  0  0  0  0  0  0  0  0
    5.1720   -9.1590  -29.5410 H   0  0  0  0  0  0  0  0  0  0  0  0
  1  9  1  0  0  0  0
  2  1  1  0  0  0  0
  3  2  2  0  0  0  0
  4  5  2  0  0  0  0
  4  3  1  0  0  0  0
  5  6  1  0  0  0  0
  6  1  2  0  0  0  0
  7  8  2  0  0  0  0
  9 10  1  0  0  0  0
  9  7  1  0  0  0  0
 11 15  2  0  0  0  0
 12 11  1  0  0  0  0
 12 13  2  0  0  0  0
 13  7  1  0  0  0  0
 13 14  1  0  0  0  0
 14 16  1  0  0  0  0
 15 14  1  0  0  0  0
 17 18  1  0  0  0  0
 18 11  1  0  0  0  0
 19 18  1  0  0  0  0
 20 21  1  1  0  0  0
 20  5  1  0  0  0  0
 20 22  1  0  0  0  0
 22 23  1  0  0  0  0
 24 22  1  0  0  0  0
 25 24  2  0  0  0  0
 26 25  1  0  0  0  0
 27 26  2  0  0  0  0
 27 28  1  0  0  0  0
 28 33  1  0  0  0  0
 29 28  2  0  0  0  0
 29 30  1  0  0  0  0
 30 31  2  0  0  0  0
 31 32  1  0  0  0  0
 33 24  1  0  0  0  0
 33 32  2  0  0  0  0
 34 29  1  0  0  0  0
 35 34  1  0  0  0  0
 35 38  1  0  0  0  0
 36 34  2  0  0  0  0
 37 35  1  0  0  0  0
M  END
>  <minimizedAffinity>
-7.38297558

$$$$
