
 OpenBabel11232420333D

 38 42  0  0  1  0  0  0  0  0999 V2000
   -2.0510    4.9970   -7.2180 C   0  0  0  0  0  0  0  0  0  0  0  0
   -3.0810    5.2410   -6.4350 N   0  0  0  0  0  0  0  0  0  0  0  0
   -3.8580    4.1100   -6.4220 C   0  0  0  0  0  0  0  0  0  0  0  0
   -3.3380    3.1860   -7.2990 C   0  0  0  0  0  3  0  0  0  0  0  0
   -2.2330    3.7870   -7.8500 N   0  0  0  0  0  0  0  0  0  0  0  0
   -5.0530    3.9760   -5.6040 C   0  0  0  0  0  0  0  0  0  0  0  0
   -5.5280    5.0240   -4.7990 C   0  0  0  0  0  3  0  0  0  0  0  0
   -6.6800    4.8580   -4.0230 C   0  0  0  0  0  3  0  0  0  0  0  0
   -7.3610    3.6450   -4.0470 C   0  0  0  0  0  0  0  0  0  0  0  0
   -8.4580    3.5100   -3.2890 F   0  0  0  0  0  0  0  0  0  0  0  0
   -6.9090    2.5990   -4.8430 C   0  0  0  0  0  0  0  0  0  0  0  0
   -7.7460    1.0940   -4.8740 Cl  0  0  0  0  0  0  0  0  0  0  0  0
   -5.7620    2.7620   -5.6220 C   0  0  0  0  0  3  0  0  0  0  0  0
    1.2220    7.7220   -6.6000 N   0  0  0  0  0  0  0  0  0  0  0  0
    0.0060    8.2670   -7.1990 C   0  0  0  0  0  2  0  0  0  0  0  0
   -1.1890    7.3470   -6.9520 C   0  0  0  0  0  2  0  0  0  0  0  0
   -0.8700    5.9130   -7.4030 C   0  0  1  0  0  3  0  0  0  0  0  0
    0.3610    5.4000   -6.6460 C   0  0  0  0  0  2  0  0  0  0  0  0
    1.5530    6.3290   -6.8770 C   0  0  0  0  0  2  0  0  0  0  0  0
    2.7280    8.8030   -5.0250 C   0  0  0  0  0  0  0  0  0  0  0  0
    2.9050    9.2140   -3.7080 C   0  0  0  0  0  0  0  0  0  0  0  0
    4.0770    9.7940   -3.2600 N   0  0  0  0  0  0  0  0  0  0  0  0
    1.9880    9.0190   -2.7540 N   0  0  0  0  0  0  0  0  0  0  0  0
    0.8670    8.4020   -3.1330 C   0  0  0  0  0  3  0  0  0  0  0  0
    0.5830    7.9670   -4.3630 N   0  0  0  0  0  0  0  0  0  0  0  0
    1.5120    8.1770   -5.3110 C   0  0  0  0  0  0  0  0  0  0  0  0
    4.0440    9.9890   -2.2660 H   0  0  0  0  0  0  0  0  0  0  0  0
    4.5030   10.5070   -3.8320 H   0  0  0  0  0  0  0  0  0  0  0  0
    4.8180    7.7520   -5.9390 C   0  0  0  0  0  1  0  0  0  0  0  0
    3.8380    8.9130   -6.0420 C   0  0  0  0  0  2  0  0  0  0  0  0
   -1.4770    3.2320   -8.9580 C   0  0  0  0  0  2  0  0  0  0  0  0
   -0.3340    2.3250   -8.4750 C   0  0  0  0  0  2  0  0  0  0  0  0
    0.8930    2.4050   -9.3630 N   0  0  0  0  0  4  0  0  0  0  0  0
    2.1790    2.7350   -8.6090 C   0  0  0  0  0  2  0  0  0  0  0  0
    2.8390    3.8470   -9.4070 C   0  0  0  0  0  2  0  0  0  0  0  0
    2.2470    3.7250  -10.7950 C   0  0  0  0  0  2  0  0  0  0  0  0
    0.8010    3.3930  -10.5060 C   0  0  0  0  0  2  0  0  0  0  0  0
    1.0570    1.4690   -9.7680 H   0  0  0  0  0  0  0  0  0  0  0  0
  1  2  2  0  0  0  0
  2  3  1  0  0  0  0
  3  6  1  0  0  0  0
  4  3  2  0  0  0  0
  5  4  1  0  0  0  0
  5  1  1  0  0  0  0
  6  7  1  0  0  0  0
  7  8  2  0  0  0  0
  9  8  1  0  0  0  0
  9 10  1  0  0  0  0
 11  9  2  0  0  0  0
 12 11  1  0  0  0  0
 13  6  2  0  0  0  0
 13 11  1  0  0  0  0
 14 26  1  0  0  0  0
 15 16  1  0  0  0  0
 15 14  1  0  0  0  0
 17  1  1  1  0  0  0
 17 16  1  0  0  0  0
 17 18  1  0  0  0  0
 19 18  1  0  0  0  0
 19 14  1  0  0  0  0
 20 21  1  0  0  0  0
 21 22  1  0  0  0  0
 21 23  2  0  0  0  0
 22 27  1  0  0  0  0
 24 23  1  0  0  0  0
 25 24  2  0  0  0  0
 26 20  2  0  0  0  0
 26 25  1  0  0  0  0
 28 22  1  0  0  0  0
 30 29  1  0  0  0  0
 30 20  1  0  0  0  0
 31 32  1  0  0  0  0
 31  5  1  0  0  0  0
 33 34  1  0  0  0  0
 33 32  1  0  0  0  0
 35 34  1  0  0  0  0
 36 37  1  0  0  0  0
 36 35  1  0  0  0  0
 37 33  1  0  0  0  0
 38 33  1  0  0  0  0
M  END
>  <minimizedAffinity>
-9.12961578

$$$$
