
 OpenBabel11232420333D

 38 42  0  0  1  0  0  0  0  0999 V2000
   -0.4810    3.9050   -8.1630 C   0  0  0  0  0  0  0  0  0  0  0  0
    0.6670    3.7710   -8.7950 N   0  0  0  0  0  0  0  0  0  0  0  0
    1.5680    4.6030   -8.1790 C   0  0  0  0  0  0  0  0  0  0  0  0
    0.9270    5.3360   -7.2080 C   0  0  0  0  0  3  0  0  0  0  0  0
   -0.3860    4.9360   -7.2560 N   0  0  0  0  0  0  0  0  0  0  0  0
    2.9720    4.6720   -8.5560 C   0  0  0  0  0  0  0  0  0  0  0  0
    3.4930    3.9330   -9.6300 C   0  0  0  0  0  3  0  0  0  0  0  0
    4.8490    4.0230   -9.9630 C   0  0  0  0  0  3  0  0  0  0  0  0
    5.6890    4.8510   -9.2240 C   0  0  0  0  0  0  0  0  0  0  0  0
    6.9850    4.9130   -9.5590 F   0  0  0  0  0  0  0  0  0  0  0  0
    5.1880    5.5940   -8.1610 C   0  0  0  0  0  0  0  0  0  0  0  0
    6.2230    6.6160   -7.2400 Cl  0  0  0  0  0  0  0  0  0  0  0  0
    3.8350    5.5100   -7.8290 C   0  0  0  0  0  3  0  0  0  0  0  0
   -4.3180    1.9780   -7.8760 N   0  0  0  0  0  0  0  0  0  0  0  0
   -3.1390    1.1550   -7.6170 C   0  0  0  0  0  2  0  0  0  0  0  0
   -1.9190    2.0220   -7.3110 C   0  0  0  0  0  2  0  0  0  0  0  0
   -1.7080    3.0700   -8.4150 C   0  0  1  0  0  3  0  0  0  0  0  0
   -2.9630    3.9420   -8.5410 C   0  0  0  0  0  2  0  0  0  0  0  0
   -4.1880    3.0740   -8.8300 C   0  0  0  0  0  2  0  0  0  0  0  0
   -6.3600    1.5650   -6.6200 C   0  0  0  0  0  0  0  0  0  0  0  0
   -7.0860    1.8870   -5.4780 C   0  0  0  0  0  0  0  0  0  0  0  0
   -8.3400    1.3640   -5.2210 N   0  0  0  0  0  0  0  0  0  0  0  0
   -6.6660    2.7780   -4.5740 N   0  0  0  0  0  0  0  0  0  0  0  0
   -5.4880    3.3540   -4.8180 C   0  0  0  0  0  3  0  0  0  0  0  0
   -4.7010    3.1240   -5.8730 N   0  0  0  0  0  0  0  0  0  0  0  0
   -5.1360    2.2220   -6.7690 C   0  0  0  0  0  0  0  0  0  0  0  0
   -8.7380    1.7420   -4.3680 H   0  0  0  0  0  0  0  0  0  0  0  0
   -8.4840    0.3770   -5.3710 H   0  0  0  0  0  0  0  0  0  0  0  0
   -7.5830    1.4550   -8.8100 C   0  0  0  0  0  1  0  0  0  0  0  0
   -6.9270    0.6620   -7.6880 C   0  0  0  0  0  2  0  0  0  0  0  0
   -1.4560    5.5800   -6.5160 C   0  0  0  0  0  2  0  0  0  0  0  0
   -0.9630    6.1530   -5.1770 C   0  0  0  0  0  2  0  0  0  0  0  0
   -1.0230    7.6680   -5.1290 N   0  0  0  0  0  4  0  0  0  0  0  0
    0.3360    8.3310   -4.9240 C   0  0  0  0  0  2  0  0  0  0  0  0
    0.1230    9.3480   -3.8140 C   0  0  0  0  0  2  0  0  0  0  0  0
   -1.3670    9.6180   -3.8250 C   0  0  0  0  0  2  0  0  0  0  0  0
   -1.9460    8.2450   -4.0780 C   0  0  0  0  0  2  0  0  0  0  0  0
   -1.3450    8.0040   -6.0510 H   0  0  0  0  0  0  0  0  0  0  0  0
  1  5  1  0  0  0  0
  2  3  1  0  0  0  0
  2  1  2  0  0  0  0
  3  4  2  0  0  0  0
  5  4  1  0  0  0  0
  5 31  1  0  0  0  0
  6  3  1  0  0  0  0
  6 13  1  0  0  0  0
  7  6  2  0  0  0  0
  8  7  1  0  0  0  0
  8  9  2  0  0  0  0
  9 11  1  0  0  0  0
 10  9  1  0  0  0  0
 11 13  2  0  0  0  0
 11 12  1  0  0  0  0
 14 15  1  0  0  0  0
 14 26  1  0  0  0  0
 15 16  1  0  0  0  0
 17  1  1  1  0  0  0
 17 16  1  0  0  0  0
 18 17  1  0  0  0  0
 19 18  1  0  0  0  0
 19 14  1  0  0  0  0
 20 21  1  0  0  0  0
 21 22  1  0  0  0  0
 21 23  2  0  0  0  0
 22 27  1  0  0  0  0
 24 23  1  0  0  0  0
 25 24  2  0  0  0  0
 26 20  2  0  0  0  0
 26 25  1  0  0  0  0
 28 22  1  0  0  0  0
 29 30  1  0  0  0  0
 30 20  1  0  0  0  0
 31 32  1  0  0  0  0
 32 33  1  0  0  0  0
 33 34  1  0  0  0  0
 33 37  1  0  0  0  0
 34 35  1  0  0  0  0
 36 35  1  0  0  0  0
 37 36  1  0  0  0  0
 38 33  1  0  0  0  0
M  END
>  <minimizedAffinity>
-9.4257555

$$$$
