
 OpenBabel11232420333D

 38 42  0  0  1  0  0  0  0  0999 V2000
    0.5810    4.5610   -7.8470 C   0  0  0  0  0  0  0  0  0  0  0  0
    0.6640    5.4870   -6.9150 N   0  0  0  0  0  0  0  0  0  0  0  0
    1.9350    6.0040   -6.9710 C   0  0  0  0  0  0  0  0  0  0  0  0
    2.6750    5.3050   -7.8950 C   0  0  0  0  0  3  0  0  0  0  0  0
    1.8270    4.3480   -8.3940 N   0  0  0  0  0  0  0  0  0  0  0  0
    2.3810    7.1090   -6.1350 C   0  0  0  0  0  0  0  0  0  0  0  0
    3.7050    7.5740   -6.1570 C   0  0  0  0  0  3  0  0  0  0  0  0
    4.0980    8.6370   -5.3370 C   0  0  0  0  0  3  0  0  0  0  0  0
    3.1710    9.2380   -4.4920 C   0  0  0  0  0  0  0  0  0  0  0  0
    3.5750   10.2510   -3.7110 F   0  0  0  0  0  0  0  0  0  0  0  0
    1.8540    8.7940   -4.4610 C   0  0  0  0  0  0  0  0  0  0  0  0
    0.7030    9.5320   -3.4150 Cl  0  0  0  0  0  0  0  0  0  0  0  0
    1.4570    7.7370   -5.2810 C   0  0  0  0  0  3  0  0  0  0  0  0
   -3.3640    2.8440   -7.9040 N   0  0  0  0  0  0  0  0  0  0  0  0
   -2.2420    1.9270   -7.7200 C   0  0  0  0  0  2  0  0  0  0  0  0
   -0.9870    2.6760   -7.2760 C   0  0  0  0  0  2  0  0  0  0  0  0
   -0.6820    3.8370   -8.2340 C   0  0  1  0  0  3  0  0  0  0  0  0
   -1.8820    4.7920   -8.2820 C   0  0  0  0  0  2  0  0  0  0  0  0
   -3.1430    4.0400   -8.7090 C   0  0  0  0  0  2  0  0  0  0  0  0
   -5.3360    2.1940   -6.6370 C   0  0  0  0  0  0  0  0  0  0  0  0
   -6.0950    2.4370   -5.4960 C   0  0  0  0  0  0  0  0  0  0  0  0
   -7.2740    1.7650   -5.2290 N   0  0  0  0  0  0  0  0  0  0  0  0
   -5.7870    3.3830   -4.6030 N   0  0  0  0  0  0  0  0  0  0  0  0
   -4.6900    4.0990   -4.8590 C   0  0  0  0  0  3  0  0  0  0  0  0
   -3.8830    3.9560   -5.9140 N   0  0  0  0  0  0  0  0  0  0  0  0
   -4.2040    2.9960   -6.7970 C   0  0  0  0  0  0  0  0  0  0  0  0
   -7.7130    2.1010   -4.3800 H   0  0  0  0  0  0  0  0  0  0  0  0
   -7.2940    0.7660   -5.3680 H   0  0  0  0  0  0  0  0  0  0  0  0
   -6.6480    1.8870   -8.7560 C   0  0  0  0  0  1  0  0  0  0  0  0
   -5.7890    1.2160   -7.6930 C   0  0  0  0  0  2  0  0  0  0  0  0
    2.2460    3.2740   -9.2750 C   0  0  0  0  0  2  0  0  0  0  0  0
    3.4980    3.6510  -10.0840 C   0  0  0  0  0  2  0  0  0  0  0  0
    4.7280    2.8720   -9.6600 N   0  0  0  0  0  4  0  0  0  0  0  0
    4.4340    1.7440   -8.6750 C   0  0  0  0  0  2  0  0  0  0  0  0
    5.4580    1.9030   -7.5630 C   0  0  0  0  0  2  0  0  0  0  0  0
    6.5830    2.6990   -8.1920 C   0  0  0  0  0  2  0  0  0  0  0  0
    5.8380    3.6980   -9.0470 C   0  0  0  0  0  2  0  0  0  0  0  0
    5.1110    2.4000  -10.4950 H   0  0  0  0  0  0  0  0  0  0  0  0
  1  2  2  0  0  0  0
  3  2  1  0  0  0  0
  3  6  1  0  0  0  0
  4  3  2  0  0  0  0
  5  4  1  0  0  0  0
  5  1  1  0  0  0  0
  6 13  1  0  0  0  0
  7  6  2  0  0  0  0
  7  8  1  0  0  0  0
  8  9  2  0  0  0  0
  9 11  1  0  0  0  0
  9 10  1  0  0  0  0
 11 12  1  0  0  0  0
 13 11  2  0  0  0  0
 14 15  1  0  0  0  0
 14 26  1  0  0  0  0
 15 16  1  0  0  0  0
 17  1  1  1  0  0  0
 17 16  1  0  0  0  0
 18 17  1  0  0  0  0
 19 18  1  0  0  0  0
 19 14  1  0  0  0  0
 20 21  1  0  0  0  0
 21 22  1  0  0  0  0
 21 23  2  0  0  0  0
 22 27  1  0  0  0  0
 24 23  1  0  0  0  0
 25 24  2  0  0  0  0
 26 20  2  0  0  0  0
 26 25  1  0  0  0  0
 28 22  1  0  0  0  0
 29 30  1  0  0  0  0
 30 20  1  0  0  0  0
 31  5  1  0  0  0  0
 32 33  1  0  0  0  0
 32 31  1  0  0  0  0
 33 37  1  0  0  0  0
 33 34  1  0  0  0  0
 34 35  1  0  0  0  0
 36 35  1  0  0  0  0
 37 36  1  0  0  0  0
 38 33  1  0  0  0  0
M  END
>  <minimizedAffinity>
-10.0658474

$$$$
