
 OpenBabel11232420333D

 38 42  0  0  1  0  0  0  0  0999 V2000
    0.5810    4.5610   -7.8470 C   0  0  0  0  0  0  0  0  0  0  0  0
    0.6640    5.4870   -6.9150 N   0  0  0  0  0  0  0  0  0  0  0  0
    1.9350    6.0040   -6.9710 C   0  0  0  0  0  0  0  0  0  0  0  0
    2.6750    5.3050   -7.8950 C   0  0  0  0  0  3  0  0  0  0  0  0
    1.8270    4.3480   -8.3940 N   0  0  0  0  0  0  0  0  0  0  0  0
    2.3810    7.1090   -6.1350 C   0  0  0  0  0  0  0  0  0  0  0  0
    3.7050    7.5740   -6.1570 C   0  0  0  0  0  3  0  0  0  0  0  0
    4.0980    8.6370   -5.3370 C   0  0  0  0  0  3  0  0  0  0  0  0
    3.1710    9.2380   -4.4920 C   0  0  0  0  0  0  0  0  0  0  0  0
    3.5750   10.2510   -3.7110 F   0  0  0  0  0  0  0  0  0  0  0  0
    1.8540    8.7940   -4.4610 C   0  0  0  0  0  0  0  0  0  0  0  0
    0.7030    9.5320   -3.4150 Cl  0  0  0  0  0  0  0  0  0  0  0  0
    1.4570    7.7370   -5.2810 C   0  0  0  0  0  3  0  0  0  0  0  0
   -3.3640    2.8440   -7.9040 N   0  0  0  0  0  0  0  0  0  0  0  0
   -2.2420    1.9270   -7.7200 C   0  0  0  0  0  2  0  0  0  0  0  0
   -0.9870    2.6760   -7.2760 C   0  0  0  0  0  2  0  0  0  0  0  0
   -0.6820    3.8370   -8.2340 C   0  0  1  0  0  3  0  0  0  0  0  0
   -1.8820    4.7920   -8.2820 C   0  0  0  0  0  2  0  0  0  0  0  0
   -3.1430    4.0400   -8.7090 C   0  0  0  0  0  2  0  0  0  0  0  0
   -5.3360    2.1940   -6.6370 C   0  0  0  0  0  0  0  0  0  0  0  0
   -6.0950    2.4370   -5.4960 C   0  0  0  0  0  0  0  0  0  0  0  0
   -7.2740    1.7650   -5.2290 N   0  0  0  0  0  0  0  0  0  0  0  0
   -5.7870    3.3830   -4.6030 N   0  0  0  0  0  0  0  0  0  0  0  0
   -4.6900    4.0990   -4.8590 C   0  0  0  0  0  3  0  0  0  0  0  0
   -3.8830    3.9560   -5.9140 N   0  0  0  0  0  0  0  0  0  0  0  0
   -4.2040    2.9960   -6.7970 C   0  0  0  0  0  0  0  0  0  0  0  0
   -7.7130    2.1010   -4.3800 H   0  0  0  0  0  0  0  0  0  0  0  0
   -7.2940    0.7660   -5.3680 H   0  0  0  0  0  0  0  0  0  0  0  0
   -6.6480    1.8870   -8.7560 C   0  0  0  0  0  1  0  0  0  0  0  0
   -5.7890    1.2160   -7.6930 C   0  0  0  0  0  2  0  0  0  0  0  0
    2.2460    3.2740   -9.2750 C   0  0  0  0  0  2  0  0  0  0  0  0
    3.4980    3.6510  -10.0840 C   0  0  0  0  0  2  0  0  0  0  0  0
    4.7280    2.8720   -9.6600 N   0  0  0  0  0  4  0  0  0  0  0  0
    4.4340    1.7440   -8.6750 C   0  0  0  0  0  2  0  0  0  0  0  0
    5.4580    1.9030   -7.5630 C   0  0  0  0  0  2  0  0  0  0  0  0
    6.5830    2.6990   -8.1920 C   0  0  0  0  0  2  0  0  0  0  0  0
    5.8380    3.6980   -9.0470 C   0  0  0  0  0  2  0  0  0  0  0  0
    5.1110    2.4000  -10.4950 H   0  0  0  0  0  0  0  0  0  0  0  0
  1  2  2  0  0  0  0
  3  2  1  0  0  0  0
  3  6  1  0  0  0  0
  4  3  2  0  0  0  0
  5  4  1  0  0  0  0
  5  1  1  0  0  0  0
  6 13  1  0  0  0  0
  7  6  2  0  0  0  0
  7  8  1  0  0  0  0
  8  9  2  0  0  0  0
  9 11  1  0  0  0  0
  9 10  1  0  0  0  0
 11 12  1  0  0  0  0
 13 11  2  0  0  0  0
 14 15  1  0  0  0  0
 14 26  1  0  0  0  0
 15 16  1  0  0  0  0
 17  1  1  1  0  0  0
 17 16  1  0  0  0  0
 18 17  1  0  0  0  0
 19 18  1  0  0  0  0
 19 14  1  0  0  0  0
 20 21  1  0  0  0  0
 21 22  1  0  0  0  0
 21 23  2  0  0  0  0
 22 27  1  0  0  0  0
 24 23  1  0  0  0  0
 25 24  2  0  0  0  0
 26 20  2  0  0  0  0
 26 25  1  0  0  0  0
 28 22  1  0  0  0  0
 29 30  1  0  0  0  0
 30 20  1  0  0  0  0
 31  5  1  0  0  0  0
 32 33  1  0  0  0  0
 32 31  1  0  0  0  0
 33 37  1  0  0  0  0
 33 34  1  0  0  0  0
 34 35  1  0  0  0  0
 36 35  1  0  0  0  0
 37 36  1  0  0  0  0
 38 33  1  0  0  0  0
M  END
>  <minimizedAffinity>
-10.0658474

$$$$

 OpenBabel11232420333D

 38 42  0  0  1  0  0  0  0  0999 V2000
    0.1680    5.3620   -7.1890 C   0  0  0  0  0  0  0  0  0  0  0  0
    1.4210    5.3130   -7.5910 N   0  0  0  0  0  0  0  0  0  0  0  0
    2.0950    6.3150   -6.9390 C   0  0  0  0  0  0  0  0  0  0  0  0
    1.2080    7.0560   -6.1940 C   0  0  0  0  0  3  0  0  0  0  0  0
   -0.0210    6.4860   -6.4160 N   0  0  0  0  0  0  0  0  0  0  0  0
    3.5280    6.5270   -7.0740 C   0  0  0  0  0  0  0  0  0  0  0  0
    4.2440    7.3650   -6.2050 C   0  0  0  0  0  3  0  0  0  0  0  0
    5.6220    7.5470   -6.3670 C   0  0  0  0  0  3  0  0  0  0  0  0
    6.2890    6.8930   -7.3970 C   0  0  0  0  0  0  0  0  0  0  0  0
    7.6080    7.0890   -7.5350 F   0  0  0  0  0  0  0  0  0  0  0  0
    5.5970    6.0530   -8.2630 C   0  0  0  0  0  0  0  0  0  0  0  0
    6.4160    5.2440   -9.5430 Cl  0  0  0  0  0  0  0  0  0  0  0  0
    4.2230    5.8670   -8.1020 C   0  0  0  0  0  3  0  0  0  0  0  0
   -3.3950    2.9510   -7.2860 N   0  0  0  0  0  0  0  0  0  0  0  0
   -2.1740    2.3150   -6.7970 C   0  0  0  0  0  2  0  0  0  0  0  0
   -1.1340    3.3580   -6.3950 C   0  0  0  0  0  2  0  0  0  0  0  0
   -0.8920    4.3530   -7.5410 C   0  0  1  0  0  3  0  0  0  0  0  0
   -2.2150    5.0360   -7.9130 C   0  0  0  0  0  2  0  0  0  0  0  0
   -3.2630    3.9920   -8.2990 C   0  0  0  0  0  2  0  0  0  0  0  0
   -5.5150    2.3170   -6.2750 C   0  0  0  0  0  0  0  0  0  0  0  0
   -6.4420    2.6110   -5.2800 C   0  0  0  0  0  0  0  0  0  0  0  0
   -7.6280    1.9150   -5.1380 N   0  0  0  0  0  0  0  0  0  0  0  0
   -6.2970    3.6300   -4.4260 N   0  0  0  0  0  0  0  0  0  0  0  0
   -5.1940    4.3680   -4.5720 C   0  0  0  0  0  3  0  0  0  0  0  0
   -4.2350    4.1820   -5.4840 N   0  0  0  0  0  0  0  0  0  0  0  0
   -4.3940    3.1500   -6.3290 C   0  0  0  0  0  0  0  0  0  0  0  0
   -8.1980    2.2930   -4.3900 H   0  0  0  0  0  0  0  0  0  0  0  0
   -7.5990    0.9090   -5.2010 H   0  0  0  0  0  0  0  0  0  0  0  0
   -6.4680    1.8130   -8.5430 C   0  0  0  0  0  1  0  0  0  0  0  0
   -5.7780    1.2490   -7.3080 C   0  0  0  0  0  2  0  0  0  0  0  0
   -1.2740    7.0590   -5.9590 C   0  0  0  0  0  2  0  0  0  0  0  0
   -1.3740    8.5570   -6.2900 C   0  0  0  0  0  2  0  0  0  0  0  0
   -1.2960    9.4370   -5.0570 N   0  0  0  0  0  4  0  0  0  0  0  0
    0.1020    9.5280   -4.4520 C   0  0  0  0  0  2  0  0  0  0  0  0
   -0.0880    9.2870   -2.9640 C   0  0  0  0  0  2  0  0  0  0  0  0
   -1.5420    9.6170   -2.7060 C   0  0  0  0  0  2  0  0  0  0  0  0
   -2.2280    9.0530   -3.9280 C   0  0  0  0  0  2  0  0  0  0  0  0
   -1.5250   10.4040   -5.3400 H   0  0  0  0  0  0  0  0  0  0  0  0
  1  5  1  0  0  0  0
  2  1  2  0  0  0  0
  2  3  1  0  0  0  0
  3  4  2  0  0  0  0
  5  4  1  0  0  0  0
  5 31  1  0  0  0  0
  6  3  1  0  0  0  0
  6  7  1  0  0  0  0
  8  7  2  0  0  0  0
  9  8  1  0  0  0  0
 10  9  1  0  0  0  0
 11 13  1  0  0  0  0
 11  9  2  0  0  0  0
 12 11  1  0  0  0  0
 13  6  2  0  0  0  0
 14 15  1  0  0  0  0
 14 26  1  0  0  0  0
 15 16  1  0  0  0  0
 17  1  1  1  0  0  0
 17 16  1  0  0  0  0
 18 17  1  0  0  0  0
 19 18  1  0  0  0  0
 19 14  1  0  0  0  0
 20 21  1  0  0  0  0
 21 22  1  0  0  0  0
 21 23  2  0  0  0  0
 22 27  1  0  0  0  0
 24 23  1  0  0  0  0
 25 24  2  0  0  0  0
 26 20  2  0  0  0  0
 26 25  1  0  0  0  0
 28 22  1  0  0  0  0
 29 30  1  0  0  0  0
 30 20  1  0  0  0  0
 32 31  1  0  0  0  0
 32 33  1  0  0  0  0
 33 34  1  0  0  0  0
 33 37  1  0  0  0  0
 34 35  1  0  0  0  0
 35 36  1  0  0  0  0
 37 36  1  0  0  0  0
 38 33  1  0  0  0  0
M  END
>  <minimizedAffinity>
-10.030405

$$$$

 OpenBabel11232420333D

 38 42  0  0  1  0  0  0  0  0999 V2000
    0.9100    5.9080   -6.9690 C   0  0  0  0  0  0  0  0  0  0  0  0
    1.6700    5.0970   -7.6750 N   0  0  0  0  0  0  0  0  0  0  0  0
    2.9610    5.5470   -7.5570 C   0  0  0  0  0  0  0  0  0  0  0  0
    2.9750    6.7210   -6.8400 C   0  0  0  0  0  3  0  0  0  0  0  0
    1.6610    6.9760   -6.5330 N   0  0  0  0  0  0  0  0  0  0  0  0
    4.1000    4.8580   -8.1450 C   0  0  0  0  0  0  0  0  0  0  0  0
    5.1440    5.5480   -8.7800 C   0  0  0  0  0  3  0  0  0  0  0  0
    6.2220    4.8520   -9.3370 C   0  0  0  0  0  3  0  0  0  0  0  0
    6.2610    3.4630   -9.2600 C   0  0  0  0  0  0  0  0  0  0  0  0
    7.3010    2.8190   -9.8080 F   0  0  0  0  0  0  0  0  0  0  0  0
    5.2390    2.7630   -8.6290 C   0  0  0  0  0  0  0  0  0  0  0  0
    5.2790    1.0450   -8.5350 Cl  0  0  0  0  0  0  0  0  0  0  0  0
    4.1640    3.4560   -8.0700 C   0  0  0  0  0  3  0  0  0  0  0  0
   -3.1060    4.3660   -6.8380 N   0  0  0  0  0  0  0  0  0  0  0  0
   -2.8630    5.5180   -7.7030 C   0  0  0  0  0  2  0  0  0  0  0  0
   -1.3740    5.6750   -8.0040 C   0  0  0  0  0  2  0  0  0  0  0  0
   -0.5580    5.7020   -6.7020 C   0  0  1  0  0  3  0  0  0  0  0  0
   -0.8080    4.4090   -5.9150 C   0  0  0  0  0  2  0  0  0  0  0  0
   -2.3000    4.2400   -5.6280 C   0  0  0  0  0  2  0  0  0  0  0  0
   -4.6930    2.6170   -7.4220 C   0  0  0  0  0  0  0  0  0  0  0  0
   -4.8800    1.4280   -8.1190 C   0  0  0  0  0  0  0  0  0  0  0  0
   -6.0730    0.7290   -8.0920 N   0  0  0  0  0  0  0  0  0  0  0  0
   -3.9070    0.8290   -8.8130 N   0  0  0  0  0  0  0  0  0  0  0  0
   -2.7210    1.4390   -8.8110 C   0  0  0  0  0  3  0  0  0  0  0  0
   -2.4220    2.5810   -8.1850 N   0  0  0  0  0  0  0  0  0  0  0  0
   -3.4130    3.1730   -7.4970 C   0  0  0  0  0  0  0  0  0  0  0  0
   -6.0150   -0.1340   -8.6210 H   0  0  0  0  0  0  0  0  0  0  0  0
   -6.9310    1.2490   -8.1940 H   0  0  0  0  0  0  0  0  0  0  0  0
   -5.6690    2.6690   -5.1080 C   0  0  0  0  0  1  0  0  0  0  0  0
   -5.7710    3.1910   -6.5350 C   0  0  0  0  0  2  0  0  0  0  0  0
    1.1960    8.2110   -5.9280 C   0  0  0  0  0  2  0  0  0  0  0  0
    1.0650    8.0880   -4.4020 C   0  0  0  0  0  2  0  0  0  0  0  0
   -0.3570    8.2970   -3.9160 N   0  0  0  0  0  4  0  0  0  0  0  0
   -1.3300    8.7110   -5.0170 C   0  0  0  0  0  2  0  0  0  0  0  0
   -2.0930    9.8980   -4.4520 C   0  0  0  0  0  2  0  0  0  0  0  0
   -1.9480    9.7660   -2.9510 C   0  0  0  0  0  2  0  0  0  0  0  0
   -0.5170    9.3050   -2.7990 C   0  0  0  0  0  2  0  0  0  0  0  0
   -0.7150    7.3890   -3.5750 H   0  0  0  0  0  0  0  0  0  0  0  0
  1  5  1  0  0  0  0
  2  3  1  0  0  0  0
  2  1  2  0  0  0  0
  3  4  2  0  0  0  0
  4  5  1  0  0  0  0
  5 31  1  0  0  0  0
  6 13  1  0  0  0  0
  6  3  1  0  0  0  0
  7  6  2  0  0  0  0
  8  9  2  0  0  0  0
  8  7  1  0  0  0  0
  9 11  1  0  0  0  0
 10  9  1  0  0  0  0
 11 12  1  0  0  0  0
 11 13  2  0  0  0  0
 14 19  1  0  0  0  0
 15 14  1  0  0  0  0
 16 15  1  0  0  0  0
 16 17  1  0  0  0  0
 17  1  1  6  0  0  0
 17 18  1  0  0  0  0
 18 19  1  0  0  0  0
 20 30  1  0  0  0  0
 21 22  1  0  0  0  0
 21 20  2  0  0  0  0
 23 24  2  0  0  0  0
 23 21  1  0  0  0  0
 24 25  1  0  0  0  0
 25 26  2  0  0  0  0
 26 20  1  0  0  0  0
 26 14  1  0  0  0  0
 27 22  1  0  0  0  0
 28 22  1  0  0  0  0
 30 29  1  0  0  0  0
 31 32  1  0  0  0  0
 32 33  1  0  0  0  0
 33 38  1  0  0  0  0
 33 37  1  0  0  0  0
 34 35  1  0  0  0  0
 34 33  1  0  0  0  0
 35 36  1  0  0  0  0
 36 37  1  0  0  0  0
M  END
>  <minimizedAffinity>
-9.43309021

$$$$

 OpenBabel11232420333D

 38 42  0  0  1  0  0  0  0  0999 V2000
   -0.4810    3.9050   -8.1630 C   0  0  0  0  0  0  0  0  0  0  0  0
    0.6670    3.7710   -8.7950 N   0  0  0  0  0  0  0  0  0  0  0  0
    1.5680    4.6030   -8.1790 C   0  0  0  0  0  0  0  0  0  0  0  0
    0.9270    5.3360   -7.2080 C   0  0  0  0  0  3  0  0  0  0  0  0
   -0.3860    4.9360   -7.2560 N   0  0  0  0  0  0  0  0  0  0  0  0
    2.9720    4.6720   -8.5560 C   0  0  0  0  0  0  0  0  0  0  0  0
    3.4930    3.9330   -9.6300 C   0  0  0  0  0  3  0  0  0  0  0  0
    4.8490    4.0230   -9.9630 C   0  0  0  0  0  3  0  0  0  0  0  0
    5.6890    4.8510   -9.2240 C   0  0  0  0  0  0  0  0  0  0  0  0
    6.9850    4.9130   -9.5590 F   0  0  0  0  0  0  0  0  0  0  0  0
    5.1880    5.5940   -8.1610 C   0  0  0  0  0  0  0  0  0  0  0  0
    6.2230    6.6160   -7.2400 Cl  0  0  0  0  0  0  0  0  0  0  0  0
    3.8350    5.5100   -7.8290 C   0  0  0  0  0  3  0  0  0  0  0  0
   -4.3180    1.9780   -7.8760 N   0  0  0  0  0  0  0  0  0  0  0  0
   -3.1390    1.1550   -7.6170 C   0  0  0  0  0  2  0  0  0  0  0  0
   -1.9190    2.0220   -7.3110 C   0  0  0  0  0  2  0  0  0  0  0  0
   -1.7080    3.0700   -8.4150 C   0  0  1  0  0  3  0  0  0  0  0  0
   -2.9630    3.9420   -8.5410 C   0  0  0  0  0  2  0  0  0  0  0  0
   -4.1880    3.0740   -8.8300 C   0  0  0  0  0  2  0  0  0  0  0  0
   -6.3600    1.5650   -6.6200 C   0  0  0  0  0  0  0  0  0  0  0  0
   -7.0860    1.8870   -5.4780 C   0  0  0  0  0  0  0  0  0  0  0  0
   -8.3400    1.3640   -5.2210 N   0  0  0  0  0  0  0  0  0  0  0  0
   -6.6660    2.7780   -4.5740 N   0  0  0  0  0  0  0  0  0  0  0  0
   -5.4880    3.3540   -4.8180 C   0  0  0  0  0  3  0  0  0  0  0  0
   -4.7010    3.1240   -5.8730 N   0  0  0  0  0  0  0  0  0  0  0  0
   -5.1360    2.2220   -6.7690 C   0  0  0  0  0  0  0  0  0  0  0  0
   -8.7380    1.7420   -4.3680 H   0  0  0  0  0  0  0  0  0  0  0  0
   -8.4840    0.3770   -5.3710 H   0  0  0  0  0  0  0  0  0  0  0  0
   -7.5830    1.4550   -8.8100 C   0  0  0  0  0  1  0  0  0  0  0  0
   -6.9270    0.6620   -7.6880 C   0  0  0  0  0  2  0  0  0  0  0  0
   -1.4560    5.5800   -6.5160 C   0  0  0  0  0  2  0  0  0  0  0  0
   -0.9630    6.1530   -5.1770 C   0  0  0  0  0  2  0  0  0  0  0  0
   -1.0230    7.6680   -5.1290 N   0  0  0  0  0  4  0  0  0  0  0  0
    0.3360    8.3310   -4.9240 C   0  0  0  0  0  2  0  0  0  0  0  0
    0.1230    9.3480   -3.8140 C   0  0  0  0  0  2  0  0  0  0  0  0
   -1.3670    9.6180   -3.8250 C   0  0  0  0  0  2  0  0  0  0  0  0
   -1.9460    8.2450   -4.0780 C   0  0  0  0  0  2  0  0  0  0  0  0
   -1.3450    8.0040   -6.0510 H   0  0  0  0  0  0  0  0  0  0  0  0
  1  5  1  0  0  0  0
  2  3  1  0  0  0  0
  2  1  2  0  0  0  0
  3  4  2  0  0  0  0
  5  4  1  0  0  0  0
  5 31  1  0  0  0  0
  6  3  1  0  0  0  0
  6 13  1  0  0  0  0
  7  6  2  0  0  0  0
  8  7  1  0  0  0  0
  8  9  2  0  0  0  0
  9 11  1  0  0  0  0
 10  9  1  0  0  0  0
 11 13  2  0  0  0  0
 11 12  1  0  0  0  0
 14 15  1  0  0  0  0
 14 26  1  0  0  0  0
 15 16  1  0  0  0  0
 17  1  1  1  0  0  0
 17 16  1  0  0  0  0
 18 17  1  0  0  0  0
 19 18  1  0  0  0  0
 19 14  1  0  0  0  0
 20 21  1  0  0  0  0
 21 22  1  0  0  0  0
 21 23  2  0  0  0  0
 22 27  1  0  0  0  0
 24 23  1  0  0  0  0
 25 24  2  0  0  0  0
 26 20  2  0  0  0  0
 26 25  1  0  0  0  0
 28 22  1  0  0  0  0
 29 30  1  0  0  0  0
 30 20  1  0  0  0  0
 31 32  1  0  0  0  0
 32 33  1  0  0  0  0
 33 34  1  0  0  0  0
 33 37  1  0  0  0  0
 34 35  1  0  0  0  0
 36 35  1  0  0  0  0
 37 36  1  0  0  0  0
 38 33  1  0  0  0  0
M  END
>  <minimizedAffinity>
-9.4257555

$$$$

 OpenBabel11232420333D

 38 42  0  0  1  0  0  0  0  0999 V2000
   -2.0510    4.9970   -7.2180 C   0  0  0  0  0  0  0  0  0  0  0  0
   -3.0810    5.2410   -6.4350 N   0  0  0  0  0  0  0  0  0  0  0  0
   -3.8580    4.1100   -6.4220 C   0  0  0  0  0  0  0  0  0  0  0  0
   -3.3380    3.1860   -7.2990 C   0  0  0  0  0  3  0  0  0  0  0  0
   -2.2330    3.7870   -7.8500 N   0  0  0  0  0  0  0  0  0  0  0  0
   -5.0530    3.9760   -5.6040 C   0  0  0  0  0  0  0  0  0  0  0  0
   -5.5280    5.0240   -4.7990 C   0  0  0  0  0  3  0  0  0  0  0  0
   -6.6800    4.8580   -4.0230 C   0  0  0  0  0  3  0  0  0  0  0  0
   -7.3610    3.6450   -4.0470 C   0  0  0  0  0  0  0  0  0  0  0  0
   -8.4580    3.5100   -3.2890 F   0  0  0  0  0  0  0  0  0  0  0  0
   -6.9090    2.5990   -4.8430 C   0  0  0  0  0  0  0  0  0  0  0  0
   -7.7460    1.0940   -4.8740 Cl  0  0  0  0  0  0  0  0  0  0  0  0
   -5.7620    2.7620   -5.6220 C   0  0  0  0  0  3  0  0  0  0  0  0
    1.2220    7.7220   -6.6000 N   0  0  0  0  0  0  0  0  0  0  0  0
    0.0060    8.2670   -7.1990 C   0  0  0  0  0  2  0  0  0  0  0  0
   -1.1890    7.3470   -6.9520 C   0  0  0  0  0  2  0  0  0  0  0  0
   -0.8700    5.9130   -7.4030 C   0  0  1  0  0  3  0  0  0  0  0  0
    0.3610    5.4000   -6.6460 C   0  0  0  0  0  2  0  0  0  0  0  0
    1.5530    6.3290   -6.8770 C   0  0  0  0  0  2  0  0  0  0  0  0
    2.7280    8.8030   -5.0250 C   0  0  0  0  0  0  0  0  0  0  0  0
    2.9050    9.2140   -3.7080 C   0  0  0  0  0  0  0  0  0  0  0  0
    4.0770    9.7940   -3.2600 N   0  0  0  0  0  0  0  0  0  0  0  0
    1.9880    9.0190   -2.7540 N   0  0  0  0  0  0  0  0  0  0  0  0
    0.8670    8.4020   -3.1330 C   0  0  0  0  0  3  0  0  0  0  0  0
    0.5830    7.9670   -4.3630 N   0  0  0  0  0  0  0  0  0  0  0  0
    1.5120    8.1770   -5.3110 C   0  0  0  0  0  0  0  0  0  0  0  0
    4.0440    9.9890   -2.2660 H   0  0  0  0  0  0  0  0  0  0  0  0
    4.5030   10.5070   -3.8320 H   0  0  0  0  0  0  0  0  0  0  0  0
    4.8180    7.7520   -5.9390 C   0  0  0  0  0  1  0  0  0  0  0  0
    3.8380    8.9130   -6.0420 C   0  0  0  0  0  2  0  0  0  0  0  0
   -1.4770    3.2320   -8.9580 C   0  0  0  0  0  2  0  0  0  0  0  0
   -0.3340    2.3250   -8.4750 C   0  0  0  0  0  2  0  0  0  0  0  0
    0.8930    2.4050   -9.3630 N   0  0  0  0  0  4  0  0  0  0  0  0
    2.1790    2.7350   -8.6090 C   0  0  0  0  0  2  0  0  0  0  0  0
    2.8390    3.8470   -9.4070 C   0  0  0  0  0  2  0  0  0  0  0  0
    2.2470    3.7250  -10.7950 C   0  0  0  0  0  2  0  0  0  0  0  0
    0.8010    3.3930  -10.5060 C   0  0  0  0  0  2  0  0  0  0  0  0
    1.0570    1.4690   -9.7680 H   0  0  0  0  0  0  0  0  0  0  0  0
  1  2  2  0  0  0  0
  2  3  1  0  0  0  0
  3  6  1  0  0  0  0
  4  3  2  0  0  0  0
  5  4  1  0  0  0  0
  5  1  1  0  0  0  0
  6  7  1  0  0  0  0
  7  8  2  0  0  0  0
  9  8  1  0  0  0  0
  9 10  1  0  0  0  0
 11  9  2  0  0  0  0
 12 11  1  0  0  0  0
 13  6  2  0  0  0  0
 13 11  1  0  0  0  0
 14 26  1  0  0  0  0
 15 16  1  0  0  0  0
 15 14  1  0  0  0  0
 17  1  1  1  0  0  0
 17 16  1  0  0  0  0
 17 18  1  0  0  0  0
 19 18  1  0  0  0  0
 19 14  1  0  0  0  0
 20 21  1  0  0  0  0
 21 22  1  0  0  0  0
 21 23  2  0  0  0  0
 22 27  1  0  0  0  0
 24 23  1  0  0  0  0
 25 24  2  0  0  0  0
 26 20  2  0  0  0  0
 26 25  1  0  0  0  0
 28 22  1  0  0  0  0
 30 29  1  0  0  0  0
 30 20  1  0  0  0  0
 31 32  1  0  0  0  0
 31  5  1  0  0  0  0
 33 34  1  0  0  0  0
 33 32  1  0  0  0  0
 35 34  1  0  0  0  0
 36 37  1  0  0  0  0
 36 35  1  0  0  0  0
 37 33  1  0  0  0  0
 38 33  1  0  0  0  0
M  END
>  <minimizedAffinity>
-9.12961578

$$$$

 OpenBabel11232420333D

 38 42  0  0  1  0  0  0  0  0999 V2000
   -1.6500    4.1840   -7.9750 C   0  0  0  0  0  0  0  0  0  0  0  0
   -2.8800    4.0550   -7.5250 N   0  0  0  0  0  0  0  0  0  0  0  0
   -3.2200    2.7310   -7.6490 C   0  0  0  0  0  0  0  0  0  0  0  0
   -2.2050    2.0540   -8.2830 C   0  0  0  0  0  3  0  0  0  0  0  0
   -1.2450    2.9990   -8.5480 N   0  0  0  0  0  0  0  0  0  0  0  0
   -4.4880    2.1890   -7.1840 C   0  0  0  0  0  0  0  0  0  0  0  0
   -5.0820    1.0640   -7.7790 C   0  0  0  0  0  3  0  0  0  0  0  0
   -6.3040    0.5730   -7.3060 C   0  0  0  0  0  3  0  0  0  0  0  0
   -6.9360    1.2020   -6.2390 C   0  0  0  0  0  0  0  0  0  0  0  0
   -8.1100    0.7150   -5.8110 F   0  0  0  0  0  0  0  0  0  0  0  0
   -6.3600    2.3140   -5.6350 C   0  0  0  0  0  0  0  0  0  0  0  0
   -7.1400    3.1000   -4.3170 Cl  0  0  0  0  0  0  0  0  0  0  0  0
   -5.1390    2.8050   -6.1010 C   0  0  0  0  0  3  0  0  0  0  0  0
    0.3410    7.7560   -6.6360 N   0  0  0  0  0  0  0  0  0  0  0  0
   -0.8390    7.9290   -7.4800 C   0  0  0  0  0  2  0  0  0  0  0  0
   -1.6860    6.6580   -7.5070 C   0  0  0  0  0  2  0  0  0  0  0  0
   -0.8270    5.4430   -7.8910 C   0  0  1  0  0  3  0  0  0  0  0  0
    0.3250    5.2930   -6.8900 C   0  0  0  0  0  2  0  0  0  0  0  0
    1.1640    6.5700   -6.8490 C   0  0  0  0  0  2  0  0  0  0  0  0
    1.3140    8.5030   -4.5360 C   0  0  0  0  0  0  0  0  0  0  0  0
    1.0490    8.9070   -3.2310 C   0  0  0  0  0  0  0  0  0  0  0  0
    2.0510    9.2080   -2.3270 N   0  0  0  0  0  0  0  0  0  0  0  0
   -0.1860    8.9700   -2.7240 N   0  0  0  0  0  0  0  0  0  0  0  0
   -1.1780    8.6250   -3.5470 C   0  0  0  0  0  3  0  0  0  0  0  0
   -1.0490    8.2260   -4.8150 N   0  0  0  0  0  0  0  0  0  0  0  0
    0.1990    8.1750   -5.3100 C   0  0  0  0  0  0  0  0  0  0  0  0
    1.6760    9.4400   -1.4140 H   0  0  0  0  0  0  0  0  0  0  0  0
    2.8210    9.7780   -2.6420 H   0  0  0  0  0  0  0  0  0  0  0  0
    3.2760    9.5690   -5.6850 C   0  0  0  0  0  1  0  0  0  0  0  0
    2.7270    8.3090   -5.0310 C   0  0  0  0  0  2  0  0  0  0  0  0
   -0.0700    2.7540   -9.3650 C   0  0  0  0  0  2  0  0  0  0  0  0
    1.1560    2.3920   -8.5110 C   0  0  0  0  0  2  0  0  0  0  0  0
    2.4670    2.7410   -9.1900 N   0  0  0  0  0  4  0  0  0  0  0  0
    3.6840    2.0680   -8.5610 C   0  0  0  0  0  2  0  0  0  0  0  0
    4.7080    3.1770   -8.3810 C   0  0  0  0  0  2  0  0  0  0  0  0
    4.2900    4.2460   -9.3690 C   0  0  0  0  0  2  0  0  0  0  0  0
    2.7830    4.2190   -9.2630 C   0  0  0  0  0  2  0  0  0  0  0  0
    2.4340    2.3780  -10.1560 H   0  0  0  0  0  0  0  0  0  0  0  0
  1  2  2  0  0  0  0
  3  2  1  0  0  0  0
  3  6  1  0  0  0  0
  4  3  2  0  0  0  0
  5  4  1  0  0  0  0
  5  1  1  0  0  0  0
  6 13  1  0  0  0  0
  7  8  1  0  0  0  0
  7  6  2  0  0  0  0
  8  9  2  0  0  0  0
  9 10  1  0  0  0  0
  9 11  1  0  0  0  0
 11 12  1  0  0  0  0
 13 11  2  0  0  0  0
 14 26  1  0  0  0  0
 15 14  1  0  0  0  0
 16 15  1  0  0  0  0
 17  1  1  1  0  0  0
 17 16  1  0  0  0  0
 17 18  1  0  0  0  0
 18 19  1  0  0  0  0
 19 14  1  0  0  0  0
 20 21  1  0  0  0  0
 21 23  2  0  0  0  0
 21 22  1  0  0  0  0
 22 27  1  0  0  0  0
 24 23  1  0  0  0  0
 25 24  2  0  0  0  0
 26 25  1  0  0  0  0
 26 20  2  0  0  0  0
 28 22  1  0  0  0  0
 29 30  1  0  0  0  0
 30 20  1  0  0  0  0
 31  5  1  0  0  0  0
 31 32  1  0  0  0  0
 33 34  1  0  0  0  0
 33 32  1  0  0  0  0
 34 35  1  0  0  0  0
 36 37  1  0  0  0  0
 36 35  1  0  0  0  0
 37 33  1  0  0  0  0
 38 33  1  0  0  0  0
M  END
>  <minimizedAffinity>
-8.85141754

$$$$

 OpenBabel11232420333D

 38 42  0  0  1  0  0  0  0  0999 V2000
    1.0840    4.9480   -7.6240 C   0  0  0  0  0  0  0  0  0  0  0  0
    1.5390    3.9180   -8.3080 N   0  0  0  0  0  0  0  0  0  0  0  0
    2.9010    4.0630   -8.4000 C   0  0  0  0  0  0  0  0  0  0  0  0
    3.2730    5.2640   -7.8420 C   0  0  0  0  0  3  0  0  0  0  0  0
    2.1060    5.8480   -7.4180 N   0  0  0  0  0  0  0  0  0  0  0  0
    3.7650    3.0740   -9.0260 C   0  0  0  0  0  0  0  0  0  0  0  0
    4.4560    3.3360  -10.2200 C   0  0  0  0  0  3  0  0  0  0  0  0
    5.2770    2.3590  -10.7950 C   0  0  0  0  0  3  0  0  0  0  0  0
    5.4090    1.1180  -10.1800 C   0  0  0  0  0  0  0  0  0  0  0  0
    6.1960    0.1980  -10.7550 F   0  0  0  0  0  0  0  0  0  0  0  0
    4.7370    0.8440   -8.9940 C   0  0  0  0  0  0  0  0  0  0  0  0
    4.8940   -0.6910   -8.2310 Cl  0  0  0  0  0  0  0  0  0  0  0  0
    3.9210    1.8170   -8.4160 C   0  0  0  0  0  3  0  0  0  0  0  0
   -3.1160    4.4180   -6.8510 N   0  0  0  0  0  0  0  0  0  0  0  0
   -2.7440    5.4110   -7.8550 C   0  0  0  0  0  2  0  0  0  0  0  0
   -1.3160    5.1880   -8.3470 C   0  0  0  0  0  2  0  0  0  0  0  0
   -0.3390    5.1160   -7.1630 C   0  0  1  0  0  3  0  0  0  0  0  0
   -0.7610    3.9810   -6.2210 C   0  0  0  0  0  2  0  0  0  0  0  0
   -2.1960    4.1930   -5.7410 C   0  0  0  0  0  2  0  0  0  0  0  0
   -5.0860    2.9940   -6.9570 C   0  0  0  0  0  0  0  0  0  0  0  0
   -5.6370    1.8420   -7.5080 C   0  0  0  0  0  0  0  0  0  0  0  0
   -6.9020    1.3910   -7.1790 N   0  0  0  0  0  0  0  0  0  0  0  0
   -4.9680    1.0420   -8.3440 N   0  0  0  0  0  0  0  0  0  0  0  0
   -3.7190    1.4080   -8.6370 C   0  0  0  0  0  3  0  0  0  0  0  0
   -3.0850    2.4890   -8.1740 N   0  0  0  0  0  0  0  0  0  0  0  0
   -3.7740    3.2860   -7.3400 C   0  0  0  0  0  0  0  0  0  0  0  0
   -7.1210    0.5160   -7.6430 H   0  0  0  0  0  0  0  0  0  0  0  0
   -7.6510    2.0650   -7.1380 H   0  0  0  0  0  0  0  0  0  0  0  0
   -5.5840    3.2480   -4.5080 C   0  0  0  0  0  1  0  0  0  0  0  0
   -5.8180    3.7970   -5.9090 C   0  0  0  0  0  2  0  0  0  0  0  0
    2.0140    7.2090   -6.9220 C   0  0  0  0  0  2  0  0  0  0  0  0
    3.1060    8.1110   -7.5180 C   0  0  0  0  0  2  0  0  0  0  0  0
    3.6330    9.1300   -6.5250 N   0  0  0  0  0  4  0  0  0  0  0  0
    5.1370    9.0370   -6.2860 C   0  0  0  0  0  2  0  0  0  0  0  0
    5.3060    9.0550   -4.7760 C   0  0  0  0  0  2  0  0  0  0  0  0
    4.0350    9.6930   -4.2570 C   0  0  0  0  0  2  0  0  0  0  0  0
    2.9790    9.1000   -5.1600 C   0  0  0  0  0  2  0  0  0  0  0  0
    3.4860   10.0710   -6.9240 H   0  0  0  0  0  0  0  0  0  0  0  0
  1  5  1  0  0  0  0
  2  1  2  0  0  0  0
  3  2  1  0  0  0  0
  3  4  2  0  0  0  0
  4  5  1  0  0  0  0
  5 31  1  0  0  0  0
  6 13  1  0  0  0  0
  6  3  1  0  0  0  0
  7  6  2  0  0  0  0
  8  7  1  0  0  0  0
  8  9  2  0  0  0  0
  9 11  1  0  0  0  0
 10  9  1  0  0  0  0
 11 13  2  0  0  0  0
 11 12  1  0  0  0  0
 14 19  1  0  0  0  0
 15 14  1  0  0  0  0
 16 15  1  0  0  0  0
 16 17  1  0  0  0  0
 17  1  1  6  0  0  0
 17 18  1  0  0  0  0
 18 19  1  0  0  0  0
 20 30  1  0  0  0  0
 21 22  1  0  0  0  0
 21 20  2  0  0  0  0
 22 28  1  0  0  0  0
 23 21  1  0  0  0  0
 24 23  2  0  0  0  0
 24 25  1  0  0  0  0
 25 26  2  0  0  0  0
 26 20  1  0  0  0  0
 26 14  1  0  0  0  0
 27 22  1  0  0  0  0
 30 29  1  0  0  0  0
 32 31  1  0  0  0  0
 32 33  1  0  0  0  0
 33 34  1  0  0  0  0
 33 37  1  0  0  0  0
 34 35  1  0  0  0  0
 35 36  1  0  0  0  0
 37 36  1  0  0  0  0
 38 33  1  0  0  0  0
M  END
>  <minimizedAffinity>
-8.56257057

$$$$

 OpenBabel11232420333D

 38 42  0  0  1  0  0  0  0  0999 V2000
    0.2110    5.9260   -6.6130 C   0  0  0  0  0  0  0  0  0  0  0  0
    0.8600    6.9300   -6.0600 N   0  0  0  0  0  0  0  0  0  0  0  0
    2.1280    6.9310   -6.5860 C   0  0  0  0  0  0  0  0  0  0  0  0
    2.2850    5.8400   -7.4080 C   0  0  0  0  0  3  0  0  0  0  0  0
    1.0860    5.1720   -7.3610 N   0  0  0  0  0  0  0  0  0  0  0  0
    3.1200    7.9460   -6.2660 C   0  0  0  0  0  0  0  0  0  0  0  0
    3.2350    8.4980   -4.9800 C   0  0  0  0  0  3  0  0  0  0  0  0
    4.1990    9.4750   -4.7100 C   0  0  0  0  0  3  0  0  0  0  0  0
    5.0520    9.9040   -5.7220 C   0  0  0  0  0  0  0  0  0  0  0  0
    5.9620   10.8460   -5.4380 F   0  0  0  0  0  0  0  0  0  0  0  0
    4.9560    9.3650   -7.0000 C   0  0  0  0  0  0  0  0  0  0  0  0
    6.0040    9.8950   -8.2580 Cl  0  0  0  0  0  0  0  0  0  0  0  0
    3.9970    8.3870   -7.2720 C   0  0  0  0  0  3  0  0  0  0  0  0
   -3.7170    4.1700   -6.7010 N   0  0  0  0  0  0  0  0  0  0  0  0
   -3.4840    5.3230   -7.5670 C   0  0  0  0  0  2  0  0  0  0  0  0
   -1.9900    5.5590   -7.7800 C   0  0  0  0  0  2  0  0  0  0  0  0
   -1.2570    5.6440   -6.4320 C   0  0  1  0  0  3  0  0  0  0  0  0
   -1.4840    4.3480   -5.6430 C   0  0  0  0  0  2  0  0  0  0  0  0
   -2.9800    4.1010   -5.4440 C   0  0  0  0  0  2  0  0  0  0  0  0
   -5.1370    2.2770   -7.2650 C   0  0  0  0  0  0  0  0  0  0  0  0
   -5.2210    1.0780   -7.9650 C   0  0  0  0  0  0  0  0  0  0  0  0
   -6.3400    0.2660   -7.9190 N   0  0  0  0  0  0  0  0  0  0  0  0
   -4.2080    0.5780   -8.6790 N   0  0  0  0  0  0  0  0  0  0  0  0
   -3.0860    1.3010   -8.6960 C   0  0  0  0  0  3  0  0  0  0  0  0
   -2.8880    2.4640   -8.0690 N   0  0  0  0  0  0  0  0  0  0  0  0
   -3.9190    2.9540   -7.3610 C   0  0  0  0  0  0  0  0  0  0  0  0
   -6.2080   -0.5850   -8.4530 H   0  0  0  0  0  0  0  0  0  0  0  0
   -7.2460    0.7010   -8.0040 H   0  0  0  0  0  0  0  0  0  0  0  0
   -6.0740    2.2220   -4.9350 C   0  0  0  0  0  1  0  0  0  0  0  0
   -6.2490    2.7410   -6.3560 C   0  0  0  0  0  2  0  0  0  0  0  0
    0.8650    3.8640   -7.9490 C   0  0  0  0  0  2  0  0  0  0  0  0
    1.1630    3.8540   -9.4570 C   0  0  0  0  0  2  0  0  0  0  0  0
    2.3430    2.9710   -9.8170 N   0  0  0  0  0  4  0  0  0  0  0  0
    3.1370    2.4810   -8.6090 C   0  0  0  0  0  2  0  0  0  0  0  0
    4.5940    2.7480   -8.9500 C   0  0  0  0  0  2  0  0  0  0  0  0
    4.6210    2.8380  -10.4620 C   0  0  0  0  0  2  0  0  0  0  0  0
    3.3460    3.5890  -10.7680 C   0  0  0  0  0  2  0  0  0  0  0  0
    1.9770    2.1120  -10.2590 H   0  0  0  0  0  0  0  0  0  0  0  0
  1  2  2  0  0  0  0
  3  6  1  0  0  0  0
  3  2  1  0  0  0  0
  4  5  1  0  0  0  0
  4  3  2  0  0  0  0
  5  1  1  0  0  0  0
  6  7  1  0  0  0  0
  7  8  2  0  0  0  0
  9 10  1  0  0  0  0
  9  8  1  0  0  0  0
 11  9  2  0  0  0  0
 12 11  1  0  0  0  0
 13 11  1  0  0  0  0
 13  6  2  0  0  0  0
 14 19  1  0  0  0  0
 15 14  1  0  0  0  0
 16 15  1  0  0  0  0
 16 17  1  0  0  0  0
 17  1  1  6  0  0  0
 17 18  1  0  0  0  0
 18 19  1  0  0  0  0
 20 30  1  0  0  0  0
 21 22  1  0  0  0  0
 21 20  2  0  0  0  0
 23 21  1  0  0  0  0
 24 23  2  0  0  0  0
 24 25  1  0  0  0  0
 25 26  2  0  0  0  0
 26 20  1  0  0  0  0
 26 14  1  0  0  0  0
 27 22  1  0  0  0  0
 28 22  1  0  0  0  0
 30 29  1  0  0  0  0
 31  5  1  0  0  0  0
 32 31  1  0  0  0  0
 33 32  1  0  0  0  0
 33 34  1  0  0  0  0
 35 34  1  0  0  0  0
 36 35  1  0  0  0  0
 37 36  1  0  0  0  0
 37 33  1  0  0  0  0
 38 33  1  0  0  0  0
M  END
>  <minimizedAffinity>
-8.52446556

$$$$

 OpenBabel11232420333D

 38 42  0  0  1  0  0  0  0  0999 V2000
    0.7090    4.5170   -7.9080 C   0  0  0  0  0  0  0  0  0  0  0  0
   -0.1670    3.5420   -8.0340 N   0  0  0  0  0  0  0  0  0  0  0  0
   -1.2680    3.8870   -7.2890 C   0  0  0  0  0  0  0  0  0  0  0  0
   -1.0150    5.0580   -6.6120 C   0  0  0  0  0  3  0  0  0  0  0  0
    0.2670    5.4100   -6.9580 N   0  0  0  0  0  0  0  0  0  0  0  0
   -2.4790    3.0840   -7.2420 C   0  0  0  0  0  0  0  0  0  0  0  0
   -2.6820    1.9890   -8.0980 C   0  0  0  0  0  3  0  0  0  0  0  0
   -3.8620    1.2400   -8.0260 C   0  0  0  0  0  3  0  0  0  0  0  0
   -4.8430    1.5820   -7.1000 C   0  0  0  0  0  0  0  0  0  0  0  0
   -5.9660    0.8520   -7.0570 F   0  0  0  0  0  0  0  0  0  0  0  0
   -4.6560    2.6590   -6.2410 C   0  0  0  0  0  0  0  0  0  0  0  0
   -5.8670    3.0890   -5.0970 Cl  0  0  0  0  0  0  0  0  0  0  0  0
   -3.4780    3.4060   -6.3080 C   0  0  0  0  0  3  0  0  0  0  0  0
    4.7200    3.9720   -9.3680 N   0  0  0  0  0  0  0  0  0  0  0  0
    4.4590    5.1680   -8.5710 C   0  0  0  0  0  2  0  0  0  0  0  0
    3.1720    5.0190   -7.7620 C   0  0  0  0  0  2  0  0  0  0  0  0
    2.0010    4.6200   -8.6740 C   0  0  1  0  0  3  0  0  0  0  0  0
    2.3350    3.3050   -9.3890 C   0  0  0  0  0  2  0  0  0  0  0  0
    3.6320    3.4470  -10.1850 C   0  0  0  0  0  2  0  0  0  0  0  0
    6.7970    2.7060   -9.3230 C   0  0  0  0  0  0  0  0  0  0  0  0
    7.5380    1.7460   -8.6410 C   0  0  0  0  0  0  0  0  0  0  0  0
    8.7600    1.2870   -9.0960 N   0  0  0  0  0  0  0  0  0  0  0  0
    7.1010    1.1410   -7.5320 N   0  0  0  0  0  0  0  0  0  0  0  0
    5.8950    1.5100   -7.0950 C   0  0  0  0  0  3  0  0  0  0  0  0
    5.0960    2.4180   -7.6610 N   0  0  0  0  0  0  0  0  0  0  0  0
    5.5530    3.0220   -8.7700 C   0  0  0  0  0  0  0  0  0  0  0  0
    9.1350    0.5600   -8.4970 H   0  0  0  0  0  0  0  0  0  0  0  0
    9.4270    1.9650   -9.4320 H   0  0  0  0  0  0  0  0  0  0  0  0
    7.7960    4.6840  -10.5050 C   0  0  0  0  0  1  0  0  0  0  0  0
    7.2580    3.2660  -10.6460 C   0  0  0  0  0  2  0  0  0  0  0  0
    1.0040    6.4940   -6.3360 C   0  0  0  0  0  2  0  0  0  0  0  0
    0.1190    7.7300   -6.1030 C   0  0  0  0  0  2  0  0  0  0  0  0
   -0.2100    7.9490   -4.6390 N   0  0  0  0  0  4  0  0  0  0  0  0
   -1.7070    7.9960   -4.3440 C   0  0  0  0  0  2  0  0  0  0  0  0
   -1.9070    9.2280   -3.4760 C   0  0  0  0  0  2  0  0  0  0  0  0
   -0.5450    9.4940   -2.8710 C   0  0  0  0  0  2  0  0  0  0  0  0
    0.3890    9.1940   -4.0210 C   0  0  0  0  0  2  0  0  0  0  0  0
    0.1390    7.1350   -4.1070 H   0  0  0  0  0  0  0  0  0  0  0  0
  1  5  1  0  0  0  0
  2  1  2  0  0  0  0
  2  3  1  0  0  0  0
  3  6  1  0  0  0  0
  3  4  2  0  0  0  0
  5  4  1  0  0  0  0
  5 31  1  0  0  0  0
  6 13  1  0  0  0  0
  7  8  1  0  0  0  0
  7  6  2  0  0  0  0
  8  9  2  0  0  0  0
  9 10  1  0  0  0  0
  9 11  1  0  0  0  0
 11 12  1  0  0  0  0
 13 11  2  0  0  0  0
 14 26  1  0  0  0  0
 14 15  1  0  0  0  0
 15 16  1  0  0  0  0
 17  1  1  1  0  0  0
 17 16  1  0  0  0  0
 18 17  1  0  0  0  0
 19 18  1  0  0  0  0
 19 14  1  0  0  0  0
 20 26  2  0  0  0  0
 20 21  1  0  0  0  0
 21 23  2  0  0  0  0
 22 21  1  0  0  0  0
 22 27  1  0  0  0  0
 23 24  1  0  0  0  0
 25 24  2  0  0  0  0
 26 25  1  0  0  0  0
 28 22  1  0  0  0  0
 30 29  1  0  0  0  0
 30 20  1  0  0  0  0
 31 32  1  0  0  0  0
 32 33  1  0  0  0  0
 33 34  1  0  0  0  0
 33 38  1  0  0  0  0
 33 37  1  0  0  0  0
 34 35  1  0  0  0  0
 35 36  1  0  0  0  0
 37 36  1  0  0  0  0
M  END
>  <minimizedAffinity>
-8.35809994

$$$$
