
 OpenBabel11232420333D

 38 42  0  0  1  0  0  0  0  0999 V2000
   -1.6500    4.1840   -7.9750 C   0  0  0  0  0  0  0  0  0  0  0  0
   -2.8800    4.0550   -7.5250 N   0  0  0  0  0  0  0  0  0  0  0  0
   -3.2200    2.7310   -7.6490 C   0  0  0  0  0  0  0  0  0  0  0  0
   -2.2050    2.0540   -8.2830 C   0  0  0  0  0  3  0  0  0  0  0  0
   -1.2450    2.9990   -8.5480 N   0  0  0  0  0  0  0  0  0  0  0  0
   -4.4880    2.1890   -7.1840 C   0  0  0  0  0  0  0  0  0  0  0  0
   -5.0820    1.0640   -7.7790 C   0  0  0  0  0  3  0  0  0  0  0  0
   -6.3040    0.5730   -7.3060 C   0  0  0  0  0  3  0  0  0  0  0  0
   -6.9360    1.2020   -6.2390 C   0  0  0  0  0  0  0  0  0  0  0  0
   -8.1100    0.7150   -5.8110 F   0  0  0  0  0  0  0  0  0  0  0  0
   -6.3600    2.3140   -5.6350 C   0  0  0  0  0  0  0  0  0  0  0  0
   -7.1400    3.1000   -4.3170 Cl  0  0  0  0  0  0  0  0  0  0  0  0
   -5.1390    2.8050   -6.1010 C   0  0  0  0  0  3  0  0  0  0  0  0
    0.3410    7.7560   -6.6360 N   0  0  0  0  0  0  0  0  0  0  0  0
   -0.8390    7.9290   -7.4800 C   0  0  0  0  0  2  0  0  0  0  0  0
   -1.6860    6.6580   -7.5070 C   0  0  0  0  0  2  0  0  0  0  0  0
   -0.8270    5.4430   -7.8910 C   0  0  1  0  0  3  0  0  0  0  0  0
    0.3250    5.2930   -6.8900 C   0  0  0  0  0  2  0  0  0  0  0  0
    1.1640    6.5700   -6.8490 C   0  0  0  0  0  2  0  0  0  0  0  0
    1.3140    8.5030   -4.5360 C   0  0  0  0  0  0  0  0  0  0  0  0
    1.0490    8.9070   -3.2310 C   0  0  0  0  0  0  0  0  0  0  0  0
    2.0510    9.2080   -2.3270 N   0  0  0  0  0  0  0  0  0  0  0  0
   -0.1860    8.9700   -2.7240 N   0  0  0  0  0  0  0  0  0  0  0  0
   -1.1780    8.6250   -3.5470 C   0  0  0  0  0  3  0  0  0  0  0  0
   -1.0490    8.2260   -4.8150 N   0  0  0  0  0  0  0  0  0  0  0  0
    0.1990    8.1750   -5.3100 C   0  0  0  0  0  0  0  0  0  0  0  0
    1.6760    9.4400   -1.4140 H   0  0  0  0  0  0  0  0  0  0  0  0
    2.8210    9.7780   -2.6420 H   0  0  0  0  0  0  0  0  0  0  0  0
    3.2760    9.5690   -5.6850 C   0  0  0  0  0  1  0  0  0  0  0  0
    2.7270    8.3090   -5.0310 C   0  0  0  0  0  2  0  0  0  0  0  0
   -0.0700    2.7540   -9.3650 C   0  0  0  0  0  2  0  0  0  0  0  0
    1.1560    2.3920   -8.5110 C   0  0  0  0  0  2  0  0  0  0  0  0
    2.4670    2.7410   -9.1900 N   0  0  0  0  0  4  0  0  0  0  0  0
    3.6840    2.0680   -8.5610 C   0  0  0  0  0  2  0  0  0  0  0  0
    4.7080    3.1770   -8.3810 C   0  0  0  0  0  2  0  0  0  0  0  0
    4.2900    4.2460   -9.3690 C   0  0  0  0  0  2  0  0  0  0  0  0
    2.7830    4.2190   -9.2630 C   0  0  0  0  0  2  0  0  0  0  0  0
    2.4340    2.3780  -10.1560 H   0  0  0  0  0  0  0  0  0  0  0  0
  1  2  2  0  0  0  0
  3  2  1  0  0  0  0
  3  6  1  0  0  0  0
  4  3  2  0  0  0  0
  5  4  1  0  0  0  0
  5  1  1  0  0  0  0
  6 13  1  0  0  0  0
  7  8  1  0  0  0  0
  7  6  2  0  0  0  0
  8  9  2  0  0  0  0
  9 10  1  0  0  0  0
  9 11  1  0  0  0  0
 11 12  1  0  0  0  0
 13 11  2  0  0  0  0
 14 26  1  0  0  0  0
 15 14  1  0  0  0  0
 16 15  1  0  0  0  0
 17  1  1  1  0  0  0
 17 16  1  0  0  0  0
 17 18  1  0  0  0  0
 18 19  1  0  0  0  0
 19 14  1  0  0  0  0
 20 21  1  0  0  0  0
 21 23  2  0  0  0  0
 21 22  1  0  0  0  0
 22 27  1  0  0  0  0
 24 23  1  0  0  0  0
 25 24  2  0  0  0  0
 26 25  1  0  0  0  0
 26 20  2  0  0  0  0
 28 22  1  0  0  0  0
 29 30  1  0  0  0  0
 30 20  1  0  0  0  0
 31  5  1  0  0  0  0
 31 32  1  0  0  0  0
 33 34  1  0  0  0  0
 33 32  1  0  0  0  0
 34 35  1  0  0  0  0
 36 37  1  0  0  0  0
 36 35  1  0  0  0  0
 37 33  1  0  0  0  0
 38 33  1  0  0  0  0
M  END
>  <minimizedAffinity>
-8.85141754

$$$$
