
 OpenBabel11232420333D

 38 42  0  0  1  0  0  0  0  0999 V2000
    0.9100    5.9080   -6.9690 C   0  0  0  0  0  0  0  0  0  0  0  0
    1.6700    5.0970   -7.6750 N   0  0  0  0  0  0  0  0  0  0  0  0
    2.9610    5.5470   -7.5570 C   0  0  0  0  0  0  0  0  0  0  0  0
    2.9750    6.7210   -6.8400 C   0  0  0  0  0  3  0  0  0  0  0  0
    1.6610    6.9760   -6.5330 N   0  0  0  0  0  0  0  0  0  0  0  0
    4.1000    4.8580   -8.1450 C   0  0  0  0  0  0  0  0  0  0  0  0
    5.1440    5.5480   -8.7800 C   0  0  0  0  0  3  0  0  0  0  0  0
    6.2220    4.8520   -9.3370 C   0  0  0  0  0  3  0  0  0  0  0  0
    6.2610    3.4630   -9.2600 C   0  0  0  0  0  0  0  0  0  0  0  0
    7.3010    2.8190   -9.8080 F   0  0  0  0  0  0  0  0  0  0  0  0
    5.2390    2.7630   -8.6290 C   0  0  0  0  0  0  0  0  0  0  0  0
    5.2790    1.0450   -8.5350 Cl  0  0  0  0  0  0  0  0  0  0  0  0
    4.1640    3.4560   -8.0700 C   0  0  0  0  0  3  0  0  0  0  0  0
   -3.1060    4.3660   -6.8380 N   0  0  0  0  0  0  0  0  0  0  0  0
   -2.8630    5.5180   -7.7030 C   0  0  0  0  0  2  0  0  0  0  0  0
   -1.3740    5.6750   -8.0040 C   0  0  0  0  0  2  0  0  0  0  0  0
   -0.5580    5.7020   -6.7020 C   0  0  1  0  0  3  0  0  0  0  0  0
   -0.8080    4.4090   -5.9150 C   0  0  0  0  0  2  0  0  0  0  0  0
   -2.3000    4.2400   -5.6280 C   0  0  0  0  0  2  0  0  0  0  0  0
   -4.6930    2.6170   -7.4220 C   0  0  0  0  0  0  0  0  0  0  0  0
   -4.8800    1.4280   -8.1190 C   0  0  0  0  0  0  0  0  0  0  0  0
   -6.0730    0.7290   -8.0920 N   0  0  0  0  0  0  0  0  0  0  0  0
   -3.9070    0.8290   -8.8130 N   0  0  0  0  0  0  0  0  0  0  0  0
   -2.7210    1.4390   -8.8110 C   0  0  0  0  0  3  0  0  0  0  0  0
   -2.4220    2.5810   -8.1850 N   0  0  0  0  0  0  0  0  0  0  0  0
   -3.4130    3.1730   -7.4970 C   0  0  0  0  0  0  0  0  0  0  0  0
   -6.0150   -0.1340   -8.6210 H   0  0  0  0  0  0  0  0  0  0  0  0
   -6.9310    1.2490   -8.1940 H   0  0  0  0  0  0  0  0  0  0  0  0
   -5.6690    2.6690   -5.1080 C   0  0  0  0  0  1  0  0  0  0  0  0
   -5.7710    3.1910   -6.5350 C   0  0  0  0  0  2  0  0  0  0  0  0
    1.1960    8.2110   -5.9280 C   0  0  0  0  0  2  0  0  0  0  0  0
    1.0650    8.0880   -4.4020 C   0  0  0  0  0  2  0  0  0  0  0  0
   -0.3570    8.2970   -3.9160 N   0  0  0  0  0  4  0  0  0  0  0  0
   -1.3300    8.7110   -5.0170 C   0  0  0  0  0  2  0  0  0  0  0  0
   -2.0930    9.8980   -4.4520 C   0  0  0  0  0  2  0  0  0  0  0  0
   -1.9480    9.7660   -2.9510 C   0  0  0  0  0  2  0  0  0  0  0  0
   -0.5170    9.3050   -2.7990 C   0  0  0  0  0  2  0  0  0  0  0  0
   -0.7150    7.3890   -3.5750 H   0  0  0  0  0  0  0  0  0  0  0  0
  1  5  1  0  0  0  0
  2  3  1  0  0  0  0
  2  1  2  0  0  0  0
  3  4  2  0  0  0  0
  4  5  1  0  0  0  0
  5 31  1  0  0  0  0
  6 13  1  0  0  0  0
  6  3  1  0  0  0  0
  7  6  2  0  0  0  0
  8  9  2  0  0  0  0
  8  7  1  0  0  0  0
  9 11  1  0  0  0  0
 10  9  1  0  0  0  0
 11 12  1  0  0  0  0
 11 13  2  0  0  0  0
 14 19  1  0  0  0  0
 15 14  1  0  0  0  0
 16 15  1  0  0  0  0
 16 17  1  0  0  0  0
 17  1  1  6  0  0  0
 17 18  1  0  0  0  0
 18 19  1  0  0  0  0
 20 30  1  0  0  0  0
 21 22  1  0  0  0  0
 21 20  2  0  0  0  0
 23 24  2  0  0  0  0
 23 21  1  0  0  0  0
 24 25  1  0  0  0  0
 25 26  2  0  0  0  0
 26 20  1  0  0  0  0
 26 14  1  0  0  0  0
 27 22  1  0  0  0  0
 28 22  1  0  0  0  0
 30 29  1  0  0  0  0
 31 32  1  0  0  0  0
 32 33  1  0  0  0  0
 33 38  1  0  0  0  0
 33 37  1  0  0  0  0
 34 35  1  0  0  0  0
 34 33  1  0  0  0  0
 35 36  1  0  0  0  0
 36 37  1  0  0  0  0
M  END
>  <minimizedAffinity>
-9.43309021

$$$$
