
 OpenBabel11232420333D

 38 42  0  0  1  0  0  0  0  0999 V2000
    0.1680    5.3620   -7.1890 C   0  0  0  0  0  0  0  0  0  0  0  0
    1.4210    5.3130   -7.5910 N   0  0  0  0  0  0  0  0  0  0  0  0
    2.0950    6.3150   -6.9390 C   0  0  0  0  0  0  0  0  0  0  0  0
    1.2080    7.0560   -6.1940 C   0  0  0  0  0  3  0  0  0  0  0  0
   -0.0210    6.4860   -6.4160 N   0  0  0  0  0  0  0  0  0  0  0  0
    3.5280    6.5270   -7.0740 C   0  0  0  0  0  0  0  0  0  0  0  0
    4.2440    7.3650   -6.2050 C   0  0  0  0  0  3  0  0  0  0  0  0
    5.6220    7.5470   -6.3670 C   0  0  0  0  0  3  0  0  0  0  0  0
    6.2890    6.8930   -7.3970 C   0  0  0  0  0  0  0  0  0  0  0  0
    7.6080    7.0890   -7.5350 F   0  0  0  0  0  0  0  0  0  0  0  0
    5.5970    6.0530   -8.2630 C   0  0  0  0  0  0  0  0  0  0  0  0
    6.4160    5.2440   -9.5430 Cl  0  0  0  0  0  0  0  0  0  0  0  0
    4.2230    5.8670   -8.1020 C   0  0  0  0  0  3  0  0  0  0  0  0
   -3.3950    2.9510   -7.2860 N   0  0  0  0  0  0  0  0  0  0  0  0
   -2.1740    2.3150   -6.7970 C   0  0  0  0  0  2  0  0  0  0  0  0
   -1.1340    3.3580   -6.3950 C   0  0  0  0  0  2  0  0  0  0  0  0
   -0.8920    4.3530   -7.5410 C   0  0  1  0  0  3  0  0  0  0  0  0
   -2.2150    5.0360   -7.9130 C   0  0  0  0  0  2  0  0  0  0  0  0
   -3.2630    3.9920   -8.2990 C   0  0  0  0  0  2  0  0  0  0  0  0
   -5.5150    2.3170   -6.2750 C   0  0  0  0  0  0  0  0  0  0  0  0
   -6.4420    2.6110   -5.2800 C   0  0  0  0  0  0  0  0  0  0  0  0
   -7.6280    1.9150   -5.1380 N   0  0  0  0  0  0  0  0  0  0  0  0
   -6.2970    3.6300   -4.4260 N   0  0  0  0  0  0  0  0  0  0  0  0
   -5.1940    4.3680   -4.5720 C   0  0  0  0  0  3  0  0  0  0  0  0
   -4.2350    4.1820   -5.4840 N   0  0  0  0  0  0  0  0  0  0  0  0
   -4.3940    3.1500   -6.3290 C   0  0  0  0  0  0  0  0  0  0  0  0
   -8.1980    2.2930   -4.3900 H   0  0  0  0  0  0  0  0  0  0  0  0
   -7.5990    0.9090   -5.2010 H   0  0  0  0  0  0  0  0  0  0  0  0
   -6.4680    1.8130   -8.5430 C   0  0  0  0  0  1  0  0  0  0  0  0
   -5.7780    1.2490   -7.3080 C   0  0  0  0  0  2  0  0  0  0  0  0
   -1.2740    7.0590   -5.9590 C   0  0  0  0  0  2  0  0  0  0  0  0
   -1.3740    8.5570   -6.2900 C   0  0  0  0  0  2  0  0  0  0  0  0
   -1.2960    9.4370   -5.0570 N   0  0  0  0  0  4  0  0  0  0  0  0
    0.1020    9.5280   -4.4520 C   0  0  0  0  0  2  0  0  0  0  0  0
   -0.0880    9.2870   -2.9640 C   0  0  0  0  0  2  0  0  0  0  0  0
   -1.5420    9.6170   -2.7060 C   0  0  0  0  0  2  0  0  0  0  0  0
   -2.2280    9.0530   -3.9280 C   0  0  0  0  0  2  0  0  0  0  0  0
   -1.5250   10.4040   -5.3400 H   0  0  0  0  0  0  0  0  0  0  0  0
  1  5  1  0  0  0  0
  2  1  2  0  0  0  0
  2  3  1  0  0  0  0
  3  4  2  0  0  0  0
  5  4  1  0  0  0  0
  5 31  1  0  0  0  0
  6  3  1  0  0  0  0
  6  7  1  0  0  0  0
  8  7  2  0  0  0  0
  9  8  1  0  0  0  0
 10  9  1  0  0  0  0
 11 13  1  0  0  0  0
 11  9  2  0  0  0  0
 12 11  1  0  0  0  0
 13  6  2  0  0  0  0
 14 15  1  0  0  0  0
 14 26  1  0  0  0  0
 15 16  1  0  0  0  0
 17  1  1  1  0  0  0
 17 16  1  0  0  0  0
 18 17  1  0  0  0  0
 19 18  1  0  0  0  0
 19 14  1  0  0  0  0
 20 21  1  0  0  0  0
 21 22  1  0  0  0  0
 21 23  2  0  0  0  0
 22 27  1  0  0  0  0
 24 23  1  0  0  0  0
 25 24  2  0  0  0  0
 26 20  2  0  0  0  0
 26 25  1  0  0  0  0
 28 22  1  0  0  0  0
 29 30  1  0  0  0  0
 30 20  1  0  0  0  0
 32 31  1  0  0  0  0
 32 33  1  0  0  0  0
 33 34  1  0  0  0  0
 33 37  1  0  0  0  0
 34 35  1  0  0  0  0
 35 36  1  0  0  0  0
 37 36  1  0  0  0  0
 38 33  1  0  0  0  0
M  END
>  <minimizedAffinity>
-10.030405

$$$$
