
 OpenBabel10152418263D

 37 40  0  0  1  0  0  0  0  0999 V2000
    1.0540  -11.0530  -25.7430 C   0  0  2  0  0  3  0  0  0  0  0  0
    0.3110  -11.9090  -26.7740 C   0  0  0  0  0  1  0  0  0  0  0  0
    3.9040   -9.3840  -27.6970 C   0  0  0  0  0  0  0  0  0  0  0  0
    4.9730  -10.2330  -27.4070 C   0  0  0  0  0  3  0  0  0  0  0  0
    4.8200  -11.2620  -26.4790 C   0  0  0  0  0  3  0  0  0  0  0  0
    3.5740  -11.5020  -25.8980 C   0  0  0  0  0  3  0  0  0  0  0  0
    2.4640  -10.7100  -26.2360 C   0  0  0  0  0  0  0  0  0  0  0  0
    2.6610   -9.6070  -27.0950 C   0  0  0  0  0  3  0  0  0  0  0  0
    3.1530   -7.6190  -29.3080 C   0  0  0  0  0  0  0  0  0  0  0  0
    3.2240   -7.3480  -30.5030 O   0  0  0  0  0  0  0  0  0  0  0  0
    4.0910   -8.4240  -28.7070 N   0  0  0  0  0  0  0  0  0  0  0  0
    4.9880   -8.4300  -29.1790 H   0  0  0  0  0  0  0  0  0  0  0  0
    0.1190   -5.5940  -27.1860 C   0  0  0  0  0  0  0  0  0  0  0  0
    1.2170   -4.8570  -27.6130 C   0  0  0  0  0  3  0  0  0  0  0  0
    2.2650   -5.5220  -28.2510 C   0  0  0  0  0  3  0  0  0  0  0  0
    2.1760   -6.8990  -28.4630 C   0  0  0  0  0  0  0  0  0  0  0  0
    1.0290   -7.5470  -28.0310 C   0  0  0  0  0  3  0  0  0  0  0  0
    0.0120   -6.9270  -27.3800 N   0  0  0  0  0  0  0  0  0  0  0  0
   -0.9030   -3.6170  -26.4500 C   0  0  0  0  0  1  0  0  0  0  0  0
   -0.9910   -5.0280  -26.6220 O   0  0  0  0  0  0  0  0  0  0  0  0
    1.0900  -11.7590  -24.4670 N   0  0  0  0  0  0  0  0  0  0  0  0
    1.8620  -12.3730  -24.2640 H   0  0  0  0  0  0  0  0  0  0  0  0
    0.3670  -11.1780  -23.4270 C   0  0  0  0  0  0  0  0  0  0  0  0
   -0.2900  -12.0230  -22.6140 N   0  0  0  0  0  0  0  0  0  0  0  0
   -1.3070  -11.5190  -21.9240 C   0  0  0  0  0  3  0  0  0  0  0  0
   -1.7780  -10.2780  -22.0490 N   0  0  0  0  0  0  0  0  0  0  0  0
   -1.0780   -9.4220  -22.8160 C   0  0  0  0  0  0  0  0  0  0  0  0
   -1.5410   -8.1340  -23.0870 C   0  0  0  0  0  0  0  0  0  0  0  0
   -0.7910   -7.1690  -23.7730 C   0  0  0  0  0  3  0  0  0  0  0  0
    0.4560   -7.5090  -24.2690 C   0  0  0  0  0  3  0  0  0  0  0  0
    0.8810   -8.8300  -24.1540 C   0  0  0  0  0  3  0  0  0  0  0  0
    0.1050   -9.7980  -23.4560 C   0  0  0  0  0  0  0  0  0  0  0  0
   -2.9780   -7.8630  -22.9060 C   0  0  0  0  0  0  0  0  0  0  0  0
   -3.3600   -7.8210  -21.5890 N   0  0  0  0  0  0  0  0  0  0  0  0
   -3.7590   -7.7260  -23.8330 O   0  0  0  0  0  0  0  0  0  0  0  0
   -4.3310   -7.6570  -21.3690 H   0  0  0  0  0  0  0  0  0  0  0  0
   -2.6950   -7.9130  -20.8310 H   0  0  0  0  0  0  0  0  0  0  0  0
  1  2  1  6  0  0  0
  1 21  1  0  0  0  0
  3  4  2  0  0  0  0
  3  8  1  0  0  0  0
  4  5  1  0  0  0  0
  5  6  2  0  0  0  0
  7  6  1  0  0  0  0
  7  1  1  0  0  0  0
  8  7  2  0  0  0  0
  9 11  1  0  0  0  0
  9 16  1  0  0  0  0
 10  9  2  0  0  0  0
 11  3  1  0  0  0  0
 12 11  1  0  0  0  0
 13 20  1  0  0  0  0
 14 13  1  0  0  0  0
 15 14  2  0  0  0  0
 16 15  1  0  0  0  0
 16 17  2  0  0  0  0
 17 18  1  0  0  0  0
 18 13  2  0  0  0  0
 20 19  1  0  0  0  0
 21 22  1  0  0  0  0
 21 23  1  0  0  0  0
 23 24  1  0  0  0  0
 24 25  2  0  0  0  0
 26 25  1  0  0  0  0
 27 26  2  0  0  0  0
 28 33  1  0  0  0  0
 28 27  1  0  0  0  0
 29 28  2  0  0  0  0
 30 31  2  0  0  0  0
 30 29  1  0  0  0  0
 31 32  1  0  0  0  0
 32 23  2  0  0  0  0
 32 27  1  0  0  0  0
 33 34  1  0  0  0  0
 34 36  1  0  0  0  0
 34 37  1  0  0  0  0
 35 33  2  0  0  0  0
M  END
>  <minimizedAffinity>
-6.79016399

$$$$
