
 OpenBabel10152418263D

 37 40  0  0  1  0  0  0  0  0999 V2000
    1.9100  -11.5800  -25.0390 C   0  0  2  0  0  3  0  0  0  0  0  0
    3.2900  -12.0390  -24.5550 C   0  0  0  0  0  1  0  0  0  0  0  0
    2.4040   -8.0890  -26.5540 C   0  0  0  0  0  0  0  0  0  0  0  0
    2.1170   -7.2700  -25.4610 C   0  0  0  0  0  3  0  0  0  0  0  0
    1.6310   -7.8230  -24.2780 C   0  0  0  0  0  3  0  0  0  0  0  0
    1.5130   -9.2080  -24.1500 C   0  0  0  0  0  3  0  0  0  0  0  0
    1.8730  -10.0570  -25.2080 C   0  0  0  0  0  0  0  0  0  0  0  0
    2.2600   -9.4760  -26.4360 C   0  0  0  0  0  3  0  0  0  0  0  0
    2.3550   -6.7540  -28.6730 C   0  0  0  0  0  0  0  0  0  0  0  0
    2.7140   -6.8390  -29.8440 O   0  0  0  0  0  0  0  0  0  0  0  0
    2.9760   -7.4840  -27.6870 N   0  0  0  0  0  0  0  0  0  0  0  0
    3.9280   -7.7480  -27.9110 H   0  0  0  0  0  0  0  0  0  0  0  0
   -0.1510   -3.6560  -27.2850 C   0  0  0  0  0  0  0  0  0  0  0  0
   -0.5890   -4.9650  -27.1290 C   0  0  0  0  0  3  0  0  0  0  0  0
    0.1910   -6.0000  -27.6480 C   0  0  0  0  0  3  0  0  0  0  0  0
    1.3950   -5.6970  -28.2880 C   0  0  0  0  0  0  0  0  0  0  0  0
    1.7670   -4.3650  -28.3690 C   0  0  0  0  0  3  0  0  0  0  0  0
    1.0090   -3.3400  -27.9020 N   0  0  0  0  0  0  0  0  0  0  0  0
   -1.1060   -2.7120  -25.3630 C   0  0  0  0  0  1  0  0  0  0  0  0
   -0.8000   -2.5790  -26.7480 O   0  0  0  0  0  0  0  0  0  0  0  0
    0.8930  -12.0390  -24.1000 N   0  0  0  0  0  0  0  0  0  0  0  0
    1.1730  -12.3780  -23.1950 H   0  0  0  0  0  0  0  0  0  0  0  0
   -0.3870  -11.5200  -24.2860 C   0  0  0  0  0  0  0  0  0  0  0  0
   -0.7600  -11.3000  -25.5590 N   0  0  0  0  0  0  0  0  0  0  0  0
   -1.7430  -10.4270  -25.7510 C   0  0  0  0  0  3  0  0  0  0  0  0
   -2.3120   -9.6920  -24.7960 N   0  0  0  0  0  0  0  0  0  0  0  0
   -1.9780   -9.9620  -23.5210 C   0  0  0  0  0  0  0  0  0  0  0  0
   -2.4440   -9.1840  -22.4610 C   0  0  0  0  0  0  0  0  0  0  0  0
   -2.2260   -9.5010  -21.1120 C   0  0  0  0  0  3  0  0  0  0  0  0
   -1.4590  -10.6080  -20.7940 C   0  0  0  0  0  3  0  0  0  0  0  0
   -0.8480  -11.3150  -21.8260 C   0  0  0  0  0  3  0  0  0  0  0  0
   -1.0790  -10.9780  -23.1900 C   0  0  0  0  0  0  0  0  0  0  0  0
   -2.9320   -7.8270  -22.7600 C   0  0  0  0  0  0  0  0  0  0  0  0
   -4.2840   -7.7750  -22.9860 N   0  0  0  0  0  0  0  0  0  0  0  0
   -2.2050   -6.8510  -22.8380 O   0  0  0  0  0  0  0  0  0  0  0  0
   -4.7060   -6.8880  -23.2150 H   0  0  0  0  0  0  0  0  0  0  0  0
   -4.8790   -8.5900  -22.8950 H   0  0  0  0  0  0  0  0  0  0  0  0
  1  2  1  1  0  0  0
  1 21  1  0  0  0  0
  3  8  2  0  0  0  0
  3  4  1  0  0  0  0
  4  5  2  0  0  0  0
  5  6  1  0  0  0  0
  7  1  1  0  0  0  0
  7  6  2  0  0  0  0
  8  7  1  0  0  0  0
  9 16  1  0  0  0  0
  9 11  1  0  0  0  0
 10  9  2  0  0  0  0
 11  3  1  0  0  0  0
 12 11  1  0  0  0  0
 13 14  1  0  0  0  0
 13 20  1  0  0  0  0
 15 14  2  0  0  0  0
 16 15  1  0  0  0  0
 17 16  2  0  0  0  0
 17 18  1  0  0  0  0
 18 13  2  0  0  0  0
 20 19  1  0  0  0  0
 21 22  1  0  0  0  0
 23 21  1  0  0  0  0
 23 32  1  0  0  0  0
 24 23  2  0  0  0  0
 25 24  1  0  0  0  0
 25 26  2  0  0  0  0
 26 27  1  0  0  0  0
 27 32  2  0  0  0  0
 27 28  1  0  0  0  0
 28 29  2  0  0  0  0
 29 30  1  0  0  0  0
 31 30  2  0  0  0  0
 32 31  1  0  0  0  0
 33 28  1  0  0  0  0
 34 37  1  0  0  0  0
 34 33  1  0  0  0  0
 35 33  2  0  0  0  0
 36 34  1  0  0  0  0
M  END
>  <minimizedAffinity>
-7.42190027

$$$$
