
 OpenBabel10152418263D

 37 40  0  0  1  0  0  0  0  0999 V2000
   -1.0590   -7.8790  -26.2870 C   0  0  2  0  0  3  0  0  0  0  0  0
   -0.4400   -9.2650  -26.4900 C   0  0  0  0  0  1  0  0  0  0  0  0
    1.6130   -6.2400  -28.5000 C   0  0  0  0  0  0  0  0  0  0  0  0
    1.5040   -4.9010  -28.1210 C   0  0  0  0  0  3  0  0  0  0  0  0
    0.4860   -4.4970  -27.2590 C   0  0  0  0  0  3  0  0  0  0  0  0
   -0.3780   -5.4420  -26.7030 C   0  0  0  0  0  3  0  0  0  0  0  0
   -0.2360   -6.8060  -27.0070 C   0  0  0  0  0  0  0  0  0  0  0  0
    0.7310   -7.1850  -27.9650 C   0  0  0  0  0  3  0  0  0  0  0  0
    3.8670   -7.2470  -28.9220 C   0  0  0  0  0  0  0  0  0  0  0  0
    4.9480   -6.9510  -29.4220 O   0  0  0  0  0  0  0  0  0  0  0  0
    2.7130   -6.6020  -29.2980 N   0  0  0  0  0  0  0  0  0  0  0  0
    2.7520   -6.2010  -30.2270 H   0  0  0  0  0  0  0  0  0  0  0  0
    3.2530  -10.7460  -26.6440 C   0  0  0  0  0  0  0  0  0  0  0  0
    3.2270   -9.5260  -25.9810 C   0  0  0  0  0  3  0  0  0  0  0  0
    3.5020   -8.3630  -26.7030 C   0  0  0  0  0  3  0  0  0  0  0  0
    3.7730   -8.4520  -28.0700 C   0  0  0  0  0  0  0  0  0  0  0  0
    3.7450   -9.7090  -28.6540 C   0  0  0  0  0  3  0  0  0  0  0  0
    3.5130  -10.8550  -27.9660 N   0  0  0  0  0  0  0  0  0  0  0  0
    3.3270  -12.0310  -24.6850 C   0  0  0  0  0  1  0  0  0  0  0  0
    2.9230  -11.9310  -26.0470 O   0  0  0  0  0  0  0  0  0  0  0  0
   -1.1650   -7.6030  -24.8580 N   0  0  0  0  0  0  0  0  0  0  0  0
   -1.9060   -7.0090  -24.5240 H   0  0  0  0  0  0  0  0  0  0  0  0
   -0.5880   -8.5460  -24.0100 C   0  0  0  0  0  0  0  0  0  0  0  0
    0.0960   -9.5390  -24.6040 N   0  0  0  0  0  0  0  0  0  0  0  0
    0.2670  -10.6520  -23.8980 C   0  0  0  0  0  3  0  0  0  0  0  0
   -0.2670  -10.8880  -22.6990 N   0  0  0  0  0  0  0  0  0  0  0  0
   -0.8970   -9.8690  -22.0870 C   0  0  0  0  0  0  0  0  0  0  0  0
   -1.5700  -10.0450  -20.8780 C   0  0  0  0  0  0  0  0  0  0  0  0
   -2.1310   -8.9910  -20.1430 C   0  0  0  0  0  3  0  0  0  0  0  0
   -2.0770   -7.7060  -20.6560 C   0  0  0  0  0  3  0  0  0  0  0  0
   -1.5530   -7.5190  -21.9310 C   0  0  0  0  0  3  0  0  0  0  0  0
   -0.9890   -8.6010  -22.6650 C   0  0  0  0  0  0  0  0  0  0  0  0
   -1.9650  -11.4120  -20.4980 C   0  0  0  0  0  0  0  0  0  0  0  0
   -1.0450  -12.0390  -19.6960 N   0  0  0  0  0  0  0  0  0  0  0  0
   -2.9880  -11.9500  -20.8860 O   0  0  0  0  0  0  0  0  0  0  0  0
   -1.2240  -12.9860  -19.3980 H   0  0  0  0  0  0  0  0  0  0  0  0
   -0.2110  -11.5700  -19.3630 H   0  0  0  0  0  0  0  0  0  0  0  0
  1  2  1  1  0  0  0
  1 21  1  0  0  0  0
  3  4  2  0  0  0  0
  3  8  1  0  0  0  0
  4  5  1  0  0  0  0
  5  6  2  0  0  0  0
  7  6  1  0  0  0  0
  7  1  1  0  0  0  0
  8  7  2  0  0  0  0
  9 16  1  0  0  0  0
 10  9  2  0  0  0  0
 11  9  1  0  0  0  0
 11  3  1  0  0  0  0
 12 11  1  0  0  0  0
 13 20  1  0  0  0  0
 13 14  1  0  0  0  0
 15 14  2  0  0  0  0
 16 15  1  0  0  0  0
 17 16  2  0  0  0  0
 17 18  1  0  0  0  0
 18 13  2  0  0  0  0
 20 19  1  0  0  0  0
 21 22  1  0  0  0  0
 21 23  1  0  0  0  0
 23 32  1  0  0  0  0
 24 23  2  0  0  0  0
 24 25  1  0  0  0  0
 25 26  2  0  0  0  0
 26 27  1  0  0  0  0
 27 28  1  0  0  0  0
 28 33  1  0  0  0  0
 28 29  2  0  0  0  0
 30 29  1  0  0  0  0
 31 30  2  0  0  0  0
 32 27  2  0  0  0  0
 32 31  1  0  0  0  0
 33 34  1  0  0  0  0
 34 36  1  0  0  0  0
 34 37  1  0  0  0  0
 35 33  2  0  0  0  0
M  END
>  <minimizedAffinity>
-6.26987362

$$$$
