
 OpenBabel10152418443D

 38 42  0  0  0  0  0  0  0  0999 V2000
    2.3210  -11.4950  -26.8320 C   0  0  0  0  0  0  0  0  0  0  0  0
    3.2730  -12.0380  -25.9570 C   0  0  0  0  0  3  0  0  0  0  0  0
    4.5880  -11.5830  -25.9690 C   0  0  0  0  0  3  0  0  0  0  0  0
    4.9740  -10.5760  -26.8540 C   0  0  0  0  0  3  0  0  0  0  0  0
    4.0600  -10.0260  -27.7510 C   0  0  0  0  0  0  0  0  0  0  0  0
    2.7310  -10.4850  -27.7200 C   0  0  0  0  0  3  0  0  0  0  0  0
    4.3470   -9.0010  -28.6750 N   0  0  0  0  0  0  0  0  0  0  0  0
    3.7590   -7.7900  -28.9600 C   0  0  0  0  0  0  0  0  0  0  0  0
    4.1080   -7.1600  -29.9580 O   0  0  0  0  0  0  0  0  0  0  0  0
    5.1230   -9.1740  -29.3030 H   0  0  0  0  0  0  0  0  0  0  0  0
    2.7500   -7.1890  -28.0770 C   0  0  0  0  0  0  0  0  0  0  0  0
    2.6540   -7.6470  -26.7620 C   0  0  0  0  0  3  0  0  0  0  0  0
    1.7300   -7.0680  -25.8840 C   0  0  0  0  0  3  0  0  0  0  0  0
    0.8890   -6.0370  -26.3480 C   0  0  0  0  0  0  0  0  0  0  0  0
   -0.1200   -5.2390  -25.7400 C   0  0  0  0  0  3  0  0  0  0  0  0
   -0.6160   -4.3860  -26.6990 C   0  0  0  0  0  3  0  0  0  0  0  0
    0.0490   -4.6380  -27.8700 N   0  0  0  0  0  0  0  0  0  0  0  0
    0.9830   -5.6320  -27.6810 C   0  0  0  0  0  0  0  0  0  0  0  0
    1.8980   -6.1940  -28.5800 C   0  0  0  0  0  3  0  0  0  0  0  0
   -0.1140   -4.1620  -28.7460 H   0  0  0  0  0  0  0  0  0  0  0  0
    0.9070  -12.0380  -26.7540 C   0  0  0  0  0  2  0  0  0  0  0  0
   -2.0060   -9.5300  -22.0050 C   0  0  0  0  0  0  0  0  0  0  0  0
   -1.9170  -10.5740  -21.0720 C   0  0  0  0  0  3  0  0  0  0  0  0
   -1.2710  -11.7480  -21.4210 C   0  0  0  0  0  3  0  0  0  0  0  0
   -0.7300  -11.8690  -22.6980 C   0  0  0  0  0  3  0  0  0  0  0  0
   -0.8300  -10.8180  -23.6520 C   0  0  0  0  0  0  0  0  0  0  0  0
   -0.3200  -10.8820  -24.9670 C   0  0  0  0  0  0  0  0  0  0  0  0
    0.3600  -12.0210  -25.4060 N   0  0  0  0  0  0  0  0  0  0  0  0
   -0.4110   -9.8420  -25.8110 N   0  0  0  0  0  0  0  0  0  0  0  0
   -1.0150   -8.7420  -25.3610 C   0  0  0  0  0  3  0  0  0  0  0  0
   -1.5410   -8.5810  -24.1480 N   0  0  0  0  0  0  0  0  0  0  0  0
   -1.4700   -9.6170  -23.2960 C   0  0  0  0  0  0  0  0  0  0  0  0
   -0.0450  -12.8970  -25.1110 H   0  0  0  0  0  0  0  0  0  0  0  0
   -3.7020   -7.8800  -22.4400 N   0  0  0  0  0  0  0  0  0  0  0  0
   -2.7220   -8.3090  -21.5880 C   0  0  0  0  0  0  0  0  0  0  0  0
   -2.4230   -7.6890  -20.5790 O   0  0  0  0  0  0  0  0  0  0  0  0
   -4.2130   -7.0460  -22.1790 H   0  0  0  0  0  0  0  0  0  0  0  0
   -3.9840   -8.3900  -23.2640 H   0  0  0  0  0  0  0  0  0  0  0  0
  1 21  1  0  0  0  0
  1  2  1  0  0  0  0
  3  2  2  0  0  0  0
  4  3  1  0  0  0  0
  5  6  1  0  0  0  0
  5  4  2  0  0  0  0
  6  1  2  0  0  0  0
  7  5  1  0  0  0  0
  8  7  1  0  0  0  0
  8 11  1  0  0  0  0
  9  8  2  0  0  0  0
 10  7  1  0  0  0  0
 11 12  1  0  0  0  0
 12 13  2  0  0  0  0
 14 13  1  0  0  0  0
 14 15  1  0  0  0  0
 16 15  2  0  0  0  0
 17 18  1  0  0  0  0
 17 16  1  0  0  0  0
 18 14  2  0  0  0  0
 19 11  2  0  0  0  0
 19 18  1  0  0  0  0
 20 17  1  0  0  0  0
 21 28  1  0  0  0  0
 22 35  1  0  0  0  0
 22 23  1  0  0  0  0
 24 23  2  0  0  0  0
 25 24  1  0  0  0  0
 26 32  1  0  0  0  0
 26 25  2  0  0  0  0
 27 26  1  0  0  0  0
 28 33  1  0  0  0  0
 28 27  1  0  0  0  0
 29 30  1  0  0  0  0
 29 27  2  0  0  0  0
 30 31  2  0  0  0  0
 31 32  1  0  0  0  0
 32 22  2  0  0  0  0
 34 37  1  0  0  0  0
 34 35  1  0  0  0  0
 35 36  2  0  0  0  0
 38 34  1  0  0  0  0
M  END
>  <minimizedAffinity>
-9.18983364

$$$$
