
 OpenBabel10152418443D

 38 42  0  0  0  0  0  0  0  0999 V2000
   -0.2760   -5.2900  -26.9380 C   0  0  0  0  0  0  0  0  0  0  0  0
   -0.1230   -3.9020  -27.0640 C   0  0  0  0  0  3  0  0  0  0  0  0
    0.8790   -3.3690  -27.8670 C   0  0  0  0  0  3  0  0  0  0  0  0
    1.7460   -4.2140  -28.5620 C   0  0  0  0  0  3  0  0  0  0  0  0
    1.6360   -5.5990  -28.4460 C   0  0  0  0  0  0  0  0  0  0  0  0
    0.6100   -6.1250  -27.6410 C   0  0  0  0  0  3  0  0  0  0  0  0
    2.4530   -6.5350  -29.1120 N   0  0  0  0  0  0  0  0  0  0  0  0
    3.1180   -7.6690  -28.7080 C   0  0  0  0  0  0  0  0  0  0  0  0
    3.9250   -8.2080  -29.4650 O   0  0  0  0  0  0  0  0  0  0  0  0
    2.6410   -6.3440  -30.0890 H   0  0  0  0  0  0  0  0  0  0  0  0
    2.8630   -8.2970  -27.4040 C   0  0  0  0  0  0  0  0  0  0  0  0
    2.6370   -7.4750  -26.2990 C   0  0  0  0  0  3  0  0  0  0  0  0
    2.3510   -8.0420  -25.0510 C   0  0  0  0  0  3  0  0  0  0  0  0
    2.3150   -9.4440  -24.9220 C   0  0  0  0  0  0  0  0  0  0  0  0
    2.0460  -10.3280  -23.8390 C   0  0  0  0  0  3  0  0  0  0  0  0
    2.1670  -11.6160  -24.3080 C   0  0  0  0  0  3  0  0  0  0  0  0
    2.5030  -11.5500  -25.6340 N   0  0  0  0  0  0  0  0  0  0  0  0
    2.5870  -10.2370  -26.0390 C   0  0  0  0  0  0  0  0  0  0  0  0
    2.8750   -9.6960  -27.2980 C   0  0  0  0  0  3  0  0  0  0  0  0
    2.6620  -12.3480  -26.2350 H   0  0  0  0  0  0  0  0  0  0  0  0
   -1.3960   -5.7950  -26.0480 C   0  0  0  0  0  2  0  0  0  0  0  0
   -1.3910  -10.8660  -22.6390 C   0  0  0  0  0  0  0  0  0  0  0  0
   -1.2500  -11.8430  -23.6360 C   0  0  0  0  0  3  0  0  0  0  0  0
   -1.1540  -11.4560  -24.9620 C   0  0  0  0  0  3  0  0  0  0  0  0
   -1.2100  -10.1000  -25.2770 C   0  0  0  0  0  3  0  0  0  0  0  0
   -1.3670   -9.1070  -24.2700 C   0  0  0  0  0  0  0  0  0  0  0  0
   -1.4480   -7.7210  -24.5230 C   0  0  0  0  0  0  0  0  0  0  0  0
   -1.3480   -7.2330  -25.8280 N   0  0  0  0  0  0  0  0  0  0  0  0
   -1.5580   -6.8270  -23.5270 N   0  0  0  0  0  0  0  0  0  0  0  0
   -1.5980   -7.3030  -22.2820 C   0  0  0  0  0  3  0  0  0  0  0  0
   -1.5430   -8.5880  -21.9350 N   0  0  0  0  0  0  0  0  0  0  0  0
   -1.4470   -9.4950  -22.9210 C   0  0  0  0  0  0  0  0  0  0  0  0
   -1.8390   -7.7760  -26.5230 H   0  0  0  0  0  0  0  0  0  0  0  0
   -2.6010  -10.8800  -20.5590 N   0  0  0  0  0  0  0  0  0  0  0  0
   -1.5080  -11.3350  -21.2440 C   0  0  0  0  0  0  0  0  0  0  0  0
   -0.6570  -12.0350  -20.7170 O   0  0  0  0  0  0  0  0  0  0  0  0
   -2.7100  -11.1870  -19.6010 H   0  0  0  0  0  0  0  0  0  0  0  0
   -3.3290  -10.3230  -20.9820 H   0  0  0  0  0  0  0  0  0  0  0  0
  1 21  1  0  0  0  0
  2  1  1  0  0  0  0
  3  2  2  0  0  0  0
  4  5  2  0  0  0  0
  4  3  1  0  0  0  0
  5  6  1  0  0  0  0
  6  1  2  0  0  0  0
  7  8  1  0  0  0  0
  7  5  1  0  0  0  0
  8 11  1  0  0  0  0
  9  8  2  0  0  0  0
 10  7  1  0  0  0  0
 11 19  2  0  0  0  0
 11 12  1  0  0  0  0
 12 13  2  0  0  0  0
 13 14  1  0  0  0  0
 14 15  1  0  0  0  0
 16 15  2  0  0  0  0
 17 16  1  0  0  0  0
 18 17  1  0  0  0  0
 18 14  2  0  0  0  0
 19 18  1  0  0  0  0
 20 17  1  0  0  0  0
 21 28  1  0  0  0  0
 22 35  1  0  0  0  0
 23 22  2  0  0  0  0
 24 23  1  0  0  0  0
 25 24  2  0  0  0  0
 25 26  1  0  0  0  0
 26 32  1  0  0  0  0
 27 26  2  0  0  0  0
 27 29  1  0  0  0  0
 28 27  1  0  0  0  0
 29 30  2  0  0  0  0
 30 31  1  0  0  0  0
 32 22  1  0  0  0  0
 32 31  2  0  0  0  0
 33 28  1  0  0  0  0
 34 37  1  0  0  0  0
 35 36  2  0  0  0  0
 35 34  1  0  0  0  0
 38 34  1  0  0  0  0
M  END
>  <minimizedAffinity>
-9.71603394

$$$$
