
 OpenBabel10152418553D

 39 42  0  0  1  0  0  0  0  0999 V2000
    5.1550  -11.5010    9.0570 C   0  0  0  0  0  0  0  0  0  0  0  0
    4.0340  -10.9150    8.4510 C   0  0  0  0  0  3  0  0  0  0  0  0
    4.1740   -9.8040    7.6240 C   0  0  0  0  0  3  0  0  0  0  0  0
    5.4270   -9.2140    7.4500 C   0  0  0  0  0  3  0  0  0  0  0  0
    6.5490   -9.7310    8.0910 C   0  0  0  0  0  0  0  0  0  0  0  0
    6.4160  -10.9430    8.7810 C   0  0  0  0  0  3  0  0  0  0  0  0
    7.8170   -9.1170    8.1550 N   0  0  0  0  0  0  0  0  0  0  0  0
    9.0190   -9.4830    8.7170 C   0  0  0  0  0  0  0  0  0  0  0  0
    9.9800   -8.7170    8.6750 O   0  0  0  0  0  0  0  0  0  0  0  0
    7.9180   -8.2470    7.6420 H   0  0  0  0  0  0  0  0  0  0  0  0
    9.1950  -10.7730    9.3840 C   0  0  0  0  0  0  0  0  0  0  0  0
    8.2430  -11.7880    9.3320 C   0  0  0  0  0  3  0  0  0  0  0  0
    8.4200  -12.9140   10.1390 C   0  0  0  0  0  3  0  0  0  0  0  0
    9.5500  -12.9960   10.9640 C   0  0  0  0  0  0  0  0  0  0  0  0
   10.5250  -12.0380   10.9430 N   0  0  0  0  0  0  0  0  0  0  0  0
   10.3350  -10.9600   10.1470 C   0  0  0  0  0  3  0  0  0  0  0  0
    9.6940  -14.1590   11.9410 C   0  0  0  0  0  0  0  0  0  0  0  0
    8.6040  -14.9760   11.9710 F   0  0  0  0  0  0  0  0  0  0  0  0
   10.7630  -14.9600   11.6640 F   0  0  0  0  0  0  0  0  0  0  0  0
    9.8830  -13.7480   13.2310 F   0  0  0  0  0  0  0  0  0  0  0  0
    6.0820  -13.6920    9.7840 C   0  0  0  0  0  1  0  0  0  0  0  0
    4.9390  -12.6910    9.9900 C   0  0  1  0  0  3  0  0  0  0  0  0
    4.8120  -12.4150   11.4250 N   0  0  0  0  0  0  0  0  0  0  0  0
    4.0820  -12.9490   11.8900 H   0  0  0  0  0  0  0  0  0  0  0  0
    5.7950  -12.1460   12.3430 C   0  0  0  0  0  0  0  0  0  0  0  0
    5.9950  -13.1970   13.1540 N   0  0  0  0  0  0  0  0  0  0  0  0
    7.0960  -13.1760   13.9000 C   0  0  0  0  0  3  0  0  0  0  0  0
    8.0290  -12.2220   13.8820 N   0  0  0  0  0  0  0  0  0  0  0  0
    7.7980  -11.1210   13.1310 C   0  0  0  0  0  0  0  0  0  0  0  0
    8.7290  -10.0670   13.0440 C   0  0  0  0  0  0  0  0  0  0  0  0
    8.4430   -8.8940   12.3200 C   0  0  0  0  0  3  0  0  0  0  0  0
    7.2350   -8.7530   11.6560 C   0  0  0  0  0  3  0  0  0  0  0  0
    6.3300   -9.8050   11.6780 C   0  0  0  0  0  3  0  0  0  0  0  0
    6.6140  -11.0050   12.3760 C   0  0  0  0  0  0  0  0  0  0  0  0
   10.0950  -10.1270   13.6550 C   0  0  0  0  0  0  0  0  0  0  0  0
   10.6470  -11.3500   13.8970 N   0  0  0  0  0  0  0  0  0  0  0  0
   10.7250   -9.1070   13.9050 O   0  0  0  0  0  0  0  0  0  0  0  0
   11.5870  -11.4020   14.2630 H   0  0  0  0  0  0  0  0  0  0  0  0
   10.1390  -12.2060   13.6950 H   0  0  0  0  0  0  0  0  0  0  0  0
  1 22  1  0  0  0  0
  2  1  2  0  0  0  0
  3  2  1  0  0  0  0
  4  3  2  0  0  0  0
  4  5  1  0  0  0  0
  5  7  1  0  0  0  0
  5  6  2  0  0  0  0
  6  1  1  0  0  0  0
  7  8  1  0  0  0  0
  8 11  1  0  0  0  0
  9  8  2  0  0  0  0
 10  7  1  0  0  0  0
 11 16  1  0  0  0  0
 12 11  2  0  0  0  0
 12 13  1  0  0  0  0
 13 14  2  0  0  0  0
 14 17  1  0  0  0  0
 15 14  1  0  0  0  0
 16 15  2  0  0  0  0
 17 18  1  0  0  0  0
 17 20  1  0  0  0  0
 19 17  1  0  0  0  0
 22 21  1  1  0  0  0
 22 23  1  0  0  0  0
 23 24  1  0  0  0  0
 23 25  1  0  0  0  0
 25 34  2  0  0  0  0
 25 26  1  0  0  0  0
 26 27  2  0  0  0  0
 28 27  1  0  0  0  0
 29 28  2  0  0  0  0
 30 29  1  0  0  0  0
 30 35  1  0  0  0  0
 31 30  2  0  0  0  0
 32 33  2  0  0  0  0
 32 31  1  0  0  0  0
 33 34  1  0  0  0  0
 34 29  1  0  0  0  0
 35 36  1  0  0  0  0
 35 37  2  0  0  0  0
 36 38  1  0  0  0  0
 39 36  1  0  0  0  0
M  END
>  <minimizedAffinity>
11.7039738

$$$$
