
 OpenBabel10152418123D

 38 41  0  0  1  0  0  0  0  0999 V2000
    2.4170   -8.1400  -26.6090 C   0  0  0  0  0  0  0  0  0  0  0  0
    2.4190   -7.3180  -25.4770 C   0  0  0  0  0  3  0  0  0  0  0  0
    2.1010   -7.8330  -24.2240 C   0  0  0  0  0  3  0  0  0  0  0  0
    1.8570   -9.1970  -24.0740 C   0  0  0  0  0  3  0  0  0  0  0  0
    1.9100  -10.0640  -25.1790 C   0  0  0  0  0  0  0  0  0  0  0  0
    2.1310   -9.5070  -26.4660 C   0  0  0  0  0  3  0  0  0  0  0  0
    2.3010   -6.7940  -28.7570 C   0  0  0  0  0  0  0  0  0  0  0  0
    2.6200   -6.9880  -29.9320 O   0  0  0  0  0  0  0  0  0  0  0  0
    2.9020   -7.5600  -27.7920 N   0  0  0  0  0  0  0  0  0  0  0  0
    3.8100   -7.8890  -28.0980 H   0  0  0  0  0  0  0  0  0  0  0  0
    0.2400   -4.0430  -27.4930 C   0  0  0  0  0  0  0  0  0  0  0  0
    0.3480   -5.4510  -27.6720 C   0  0  0  0  0  3  0  0  0  0  0  0
    1.5120   -5.6470  -28.3900 C   0  0  0  0  0  0  0  0  0  0  0  0
    1.9810   -4.3830  -28.6340 N   0  0  0  0  0  0  0  0  0  0  0  0
    1.2440   -3.4000  -28.1010 N   0  0  0  0  0  0  0  0  0  0  0  0
    2.8400   -4.1390  -29.1160 H   0  0  0  0  0  0  0  0  0  0  0  0
   -1.0610   -3.8340  -25.3750 C   0  0  0  0  0  1  0  0  0  0  0  0
   -0.8160   -3.2500  -26.7710 C   0  0  0  0  0  3  0  0  0  0  0  0
   -0.5440   -1.7400  -26.7750 C   0  0  0  0  0  1  0  0  0  0  0  0
    1.9100  -11.5870  -24.9780 C   0  0  1  0  0  3  0  0  0  0  0  0
    3.2520  -12.0380  -24.3950 C   0  0  0  0  0  1  0  0  0  0  0  0
    0.8530  -12.0390  -24.0730 N   0  0  0  0  0  0  0  0  0  0  0  0
    1.0850  -12.2500  -23.1170 H   0  0  0  0  0  0  0  0  0  0  0  0
   -0.4450  -11.6360  -24.3830 C   0  0  0  0  0  0  0  0  0  0  0  0
   -0.8100  -11.7080  -25.6740 N   0  0  0  0  0  0  0  0  0  0  0  0
   -1.7660  -10.8720  -26.0650 C   0  0  0  0  0  3  0  0  0  0  0  0
   -2.2710   -9.8990  -25.3120 N   0  0  0  0  0  0  0  0  0  0  0  0
   -1.9050   -9.8700  -24.0120 C   0  0  0  0  0  0  0  0  0  0  0  0
   -2.1110   -8.7700  -23.1760 C   0  0  0  0  0  0  0  0  0  0  0  0
   -2.1600   -8.8830  -21.7800 C   0  0  0  0  0  3  0  0  0  0  0  0
   -1.6710  -10.0350  -21.1950 C   0  0  0  0  0  3  0  0  0  0  0  0
   -1.0620  -10.9780  -22.0180 C   0  0  0  0  0  3  0  0  0  0  0  0
   -1.1540  -10.8790  -23.4380 C   0  0  0  0  0  0  0  0  0  0  0  0
   -1.5170   -7.5160  -23.7130 C   0  0  0  0  0  0  0  0  0  0  0  0
   -1.3580   -7.4340  -25.0750 N   0  0  0  0  0  0  0  0  0  0  0  0
   -1.3170   -6.5310  -23.0230 O   0  0  0  0  0  0  0  0  0  0  0  0
   -1.1300   -6.5250  -25.4560 H   0  0  0  0  0  0  0  0  0  0  0  0
   -1.6220   -8.1640  -25.7200 H   0  0  0  0  0  0  0  0  0  0  0  0
  1  6  2  0  0  0  0
  1  2  1  0  0  0  0
  2  3  2  0  0  0  0
  3  4  1  0  0  0  0
  5 20  1  0  0  0  0
  5  4  2  0  0  0  0
  6  5  1  0  0  0  0
  7 13  1  0  0  0  0
  7  9  1  0  0  0  0
  8  7  2  0  0  0  0
  9  1  1  0  0  0  0
 10  9  1  0  0  0  0
 11 18  1  0  0  0  0
 12 11  1  0  0  0  0
 13 12  2  0  0  0  0
 14 13  1  0  0  0  0
 14 15  1  0  0  0  0
 15 11  2  0  0  0  0
 16 14  1  0  0  0  0
 18 17  1  0  0  0  0
 19 18  1  0  0  0  0
 20 21  1  1  0  0  0
 20 22  1  0  0  0  0
 22 23  1  0  0  0  0
 24 22  1  0  0  0  0
 24 33  1  0  0  0  0
 25 24  2  0  0  0  0
 26 25  1  0  0  0  0
 26 27  2  0  0  0  0
 27 28  1  0  0  0  0
 28 33  2  0  0  0  0
 28 29  1  0  0  0  0
 29 30  2  0  0  0  0
 30 31  1  0  0  0  0
 32 31  2  0  0  0  0
 33 32  1  0  0  0  0
 34 29  1  0  0  0  0
 34 36  2  0  0  0  0
 35 34  1  0  0  0  0
 37 35  1  0  0  0  0
 38 35  1  0  0  0  0
M  END
>  <minimizedAffinity>
-6.93434238

$$$$
