
 OpenBabel10152418123D

 38 41  0  0  1  0  0  0  0  0999 V2000
   -0.9460   -8.3920  -23.3400 C   0  0  0  0  0  0  0  0  0  0  0  0
   -1.6540   -9.3770  -22.6460 C   0  0  0  0  0  3  0  0  0  0  0  0
   -1.3860  -10.7270  -22.8550 C   0  0  0  0  0  3  0  0  0  0  0  0
   -0.3460  -11.1060  -23.7030 C   0  0  0  0  0  3  0  0  0  0  0  0
    0.4290  -10.1390  -24.3680 C   0  0  0  0  0  0  0  0  0  0  0  0
    0.0740   -8.7730  -24.2250 C   0  0  0  0  0  3  0  0  0  0  0  0
   -0.5540   -5.8860  -23.2430 C   0  0  0  0  0  0  0  0  0  0  0  0
   -0.4270   -5.0530  -22.3430 O   0  0  0  0  0  0  0  0  0  0  0  0
   -1.1840   -7.0660  -22.9420 N   0  0  0  0  0  0  0  0  0  0  0  0
   -1.8230   -6.9530  -22.1640 H   0  0  0  0  0  0  0  0  0  0  0  0
    0.1420   -5.3690  -26.8010 C   0  0  0  0  0  0  0  0  0  0  0  0
    0.4770   -6.1000  -25.6260 C   0  0  0  0  0  3  0  0  0  0  0  0
   -0.2730   -5.5400  -24.6110 C   0  0  0  0  0  0  0  0  0  0  0  0
   -0.9430   -4.5070  -25.2110 N   0  0  0  0  0  0  0  0  0  0  0  0
   -0.7230   -4.3850  -26.5260 N   0  0  0  0  0  0  0  0  0  0  0  0
   -1.6160   -3.8860  -24.7720 H   0  0  0  0  0  0  0  0  0  0  0  0
    1.3240   -4.2680  -28.7020 C   0  0  0  0  0  1  0  0  0  0  0  0
    0.6350   -5.5470  -28.2120 C   0  0  0  0  0  3  0  0  0  0  0  0
    1.4740   -6.8170  -28.4010 C   0  0  0  0  0  1  0  0  0  0  0  0
    1.7310  -10.5370  -25.0800 C   0  0  1  0  0  3  0  0  0  0  0  0
    1.7250  -12.0380  -25.3820 C   0  0  0  0  0  1  0  0  0  0  0  0
    1.9240   -9.8260  -26.3450 N   0  0  0  0  0  0  0  0  0  0  0  0
    1.1340   -9.3790  -26.7790 H   0  0  0  0  0  0  0  0  0  0  0  0
    3.2040   -9.3330  -26.5920 C   0  0  0  0  0  0  0  0  0  0  0  0
    3.5300   -8.1710  -26.0030 N   0  0  0  0  0  0  0  0  0  0  0  0
    4.4580   -7.4400  -26.6120 C   0  0  0  0  0  3  0  0  0  0  0  0
    4.9680   -7.7140  -27.8090 N   0  0  0  0  0  0  0  0  0  0  0  0
    4.6420   -8.9020  -28.3630 C   0  0  0  0  0  0  0  0  0  0  0  0
    4.8530   -9.2110  -29.7080 C   0  0  0  0  0  0  0  0  0  0  0  0
    4.9480  -10.5300  -30.1730 C   0  0  0  0  0  3  0  0  0  0  0  0
    4.4990  -11.5500  -29.3570 C   0  0  0  0  0  3  0  0  0  0  0  0
    3.8810  -11.2030  -28.1580 C   0  0  0  0  0  3  0  0  0  0  0  0
    3.9280   -9.8640  -27.6710 C   0  0  0  0  0  0  0  0  0  0  0  0
    4.2210   -8.2320  -30.6330 C   0  0  0  0  0  0  0  0  0  0  0  0
    4.6830   -6.9390  -30.5860 N   0  0  0  0  0  0  0  0  0  0  0  0
    3.4390   -8.5600  -31.5090 O   0  0  0  0  0  0  0  0  0  0  0  0
    4.3900   -6.3200  -31.3300 H   0  0  0  0  0  0  0  0  0  0  0  0
    5.4200   -6.6250  -29.9720 H   0  0  0  0  0  0  0  0  0  0  0  0
  1  9  1  0  0  0  0
  1  2  1  0  0  0  0
  3  2  2  0  0  0  0
  4  3  1  0  0  0  0
  5  6  1  0  0  0  0
  5  4  2  0  0  0  0
  6  1  2  0  0  0  0
  7  9  1  0  0  0  0
  7  8  2  0  0  0  0
  9 10  1  0  0  0  0
 11 15  2  0  0  0  0
 11 12  1  0  0  0  0
 12 13  2  0  0  0  0
 13  7  1  0  0  0  0
 14 16  1  0  0  0  0
 14 13  1  0  0  0  0
 15 14  1  0  0  0  0
 17 18  1  0  0  0  0
 18 11  1  0  0  0  0
 19 18  1  0  0  0  0
 20 21  1  6  0  0  0
 20  5  1  0  0  0  0
 22 20  1  0  0  0  0
 23 22  1  0  0  0  0
 24 22  1  0  0  0  0
 24 25  1  0  0  0  0
 26 25  2  0  0  0  0
 27 26  1  0  0  0  0
 28 27  2  0  0  0  0
 28 33  1  0  0  0  0
 29 28  1  0  0  0  0
 30 29  2  0  0  0  0
 30 31  1  0  0  0  0
 31 32  2  0  0  0  0
 32 33  1  0  0  0  0
 33 24  2  0  0  0  0
 34 35  1  0  0  0  0
 34 29  1  0  0  0  0
 35 38  1  0  0  0  0
 36 34  2  0  0  0  0
 37 35  1  0  0  0  0
M  END
>  <minimizedAffinity>
-8.12573433

$$$$
