
 OpenBabel10152418123D

 38 41  0  0  1  0  0  0  0  0999 V2000
    2.0120   -6.4790  -28.7140 C   0  0  0  0  0  0  0  0  0  0  0  0
    1.4510   -5.1990  -28.7310 C   0  0  0  0  0  3  0  0  0  0  0  0
    0.6780   -4.7460  -27.6650 C   0  0  0  0  0  3  0  0  0  0  0  0
    0.5270   -5.5410  -26.5300 C   0  0  0  0  0  3  0  0  0  0  0  0
    1.1320   -6.8080  -26.4520 C   0  0  0  0  0  0  0  0  0  0  0  0
    1.8270   -7.2960  -27.5890 C   0  0  0  0  0  3  0  0  0  0  0  0
    4.0510   -7.5170  -29.8130 C   0  0  0  0  0  0  0  0  0  0  0  0
    4.9740   -7.1030  -30.5170 O   0  0  0  0  0  0  0  0  0  0  0  0
    2.8990   -6.7770  -29.7620 N   0  0  0  0  0  0  0  0  0  0  0  0
    2.7810   -6.2230  -30.6030 H   0  0  0  0  0  0  0  0  0  0  0  0
    3.8540  -10.7960  -28.1930 C   0  0  0  0  0  0  0  0  0  0  0  0
    3.8900   -9.3850  -28.0030 C   0  0  0  0  0  3  0  0  0  0  0  0
    4.0880   -8.8450  -29.2580 C   0  0  0  0  0  0  0  0  0  0  0  0
    4.2100   -9.9320  -30.0840 N   0  0  0  0  0  0  0  0  0  0  0  0
    4.0640  -11.1150  -29.4750 N   0  0  0  0  0  0  0  0  0  0  0  0
    4.3360   -9.9160  -31.0910 H   0  0  0  0  0  0  0  0  0  0  0  0
    4.6820  -11.7830  -26.0570 C   0  0  0  0  0  1  0  0  0  0  0  0
    3.6460  -11.8920  -27.1820 C   0  0  0  0  0  3  0  0  0  0  0  0
    2.1980  -11.9890  -26.6870 C   0  0  0  0  0  1  0  0  0  0  0  0
    1.1940   -7.5630  -25.1150 C   0  0  1  0  0  3  0  0  0  0  0  0
    0.5350   -6.7310  -24.0120 C   0  0  0  0  0  1  0  0  0  0  0  0
    0.5160   -8.8590  -25.1660 N   0  0  0  0  0  0  0  0  0  0  0  0
    1.0610   -9.6990  -25.0760 H   0  0  0  0  0  0  0  0  0  0  0  0
   -0.8240   -8.8750  -24.7810 C   0  0  0  0  0  0  0  0  0  0  0  0
   -1.6020   -7.8880  -25.2560 N   0  0  0  0  0  0  0  0  0  0  0  0
   -2.6640   -7.5690  -24.5230 C   0  0  0  0  0  3  0  0  0  0  0  0
   -2.9180   -8.0570  -23.3130 N   0  0  0  0  0  0  0  0  0  0  0  0
   -2.1340   -9.0660  -22.8750 C   0  0  0  0  0  0  0  0  0  0  0  0
   -2.0840   -9.4840  -21.5430 C   0  0  0  0  0  0  0  0  0  0  0  0
   -1.6520  -10.7640  -21.1710 C   0  0  0  0  0  3  0  0  0  0  0  0
   -0.9520  -11.5180  -22.0930 C   0  0  0  0  0  3  0  0  0  0  0  0
   -0.6250  -10.9230  -23.3080 C   0  0  0  0  0  3  0  0  0  0  0  0
   -1.1970   -9.6740  -23.6900 C   0  0  0  0  0  0  0  0  0  0  0  0
   -1.7540   -8.3790  -20.6030 C   0  0  0  0  0  0  0  0  0  0  0  0
   -2.5240   -7.2440  -20.6780 N   0  0  0  0  0  0  0  0  0  0  0  0
   -0.9500   -8.5020  -19.6950 O   0  0  0  0  0  0  0  0  0  0  0  0
   -2.4250   -6.5720  -19.9280 H   0  0  0  0  0  0  0  0  0  0  0  0
   -3.2910   -7.1230  -21.3220 H   0  0  0  0  0  0  0  0  0  0  0  0
  1  6  1  0  0  0  0
  2  1  2  0  0  0  0
  2  3  1  0  0  0  0
  3  4  2  0  0  0  0
  4  5  1  0  0  0  0
  5 20  1  0  0  0  0
  6  5  2  0  0  0  0
  7  9  1  0  0  0  0
  7 13  1  0  0  0  0
  8  7  2  0  0  0  0
  9  1  1  0  0  0  0
 10  9  1  0  0  0  0
 11 12  1  0  0  0  0
 11 18  1  0  0  0  0
 13 12  2  0  0  0  0
 14 15  1  0  0  0  0
 14 13  1  0  0  0  0
 15 11  2  0  0  0  0
 16 14  1  0  0  0  0
 18 19  1  0  0  0  0
 18 17  1  0  0  0  0
 20 21  1  1  0  0  0
 22 20  1  0  0  0  0
 22 23  1  0  0  0  0
 22 24  1  0  0  0  0
 24 33  1  0  0  0  0
 25 24  2  0  0  0  0
 25 26  1  0  0  0  0
 26 27  2  0  0  0  0
 27 28  1  0  0  0  0
 28 29  1  0  0  0  0
 29 30  2  0  0  0  0
 29 34  1  0  0  0  0
 31 30  1  0  0  0  0
 32 31  2  0  0  0  0
 33 32  1  0  0  0  0
 33 28  2  0  0  0  0
 34 36  2  0  0  0  0
 35 34  1  0  0  0  0
 35 37  1  0  0  0  0
 38 35  1  0  0  0  0
M  END
>  <minimizedAffinity>
-7.24855089

$$$$
