
 OpenBabel11232418563D

 38 44  0  0  1  0  0  0  0  0999 V2000
    8.5640   -9.2980   13.6050 C   0  0  0  0  0  0  0  0  0  0  0  0
    9.5080   -8.6320   12.7970 C   0  0  0  0  0  3  0  0  0  0  0  0
    9.1500   -7.5800   11.9460 C   0  0  0  0  0  3  0  0  0  0  0  0
    7.8320   -7.1280   11.8890 C   0  0  0  0  0  0  0  0  0  0  0  0
    6.8740   -7.7530   12.6870 C   0  0  0  0  0  3  0  0  0  0  0  0
    7.2360   -8.8160   13.5240 C   0  0  0  0  0  3  0  0  0  0  0  0
    7.4810   -6.0640   10.9710 C   0  0  0  0  0  0  0  0  0  0  0  0
    7.4130   -4.7500   11.3830 N   0  0  0  0  0  0  0  0  0  0  0  0
    7.0790   -4.0700   10.3100 C   0  0  0  0  0  0  0  0  0  0  0  0
    6.9100   -4.8970    9.2350 N   0  0  0  0  0  0  0  0  0  0  0  0
    7.1730   -6.1910    9.6230 C   0  0  0  0  0  0  0  0  0  0  0  0
    6.5840   -4.3850    7.9170 C   0  0  0  0  0  2  0  0  0  0  0  0
    5.9370   -3.0940    7.9390 O   0  0  0  0  0  0  0  0  0  0  0  0
    6.3080   -2.2320    8.9330 C   0  0  0  0  0  0  0  0  0  0  0  0
    6.0610   -0.8800    8.7740 C   0  0  0  0  0  3  0  0  0  0  0  0
    6.3610    0.0520    9.7100 N   0  0  0  0  0  0  0  0  0  0  0  0
    6.9120   -0.3900   10.8620 C   0  0  0  0  0  3  0  0  0  0  0  0
    7.1790   -1.7220   11.1250 C   0  0  0  0  0  3  0  0  0  0  0  0
    6.8670   -2.6530   10.1390 C   0  0  0  0  0  0  0  0  0  0  0  0
    7.0580   -7.3490    8.7490 C   0  0  0  0  0  0  0  0  0  0  0  0
    7.6570   -7.3330    7.4840 C   0  0  0  0  0  3  0  0  0  0  0  0
    7.5650   -8.4450    6.6460 C   0  0  0  0  0  3  0  0  0  0  0  0
    6.8680   -9.5770    7.0660 C   0  0  0  0  0  3  0  0  0  0  0  0
    6.2630   -9.5980    8.3210 C   0  0  0  0  0  3  0  0  0  0  0  0
    6.3560   -8.4870    9.1620 C   0  0  0  0  0  3  0  0  0  0  0  0
    8.9460  -10.5110   14.5630 C   0  0  2  0  0  0  0  0  0  0  0  0
    8.4980  -10.5140   16.0430 C   0  0  0  0  0  2  0  0  0  0  0  0
    9.9780  -10.3290   16.5060 C   0  0  1  0  0  0  0  0  0  0  0  0
   10.4150  -10.6230   15.0380 C   0  0  0  0  0  2  0  0  0  0  0  0
    8.4980  -11.7530   13.8840 N   0  0  0  0  0  4  0  0  0  0  0  0
    7.4830  -11.7360   13.7190 H   0  0  0  0  0  0  0  0  0  0  0  0
    8.7070  -12.5960   14.4370 H   0  0  0  0  0  0  0  0  0  0  0  0
    8.9450  -11.8650   12.9650 H   0  0  0  0  0  0  0  0  0  0  0  0
   10.2830   -8.9650   17.1090 C   0  0  0  0  0  3  0  0  0  0  0  0
   11.5470   -8.6510   17.8620 C   0  0  0  0  0  2  0  0  0  0  0  0
   11.2480   -7.9480   16.5650 C   0  0  0  0  0  2  0  0  0  0  0  0
   10.3820  -11.4040   17.3880 O   0  0  0  0  0  0  0  0  0  0  0  0
   11.2320  -11.1180   17.7750 H   0  0  0  0  0  0  0  0  0  0  0  0
  1 26  1  0  0  0  0
  2  1  2  0  0  0  0
  3  2  1  0  0  0  0
  4  3  2  0  0  0  0
  4  5  1  0  0  0  0
  5  6  2  0  0  0  0
  6  1  1  0  0  0  0
  7  8  1  0  0  0  0
  7  4  1  0  0  0  0
  9  8  2  0  0  0  0
 10 11  1  0  0  0  0
 10  9  1  0  0  0  0
 11  7  2  0  0  0  0
 12 13  1  0  0  0  0
 12 10  1  0  0  0  0
 13 14  1  0  0  0  0
 14 19  1  0  0  0  0
 15 14  2  0  0  0  0
 15 16  1  0  0  0  0
 16 17  2  0  0  0  0
 17 18  1  0  0  0  0
 19  9  1  0  0  0  0
 19 18  2  0  0  0  0
 20 25  1  0  0  0  0
 20 11  1  0  0  0  0
 21 20  2  0  0  0  0
 22 23  2  0  0  0  0
 22 21  1  0  0  0  0
 23 24  1  0  0  0  0
 24 25  2  0  0  0  0
 26 30  1  6  0  0  0
 26 29  1  0  0  0  0
 26 27  1  0  0  0  0
 27 28  1  0  0  0  0
 28 34  1  0  0  0  0
 28 37  1  1  0  0  0
 29 28  1  0  0  0  0
 30 32  1  0  0  0  0
 31 30  1  0  0  0  0
 33 30  1  0  0  0  0
 34 35  1  0  0  0  0
 36 34  1  0  0  0  0
 36 35  1  0  0  0  0
 37 38  1  0  0  0  0
M  END
>  <minimizedAffinity>
-11.7218199

$$$$
