
 OpenBabel11232418563D

 38 44  0  0  1  0  0  0  0  0999 V2000
    8.7680   -6.8210   14.3830 C   0  0  0  0  0  0  0  0  0  0  0  0
    7.4060   -6.5420   14.1480 C   0  0  0  0  0  3  0  0  0  0  0  0
    6.9820   -5.7400   13.0810 C   0  0  0  0  0  3  0  0  0  0  0  0
    7.9060   -5.2040   12.1840 C   0  0  0  0  0  0  0  0  0  0  0  0
    9.2600   -5.4730   12.3750 C   0  0  0  0  0  3  0  0  0  0  0  0
    9.6780   -6.2630   13.4550 C   0  0  0  0  0  3  0  0  0  0  0  0
    7.4440   -4.3460   11.1120 C   0  0  0  0  0  0  0  0  0  0  0  0
    7.1540   -4.8470    9.8620 N   0  0  0  0  0  0  0  0  0  0  0  0
    6.7670   -3.8080    9.1550 C   0  0  0  0  0  0  0  0  0  0  0  0
    6.8190   -2.6620    9.8970 N   0  0  0  0  0  0  0  0  0  0  0  0
    7.2410   -2.9730   11.1700 C   0  0  0  0  0  0  0  0  0  0  0  0
    6.3970   -1.3810    9.3610 C   0  0  0  0  0  2  0  0  0  0  0  0
    6.4550   -1.3080    7.9200 O   0  0  0  0  0  0  0  0  0  0  0  0
    6.1880   -2.4580    7.2300 C   0  0  0  0  0  0  0  0  0  0  0  0
    5.8170   -2.3710    5.9000 C   0  0  0  0  0  3  0  0  0  0  0  0
    5.5620   -3.4480    5.1200 N   0  0  0  0  0  0  0  0  0  0  0  0
    5.7040   -4.6660    5.6900 C   0  0  0  0  0  3  0  0  0  0  0  0
    6.0910   -4.8590    7.0050 C   0  0  0  0  0  3  0  0  0  0  0  0
    6.3370   -3.7300    7.7810 C   0  0  0  0  0  0  0  0  0  0  0  0
    7.4510   -1.9950   12.2270 C   0  0  0  0  0  0  0  0  0  0  0  0
    8.4060   -0.9840   12.0650 C   0  0  0  0  0  3  0  0  0  0  0  0
    8.6030   -0.0330   13.0670 C   0  0  0  0  0  3  0  0  0  0  0  0
    7.8500   -0.0910   14.2400 C   0  0  0  0  0  3  0  0  0  0  0  0
    6.9030   -1.0990   14.4110 C   0  0  0  0  0  3  0  0  0  0  0  0
    6.7030   -2.0490   13.4080 C   0  0  0  0  0  3  0  0  0  0  0  0
    9.2720   -7.7120   15.6020 C   0  0  2  0  0  0  0  0  0  0  0  0
   10.4490   -8.6970   15.4200 C   0  0  0  0  0  2  0  0  0  0  0  0
    9.4790   -9.9100   15.5780 C   0  0  1  0  0  0  0  0  0  0  0  0
    8.3840   -8.9010   16.0440 C   0  0  0  0  0  2  0  0  0  0  0  0
    9.5400   -6.7850   16.7300 N   0  0  0  0  0  4  0  0  0  0  0  0
   10.2580   -6.0940   16.4750 H   0  0  0  0  0  0  0  0  0  0  0  0
    9.8730   -7.2800   17.5700 H   0  0  0  0  0  0  0  0  0  0  0  0
    8.7000   -6.2560   16.9930 H   0  0  0  0  0  0  0  0  0  0  0  0
    9.2540  -10.7060   14.3000 C   0  0  0  0  0  3  0  0  0  0  0  0
    8.3290  -11.8890   14.2090 C   0  0  0  0  0  2  0  0  0  0  0  0
    8.0400  -10.6430   13.4150 C   0  0  0  0  0  2  0  0  0  0  0  0
    9.8910  -10.7630   16.6730 O   0  0  0  0  0  0  0  0  0  0  0  0
    9.3590  -11.5770   16.5840 H   0  0  0  0  0  0  0  0  0  0  0  0
  1 26  1  0  0  0  0
  2  1  1  0  0  0  0
  3  2  2  0  0  0  0
  4  5  2  0  0  0  0
  4  3  1  0  0  0  0
  5  6  1  0  0  0  0
  6  1  2  0  0  0  0
  7 11  2  0  0  0  0
  7  4  1  0  0  0  0
  8  7  1  0  0  0  0
  9  8  2  0  0  0  0
  9 10  1  0  0  0  0
 10 11  1  0  0  0  0
 11 20  1  0  0  0  0
 12 10  1  0  0  0  0
 13 12  1  0  0  0  0
 14 19  1  0  0  0  0
 14 13  1  0  0  0  0
 15 14  2  0  0  0  0
 16 17  2  0  0  0  0
 16 15  1  0  0  0  0
 17 18  1  0  0  0  0
 18 19  2  0  0  0  0
 19  9  1  0  0  0  0
 20 25  1  0  0  0  0
 21 20  2  0  0  0  0
 21 22  1  0  0  0  0
 22 23  2  0  0  0  0
 23 24  1  0  0  0  0
 25 24  2  0  0  0  0
 26 29  1  0  0  0  0
 26 30  1  1  0  0  0
 27 28  1  0  0  0  0
 27 26  1  0  0  0  0
 28 29  1  0  0  0  0
 28 37  1  1  0  0  0
 30 33  1  0  0  0  0
 30 32  1  0  0  0  0
 31 30  1  0  0  0  0
 34 28  1  0  0  0  0
 35 34  1  0  0  0  0
 36 35  1  0  0  0  0
 36 34  1  0  0  0  0
 38 37  1  0  0  0  0
M  END
>  <minimizedAffinity>
-12.3051853

$$$$
