
 OpenBabel11232418563D

 38 44  0  0  1  0  0  0  0  0999 V2000
    8.4880   -7.0860   14.2100 C   0  0  0  0  0  0  0  0  0  0  0  0
    9.4050   -6.2800   13.5050 C   0  0  0  0  0  3  0  0  0  0  0  0
    9.0010   -5.4050   12.4890 C   0  0  0  0  0  3  0  0  0  0  0  0
    7.6540   -5.2790   12.1540 C   0  0  0  0  0  0  0  0  0  0  0  0
    6.7160   -6.0490   12.8410 C   0  0  0  0  0  3  0  0  0  0  0  0
    7.1300   -6.9340   13.8460 C   0  0  0  0  0  3  0  0  0  0  0  0
    7.2670   -4.3970   11.0730 C   0  0  0  0  0  0  0  0  0  0  0  0
    6.9780   -4.8800    9.8150 N   0  0  0  0  0  0  0  0  0  0  0  0
    6.6670   -3.8220    9.1010 C   0  0  0  0  0  0  0  0  0  0  0  0
    6.7660   -2.6800    9.8450 N   0  0  0  0  0  0  0  0  0  0  0  0
    7.1400   -3.0140   11.1270 C   0  0  0  0  0  0  0  0  0  0  0  0
    6.4290   -1.3780    9.3000 C   0  0  0  0  0  2  0  0  0  0  0  0
    6.5260   -1.3080    7.8610 O   0  0  0  0  0  0  0  0  0  0  0  0
    6.2110   -2.4410    7.1640 C   0  0  0  0  0  0  0  0  0  0  0  0
    5.8770   -2.3340    5.8260 C   0  0  0  0  0  3  0  0  0  0  0  0
    5.5800   -3.3950    5.0390 N   0  0  0  0  0  0  0  0  0  0  0  0
    5.6400   -4.6190    5.6110 C   0  0  0  0  0  3  0  0  0  0  0  0
    5.9840   -4.8330    6.9340 C   0  0  0  0  0  3  0  0  0  0  0  0
    6.2750   -3.7200    7.7170 C   0  0  0  0  0  0  0  0  0  0  0  0
    7.3790   -2.0490   12.1900 C   0  0  0  0  0  0  0  0  0  0  0  0
    6.5580   -2.0400   13.3240 C   0  0  0  0  0  3  0  0  0  0  0  0
    6.7900   -1.1280   14.3540 C   0  0  0  0  0  3  0  0  0  0  0  0
    7.8410   -0.2180   14.2550 C   0  0  0  0  0  3  0  0  0  0  0  0
    8.6590   -0.2160   13.1260 C   0  0  0  0  0  3  0  0  0  0  0  0
    8.4290   -1.1290   12.0950 C   0  0  0  0  0  3  0  0  0  0  0  0
    8.9300   -8.1020   15.3540 C   0  0  2  0  0  0  0  0  0  0  0  0
    8.9480   -7.6580   16.8340 C   0  0  0  0  0  2  0  0  0  0  0  0
   10.5080   -7.7320   16.8530 C   0  0  1  0  0  0  0  0  0  0  0  0
   10.4330   -8.4520   15.4700 C   0  0  0  0  0  2  0  0  0  0  0  0
    8.1000   -9.3220   15.1890 N   0  0  0  0  0  4  0  0  0  0  0  0
    7.0990   -9.1000   15.2770 H   0  0  0  0  0  0  0  0  0  0  0  0
    8.3200  -10.0410   15.8920 H   0  0  0  0  0  0  0  0  0  0  0  0
    8.2280   -9.7450   14.2610 H   0  0  0  0  0  0  0  0  0  0  0  0
   11.2010   -6.3810   16.9460 C   0  0  0  0  0  3  0  0  0  0  0  0
   10.4690   -5.0670   16.9370 C   0  0  0  0  0  2  0  0  0  0  0  0
   11.2490   -5.4870   18.1540 C   0  0  0  0  0  2  0  0  0  0  0  0
   10.9700   -8.6410   17.8800 O   0  0  0  0  0  0  0  0  0  0  0  0
   11.9320   -8.4870   17.9510 H   0  0  0  0  0  0  0  0  0  0  0  0
  1 26  1  0  0  0  0
  2  1  2  0  0  0  0
  3  2  1  0  0  0  0
  4  3  2  0  0  0  0
  4  5  1  0  0  0  0
  5  6  2  0  0  0  0
  6  1  1  0  0  0  0
  7 11  2  0  0  0  0
  7  4  1  0  0  0  0
  8  7  1  0  0  0  0
  9  8  2  0  0  0  0
  9 10  1  0  0  0  0
 10 11  1  0  0  0  0
 11 20  1  0  0  0  0
 12 10  1  0  0  0  0
 13 12  1  0  0  0  0
 14 19  1  0  0  0  0
 14 13  1  0  0  0  0
 15 14  2  0  0  0  0
 16 17  2  0  0  0  0
 16 15  1  0  0  0  0
 17 18  1  0  0  0  0
 18 19  2  0  0  0  0
 19  9  1  0  0  0  0
 20 21  1  0  0  0  0
 21 22  2  0  0  0  0
 23 22  1  0  0  0  0
 24 23  2  0  0  0  0
 25 20  2  0  0  0  0
 25 24  1  0  0  0  0
 26 30  1  6  0  0  0
 26 29  1  0  0  0  0
 26 27  1  0  0  0  0
 27 28  1  0  0  0  0
 28 34  1  0  0  0  0
 28 37  1  1  0  0  0
 29 28  1  0  0  0  0
 30 31  1  0  0  0  0
 30 32  1  0  0  0  0
 33 30  1  0  0  0  0
 34 36  1  0  0  0  0
 35 34  1  0  0  0  0
 35 36  1  0  0  0  0
 37 38  1  0  0  0  0
M  END
>  <minimizedAffinity>
-13.2467852

$$$$

 OpenBabel11232418563D

 38 44  0  0  1  0  0  0  0  0999 V2000
    8.7680   -6.8210   14.3830 C   0  0  0  0  0  0  0  0  0  0  0  0
    7.4060   -6.5420   14.1480 C   0  0  0  0  0  3  0  0  0  0  0  0
    6.9820   -5.7400   13.0810 C   0  0  0  0  0  3  0  0  0  0  0  0
    7.9060   -5.2040   12.1840 C   0  0  0  0  0  0  0  0  0  0  0  0
    9.2600   -5.4730   12.3750 C   0  0  0  0  0  3  0  0  0  0  0  0
    9.6780   -6.2630   13.4550 C   0  0  0  0  0  3  0  0  0  0  0  0
    7.4440   -4.3460   11.1120 C   0  0  0  0  0  0  0  0  0  0  0  0
    7.1540   -4.8470    9.8620 N   0  0  0  0  0  0  0  0  0  0  0  0
    6.7670   -3.8080    9.1550 C   0  0  0  0  0  0  0  0  0  0  0  0
    6.8190   -2.6620    9.8970 N   0  0  0  0  0  0  0  0  0  0  0  0
    7.2410   -2.9730   11.1700 C   0  0  0  0  0  0  0  0  0  0  0  0
    6.3970   -1.3810    9.3610 C   0  0  0  0  0  2  0  0  0  0  0  0
    6.4550   -1.3080    7.9200 O   0  0  0  0  0  0  0  0  0  0  0  0
    6.1880   -2.4580    7.2300 C   0  0  0  0  0  0  0  0  0  0  0  0
    5.8170   -2.3710    5.9000 C   0  0  0  0  0  3  0  0  0  0  0  0
    5.5620   -3.4480    5.1200 N   0  0  0  0  0  0  0  0  0  0  0  0
    5.7040   -4.6660    5.6900 C   0  0  0  0  0  3  0  0  0  0  0  0
    6.0910   -4.8590    7.0050 C   0  0  0  0  0  3  0  0  0  0  0  0
    6.3370   -3.7300    7.7810 C   0  0  0  0  0  0  0  0  0  0  0  0
    7.4510   -1.9950   12.2270 C   0  0  0  0  0  0  0  0  0  0  0  0
    8.4060   -0.9840   12.0650 C   0  0  0  0  0  3  0  0  0  0  0  0
    8.6030   -0.0330   13.0670 C   0  0  0  0  0  3  0  0  0  0  0  0
    7.8500   -0.0910   14.2400 C   0  0  0  0  0  3  0  0  0  0  0  0
    6.9030   -1.0990   14.4110 C   0  0  0  0  0  3  0  0  0  0  0  0
    6.7030   -2.0490   13.4080 C   0  0  0  0  0  3  0  0  0  0  0  0
    9.2720   -7.7120   15.6020 C   0  0  2  0  0  0  0  0  0  0  0  0
   10.4490   -8.6970   15.4200 C   0  0  0  0  0  2  0  0  0  0  0  0
    9.4790   -9.9100   15.5780 C   0  0  1  0  0  0  0  0  0  0  0  0
    8.3840   -8.9010   16.0440 C   0  0  0  0  0  2  0  0  0  0  0  0
    9.5400   -6.7850   16.7300 N   0  0  0  0  0  4  0  0  0  0  0  0
   10.2580   -6.0940   16.4750 H   0  0  0  0  0  0  0  0  0  0  0  0
    9.8730   -7.2800   17.5700 H   0  0  0  0  0  0  0  0  0  0  0  0
    8.7000   -6.2560   16.9930 H   0  0  0  0  0  0  0  0  0  0  0  0
    9.2540  -10.7060   14.3000 C   0  0  0  0  0  3  0  0  0  0  0  0
    8.3290  -11.8890   14.2090 C   0  0  0  0  0  2  0  0  0  0  0  0
    8.0400  -10.6430   13.4150 C   0  0  0  0  0  2  0  0  0  0  0  0
    9.8910  -10.7630   16.6730 O   0  0  0  0  0  0  0  0  0  0  0  0
    9.3590  -11.5770   16.5840 H   0  0  0  0  0  0  0  0  0  0  0  0
  1 26  1  0  0  0  0
  2  1  1  0  0  0  0
  3  2  2  0  0  0  0
  4  5  2  0  0  0  0
  4  3  1  0  0  0  0
  5  6  1  0  0  0  0
  6  1  2  0  0  0  0
  7 11  2  0  0  0  0
  7  4  1  0  0  0  0
  8  7  1  0  0  0  0
  9  8  2  0  0  0  0
  9 10  1  0  0  0  0
 10 11  1  0  0  0  0
 11 20  1  0  0  0  0
 12 10  1  0  0  0  0
 13 12  1  0  0  0  0
 14 19  1  0  0  0  0
 14 13  1  0  0  0  0
 15 14  2  0  0  0  0
 16 17  2  0  0  0  0
 16 15  1  0  0  0  0
 17 18  1  0  0  0  0
 18 19  2  0  0  0  0
 19  9  1  0  0  0  0
 20 25  1  0  0  0  0
 21 20  2  0  0  0  0
 21 22  1  0  0  0  0
 22 23  2  0  0  0  0
 23 24  1  0  0  0  0
 25 24  2  0  0  0  0
 26 29  1  0  0  0  0
 26 30  1  1  0  0  0
 27 28  1  0  0  0  0
 27 26  1  0  0  0  0
 28 29  1  0  0  0  0
 28 37  1  1  0  0  0
 30 33  1  0  0  0  0
 30 32  1  0  0  0  0
 31 30  1  0  0  0  0
 34 28  1  0  0  0  0
 35 34  1  0  0  0  0
 36 35  1  0  0  0  0
 36 34  1  0  0  0  0
 38 37  1  0  0  0  0
M  END
>  <minimizedAffinity>
-12.3051853

$$$$

 OpenBabel11232418563D

 38 44  0  0  1  0  0  0  0  0999 V2000
    8.0350   -8.4880   12.3820 C   0  0  0  0  0  0  0  0  0  0  0  0
    8.9350   -7.5010   11.9320 C   0  0  0  0  0  3  0  0  0  0  0  0
    8.5520   -6.4980   11.0320 C   0  0  0  0  0  3  0  0  0  0  0  0
    7.2410   -6.4240   10.5660 C   0  0  0  0  0  0  0  0  0  0  0  0
    6.3190   -7.3750   11.0030 C   0  0  0  0  0  3  0  0  0  0  0  0
    6.7130   -8.3850   11.8900 C   0  0  0  0  0  3  0  0  0  0  0  0
    6.8810   -5.4010    9.6060 C   0  0  0  0  0  0  0  0  0  0  0  0
    6.6970   -5.6960    8.2720 N   0  0  0  0  0  0  0  0  0  0  0  0
    6.3810   -4.5530    7.7070 C   0  0  0  0  0  0  0  0  0  0  0  0
    6.3770   -3.5360    8.6200 N   0  0  0  0  0  0  0  0  0  0  0  0
    6.6840   -4.0490    9.8590 C   0  0  0  0  0  0  0  0  0  0  0  0
    6.0130   -2.1790    8.2560 C   0  0  0  0  0  2  0  0  0  0  0  0
    6.1970   -1.8850    6.8540 O   0  0  0  0  0  0  0  0  0  0  0  0
    5.9830   -2.9080    5.9730 C   0  0  0  0  0  0  0  0  0  0  0  0
    5.7300   -2.6090    4.6460 C   0  0  0  0  0  3  0  0  0  0  0  0
    5.5350   -3.5470    3.6890 N   0  0  0  0  0  0  0  0  0  0  0  0
    5.6180   -4.8410    4.0720 C   0  0  0  0  0  3  0  0  0  0  0  0
    5.8870   -5.2430    5.3690 C   0  0  0  0  0  3  0  0  0  0  0  0
    6.0730   -4.2540    6.3300 C   0  0  0  0  0  0  0  0  0  0  0  0
    6.8080   -3.2510   11.0700 C   0  0  0  0  0  0  0  0  0  0  0  0
    7.3950   -1.9810   11.0140 C   0  0  0  0  0  3  0  0  0  0  0  0
    7.5040   -1.2040   12.1670 C   0  0  0  0  0  3  0  0  0  0  0  0
    7.0320   -1.6930   13.3850 C   0  0  0  0  0  3  0  0  0  0  0  0
    6.4530   -2.9590   13.4500 C   0  0  0  0  0  3  0  0  0  0  0  0
    6.3410   -3.7380   12.2960 C   0  0  0  0  0  3  0  0  0  0  0  0
    8.4550   -9.6490   13.3880 C   0  0  2  0  0  0  0  0  0  0  0  0
    8.2550   -9.4790   14.9110 C   0  0  0  0  0  2  0  0  0  0  0  0
    9.8010   -9.4120   15.1220 C   0  0  1  0  0  0  0  0  0  0  0  0
    9.9660   -9.8750   13.6410 C   0  0  0  0  0  2  0  0  0  0  0  0
    7.7930  -10.8900   12.9130 N   0  0  0  0  0  4  0  0  0  0  0  0
    6.7700  -10.7800   12.9040 H   0  0  0  0  0  0  0  0  0  0  0  0
    8.0110  -11.7000   13.5090 H   0  0  0  0  0  0  0  0  0  0  0  0
    8.0730  -11.1250   11.9530 H   0  0  0  0  0  0  0  0  0  0  0  0
   10.3220   -8.0420   15.5310 C   0  0  0  0  0  3  0  0  0  0  0  0
   10.1020   -7.4390   16.8920 C   0  0  0  0  0  2  0  0  0  0  0  0
   11.4960   -7.7680   16.4300 C   0  0  0  0  0  2  0  0  0  0  0  0
   10.2420  -10.4450   16.0350 O   0  0  0  0  0  0  0  0  0  0  0  0
   11.1660  -10.2190   16.2570 H   0  0  0  0  0  0  0  0  0  0  0  0
  1 26  1  0  0  0  0
  2  1  1  0  0  0  0
  3  2  2  0  0  0  0
  4  5  2  0  0  0  0
  4  3  1  0  0  0  0
  5  6  1  0  0  0  0
  6  1  2  0  0  0  0
  7 11  2  0  0  0  0
  7  4  1  0  0  0  0
  8  7  1  0  0  0  0
  9  8  2  0  0  0  0
  9 10  1  0  0  0  0
 10 11  1  0  0  0  0
 11 20  1  0  0  0  0
 12 10  1  0  0  0  0
 13 12  1  0  0  0  0
 14 19  1  0  0  0  0
 14 13  1  0  0  0  0
 15 14  2  0  0  0  0
 16 17  2  0  0  0  0
 16 15  1  0  0  0  0
 17 18  1  0  0  0  0
 18 19  2  0  0  0  0
 19  9  1  0  0  0  0
 20 25  1  0  0  0  0
 21 20  2  0  0  0  0
 21 22  1  0  0  0  0
 22 23  2  0  0  0  0
 23 24  1  0  0  0  0
 25 24  2  0  0  0  0
 26 30  1  6  0  0  0
 26 29  1  0  0  0  0
 26 27  1  0  0  0  0
 27 28  1  0  0  0  0
 28 34  1  0  0  0  0
 28 37  1  1  0  0  0
 29 28  1  0  0  0  0
 30 32  1  0  0  0  0
 31 30  1  0  0  0  0
 33 30  1  0  0  0  0
 34 36  1  0  0  0  0
 34 35  1  0  0  0  0
 36 35  1  0  0  0  0
 37 38  1  0  0  0  0
M  END
>  <minimizedAffinity>
-12.1462421

$$$$

 OpenBabel11232418563D

 38 44  0  0  1  0  0  0  0  0999 V2000
    9.6660   -8.6930   15.3780 C   0  0  0  0  0  0  0  0  0  0  0  0
    9.9710   -8.6330   14.0020 C   0  0  0  0  0  3  0  0  0  0  0  0
    9.5490   -7.5730   13.1910 C   0  0  0  0  0  3  0  0  0  0  0  0
    8.8260   -6.5100   13.7300 C   0  0  0  0  0  0  0  0  0  0  0  0
    8.5210   -6.5270   15.0900 C   0  0  0  0  0  3  0  0  0  0  0  0
    8.9320   -7.5990   15.8930 C   0  0  0  0  0  3  0  0  0  0  0  0
    8.3680   -5.4450   12.8610 C   0  0  0  0  0  0  0  0  0  0  0  0
    8.5460   -4.1190   13.1900 N   0  0  0  0  0  0  0  0  0  0  0  0
    8.0240   -3.4420   12.1920 C   0  0  0  0  0  0  0  0  0  0  0  0
    7.5000   -4.2820   11.2500 N   0  0  0  0  0  0  0  0  0  0  0  0
    7.7140   -5.5830   11.6430 C   0  0  0  0  0  0  0  0  0  0  0  0
    6.9050   -3.7830   10.0230 C   0  0  0  0  0  2  0  0  0  0  0  0
    6.4260   -2.4250   10.1220 O   0  0  0  0  0  0  0  0  0  0  0  0
    7.1270   -1.5770   10.9330 C   0  0  0  0  0  0  0  0  0  0  0  0
    6.9930   -0.2120   10.7540 C   0  0  0  0  0  3  0  0  0  0  0  0
    7.6190    0.7110   11.5220 N   0  0  0  0  0  0  0  0  0  0  0  0
    8.3950    0.2490   12.5270 C   0  0  0  0  0  3  0  0  0  0  0  0
    8.5770   -1.0960   12.8020 C   0  0  0  0  0  3  0  0  0  0  0  0
    7.9270   -2.0180   11.9870 C   0  0  0  0  0  0  0  0  0  0  0  0
    7.2580   -6.7500   10.9030 C   0  0  0  0  0  0  0  0  0  0  0  0
    6.3830   -7.6620   11.5050 C   0  0  0  0  0  3  0  0  0  0  0  0
    5.9290   -8.7750   10.7970 C   0  0  0  0  0  3  0  0  0  0  0  0
    6.3520   -8.9860    9.4850 C   0  0  0  0  0  3  0  0  0  0  0  0
    7.2290   -8.0870    8.8810 C   0  0  0  0  0  3  0  0  0  0  0  0
    7.6820   -6.9710    9.5870 C   0  0  0  0  0  3  0  0  0  0  0  0
   10.1180   -9.9000   16.3130 C   0  0  2  0  0  0  0  0  0  0  0  0
   10.7640  -11.1650   15.7040 C   0  0  0  0  0  2  0  0  0  0  0  0
    9.5000  -12.0060   16.0690 C   0  0  1  0  0  0  0  0  0  0  0  0
    9.0110  -10.7950   16.9240 C   0  0  0  0  0  2  0  0  0  0  0  0
   10.9930   -9.3250   17.3650 N   0  0  0  0  0  4  0  0  0  0  0  0
   11.8170   -8.8700   16.9490 H   0  0  0  0  0  0  0  0  0  0  0  0
   11.3340  -10.0410   18.0220 H   0  0  0  0  0  0  0  0  0  0  0  0
   10.5050   -8.6070   17.9130 H   0  0  0  0  0  0  0  0  0  0  0  0
    8.6700  -12.4470   14.8720 C   0  0  0  0  0  3  0  0  0  0  0  0
    8.4880  -13.8860   14.4700 C   0  0  0  0  0  2  0  0  0  0  0  0
    7.3030  -13.0730   14.9180 C   0  0  0  0  0  2  0  0  0  0  0  0
    9.8500  -13.1250   16.9180 O   0  0  0  0  0  0  0  0  0  0  0  0
    9.0560  -13.6930   16.9410 H   0  0  0  0  0  0  0  0  0  0  0  0
  1  6  1  0  0  0  0
  1 26  1  0  0  0  0
  2  1  2  0  0  0  0
  3  4  2  0  0  0  0
  3  2  1  0  0  0  0
  4  5  1  0  0  0  0
  5  6  2  0  0  0  0
  7  8  1  0  0  0  0
  7  4  1  0  0  0  0
  9  8  2  0  0  0  0
 10 11  1  0  0  0  0
 10  9  1  0  0  0  0
 11  7  2  0  0  0  0
 12 13  1  0  0  0  0
 12 10  1  0  0  0  0
 13 14  1  0  0  0  0
 14 19  1  0  0  0  0
 15 14  2  0  0  0  0
 15 16  1  0  0  0  0
 16 17  2  0  0  0  0
 17 18  1  0  0  0  0
 19  9  1  0  0  0  0
 19 18  2  0  0  0  0
 20 21  1  0  0  0  0
 20 11  1  0  0  0  0
 22 21  2  0  0  0  0
 23 22  1  0  0  0  0
 24 23  2  0  0  0  0
 24 25  1  0  0  0  0
 25 20  2  0  0  0  0
 26 29  1  0  0  0  0
 26 30  1  1  0  0  0
 27 28  1  0  0  0  0
 27 26  1  0  0  0  0
 28 37  1  1  0  0  0
 28 29  1  0  0  0  0
 30 33  1  0  0  0  0
 30 32  1  0  0  0  0
 31 30  1  0  0  0  0
 34 36  1  0  0  0  0
 34 28  1  0  0  0  0
 35 34  1  0  0  0  0
 35 36  1  0  0  0  0
 37 38  1  0  0  0  0
M  END
>  <minimizedAffinity>
-11.9912844

$$$$

 OpenBabel11232418563D

 38 44  0  0  1  0  0  0  0  0999 V2000
    8.9800   -9.2260   14.5970 C   0  0  0  0  0  0  0  0  0  0  0  0
    7.6650   -9.3200   14.0950 C   0  0  0  0  0  3  0  0  0  0  0  0
    7.2890   -8.7380   12.8780 C   0  0  0  0  0  3  0  0  0  0  0  0
    8.2230   -8.0620   12.0950 C   0  0  0  0  0  0  0  0  0  0  0  0
    9.5370   -7.9630   12.5520 C   0  0  0  0  0  3  0  0  0  0  0  0
    9.9020   -8.5330   13.7790 C   0  0  0  0  0  3  0  0  0  0  0  0
    7.7990   -7.4360   10.8590 C   0  0  0  0  0  0  0  0  0  0  0  0
    7.7590   -8.1370    9.6730 N   0  0  0  0  0  0  0  0  0  0  0  0
    7.3320   -7.2750    8.7780 C   0  0  0  0  0  0  0  0  0  0  0  0
    7.1180   -6.0480    9.3390 N   0  0  0  0  0  0  0  0  0  0  0  0
    7.3990   -6.1170   10.6840 C   0  0  0  0  0  0  0  0  0  0  0  0
    6.5990   -4.9320    8.5690 C   0  0  0  0  0  2  0  0  0  0  0  0
    6.8460   -5.0410    7.1510 O   0  0  0  0  0  0  0  0  0  0  0  0
    6.8420   -6.2990    6.6160 C   0  0  0  0  0  0  0  0  0  0  0  0
    6.6510   -6.4480    5.2540 C   0  0  0  0  0  3  0  0  0  0  0  0
    6.6600   -7.6460    4.6210 N   0  0  0  0  0  0  0  0  0  0  0  0
    6.8920   -8.7390    5.3810 C   0  0  0  0  0  3  0  0  0  0  0  0
    7.1150   -8.6930    6.7460 C   0  0  0  0  0  3  0  0  0  0  0  0
    7.0900   -7.4480    7.3660 C   0  0  0  0  0  0  0  0  0  0  0  0
    7.3210   -4.9880   11.5990 C   0  0  0  0  0  0  0  0  0  0  0  0
    6.0950   -4.6450   12.1830 C   0  0  0  0  0  3  0  0  0  0  0  0
    6.0140   -3.5730   13.0720 C   0  0  0  0  0  3  0  0  0  0  0  0
    7.1570   -2.8350   13.3790 C   0  0  0  0  0  3  0  0  0  0  0  0
    8.3790   -3.1660   12.7970 C   0  0  0  0  0  3  0  0  0  0  0  0
    8.4620   -4.2390   11.9080 C   0  0  0  0  0  3  0  0  0  0  0  0
    9.4230   -9.8610   15.9890 C   0  0  2  0  0  0  0  0  0  0  0  0
   10.5860  -10.8770   16.0530 C   0  0  0  0  0  2  0  0  0  0  0  0
    9.5860  -12.0210   16.4130 C   0  0  1  0  0  0  0  0  0  0  0  0
    8.4960  -10.9260   16.6250 C   0  0  0  0  0  2  0  0  0  0  0  0
    9.6700   -8.7300   16.9180 N   0  0  0  0  0  4  0  0  0  0  0  0
   10.4090   -8.1130   16.5570 H   0  0  0  0  0  0  0  0  0  0  0  0
    9.9620   -9.0500   17.8520 H   0  0  0  0  0  0  0  0  0  0  0  0
    8.8310   -8.1480   17.0370 H   0  0  0  0  0  0  0  0  0  0  0  0
    9.3910  -13.0550   15.3130 C   0  0  0  0  0  3  0  0  0  0  0  0
    9.4600  -14.5400   15.5440 C   0  0  0  0  0  2  0  0  0  0  0  0
    8.1700  -13.9060   15.0990 C   0  0  0  0  0  2  0  0  0  0  0  0
    9.9430  -12.6420   17.6710 O   0  0  0  0  0  0  0  0  0  0  0  0
    9.3980  -13.4510   17.7270 H   0  0  0  0  0  0  0  0  0  0  0  0
  1 26  1  0  0  0  0
  2  1  1  0  0  0  0
  3  2  2  0  0  0  0
  4  5  2  0  0  0  0
  4  3  1  0  0  0  0
  5  6  1  0  0  0  0
  6  1  2  0  0  0  0
  7  4  1  0  0  0  0
  8  7  1  0  0  0  0
  9 10  1  0  0  0  0
  9  8  2  0  0  0  0
 10 11  1  0  0  0  0
 11  7  2  0  0  0  0
 11 20  1  0  0  0  0
 12 10  1  0  0  0  0
 13 12  1  0  0  0  0
 14 13  1  0  0  0  0
 14 19  1  0  0  0  0
 15 14  2  0  0  0  0
 16 15  1  0  0  0  0
 16 17  2  0  0  0  0
 17 18  1  0  0  0  0
 18 19  2  0  0  0  0
 19  9  1  0  0  0  0
 20 25  2  0  0  0  0
 20 21  1  0  0  0  0
 21 22  2  0  0  0  0
 22 23  1  0  0  0  0
 24 23  2  0  0  0  0
 25 24  1  0  0  0  0
 26 27  1  0  0  0  0
 26 29  1  0  0  0  0
 26 30  1  1  0  0  0
 27 28  1  0  0  0  0
 28 29  1  0  0  0  0
 28 37  1  1  0  0  0
 30 33  1  0  0  0  0
 30 32  1  0  0  0  0
 31 30  1  0  0  0  0
 34 35  1  0  0  0  0
 34 28  1  0  0  0  0
 36 34  1  0  0  0  0
 36 35  1  0  0  0  0
 37 38  1  0  0  0  0
M  END
>  <minimizedAffinity>
-11.9874601

$$$$

 OpenBabel11232418563D

 38 44  0  0  1  0  0  0  0  0999 V2000
    8.2860   -7.1680   13.2750 C   0  0  0  0  0  0  0  0  0  0  0  0
    9.3800   -8.0030   12.9720 C   0  0  0  0  0  3  0  0  0  0  0  0
    9.3580   -9.3810   13.2220 C   0  0  0  0  0  3  0  0  0  0  0  0
    8.2240   -9.9870   13.7600 C   0  0  0  0  0  0  0  0  0  0  0  0
    7.1160   -9.1950   14.0570 C   0  0  0  0  0  3  0  0  0  0  0  0
    7.1510   -7.8140   13.8200 C   0  0  0  0  0  3  0  0  0  0  0  0
    8.2410  -11.4080   14.0450 C   0  0  0  0  0  0  0  0  0  0  0  0
    7.4790  -12.2980   13.3200 N   0  0  0  0  0  0  0  0  0  0  0  0
    7.7400  -13.4770   13.8370 C   0  0  0  0  0  0  0  0  0  0  0  0
    8.6210  -13.3740   14.8770 N   0  0  0  0  0  0  0  0  0  0  0  0
    8.9750  -12.0530   15.0320 C   0  0  0  0  0  0  0  0  0  0  0  0
    9.1080  -14.5410   15.5880 C   0  0  0  0  0  2  0  0  0  0  0  0
    8.2270  -15.6820   15.5040 O   0  0  0  0  0  0  0  0  0  0  0  0
    7.5230  -15.8360   14.3410 C   0  0  0  0  0  0  0  0  0  0  0  0
    7.0080  -17.0810   14.0290 C   0  0  0  0  0  3  0  0  0  0  0  0
    6.2710  -17.3330   12.9210 N   0  0  0  0  0  0  0  0  0  0  0  0
    6.0220  -16.2880   12.1000 C   0  0  0  0  0  3  0  0  0  0  0  0
    6.4740  -15.0010   12.3350 C   0  0  0  0  0  3  0  0  0  0  0  0
    7.2360  -14.7790   13.4780 C   0  0  0  0  0  0  0  0  0  0  0  0
    9.8700  -11.5600   16.0680 C   0  0  0  0  0  0  0  0  0  0  0  0
    9.3660  -11.2460   17.3360 C   0  0  0  0  0  3  0  0  0  0  0  0
   10.2200  -10.7860   18.3400 C   0  0  0  0  0  3  0  0  0  0  0  0
   11.5810  -10.6330   18.0800 C   0  0  0  0  0  3  0  0  0  0  0  0
   12.0890  -10.9370   16.8180 C   0  0  0  0  0  3  0  0  0  0  0  0
   11.2370  -11.3990   15.8140 C   0  0  0  0  0  3  0  0  0  0  0  0
    8.2990   -5.5960   13.0200 C   0  0  2  0  0  0  0  0  0  0  0  0
    6.9790   -4.8300   12.7740 C   0  0  0  0  0  2  0  0  0  0  0  0
    7.3850   -4.5750   11.2880 C   0  0  1  0  0  0  0  0  0  0  0  0
    8.8130   -5.0900   11.6500 C   0  0  0  0  0  2  0  0  0  0  0  0
    9.0520   -4.9840   14.1430 N   0  0  0  0  0  4  0  0  0  0  0  0
    8.6030   -5.1940   15.0440 H   0  0  0  0  0  0  0  0  0  0  0  0
    9.1120   -3.9600   14.0590 H   0  0  0  0  0  0  0  0  0  0  0  0
   10.0120   -5.3490   14.1980 H   0  0  0  0  0  0  0  0  0  0  0  0
    6.5580   -5.3460   10.2680 C   0  0  0  0  0  3  0  0  0  0  0  0
    6.6150   -5.0900    8.7870 C   0  0  0  0  0  2  0  0  0  0  0  0
    7.0630   -6.4170    9.3410 C   0  0  0  0  0  2  0  0  0  0  0  0
    7.4090   -3.1580   10.9940 O   0  0  0  0  0  0  0  0  0  0  0  0
    7.4820   -3.0950   10.0220 H   0  0  0  0  0  0  0  0  0  0  0  0
  1  6  1  0  0  0  0
  2  3  1  0  0  0  0
  2  1  2  0  0  0  0
  3  4  2  0  0  0  0
  4  7  1  0  0  0  0
  4  5  1  0  0  0  0
  6  5  2  0  0  0  0
  7 11  2  0  0  0  0
  8  9  2  0  0  0  0
  8  7  1  0  0  0  0
  9 10  1  0  0  0  0
 10 11  1  0  0  0  0
 10 12  1  0  0  0  0
 11 20  1  0  0  0  0
 13 12  1  0  0  0  0
 14 13  1  0  0  0  0
 15 14  1  0  0  0  0
 16 15  2  0  0  0  0
 17 18  2  0  0  0  0
 17 16  1  0  0  0  0
 18 19  1  0  0  0  0
 19  9  1  0  0  0  0
 19 14  2  0  0  0  0
 20 21  1  0  0  0  0
 21 22  2  0  0  0  0
 23 22  1  0  0  0  0
 24 23  2  0  0  0  0
 25 20  2  0  0  0  0
 25 24  1  0  0  0  0
 26  1  1  0  0  0  0
 26 30  1  1  0  0  0
 27 26  1  0  0  0  0
 28 37  1  6  0  0  0
 28 29  1  0  0  0  0
 28 27  1  0  0  0  0
 29 26  1  0  0  0  0
 30 33  1  0  0  0  0
 30 31  1  0  0  0  0
 32 30  1  0  0  0  0
 34 28  1  0  0  0  0
 35 36  1  0  0  0  0
 35 34  1  0  0  0  0
 36 34  1  0  0  0  0
 38 37  1  0  0  0  0
M  END
>  <minimizedAffinity>
-11.7687168

$$$$

 OpenBabel11232418563D

 38 44  0  0  1  0  0  0  0  0999 V2000
    8.6700   -9.8220   14.0530 C   0  0  0  0  0  0  0  0  0  0  0  0
    9.6380   -9.2220   13.2210 C   0  0  0  0  0  3  0  0  0  0  0  0
    9.2890   -8.4890   12.0810 C   0  0  0  0  0  3  0  0  0  0  0  0
    7.9500   -8.3000   11.7390 C   0  0  0  0  0  0  0  0  0  0  0  0
    6.9650   -8.8650   12.5480 C   0  0  0  0  0  3  0  0  0  0  0  0
    7.3220   -9.6120   13.6790 C   0  0  0  0  0  3  0  0  0  0  0  0
    7.6180   -7.5700   10.5330 C   0  0  0  0  0  0  0  0  0  0  0  0
    7.5830   -8.1890    9.3020 N   0  0  0  0  0  0  0  0  0  0  0  0
    7.2480   -7.2460    8.4510 C   0  0  0  0  0  0  0  0  0  0  0  0
    7.0880   -6.0450    9.0850 N   0  0  0  0  0  0  0  0  0  0  0  0
    7.3080   -6.2190   10.4320 C   0  0  0  0  0  0  0  0  0  0  0  0
    6.6720   -4.8520    8.3720 C   0  0  0  0  0  2  0  0  0  0  0  0
    6.9700   -4.8850    6.9600 O   0  0  0  0  0  0  0  0  0  0  0  0
    6.9100   -6.1030    6.3420 C   0  0  0  0  0  0  0  0  0  0  0  0
    6.7670   -6.1520    4.9670 C   0  0  0  0  0  3  0  0  0  0  0  0
    6.7270   -7.3040    4.2570 N   0  0  0  0  0  0  0  0  0  0  0  0
    6.8590   -8.4570    4.9500 C   0  0  0  0  0  3  0  0  0  0  0  0
    7.0280   -8.5130    6.3230 C   0  0  0  0  0  3  0  0  0  0  0  0
    7.0540   -7.3110    7.0230 C   0  0  0  0  0  0  0  0  0  0  0  0
    7.2620   -5.1480   11.4160 C   0  0  0  0  0  0  0  0  0  0  0  0
    6.0400   -4.7790   11.9900 C   0  0  0  0  0  3  0  0  0  0  0  0
    5.9890   -3.7630   12.9460 C   0  0  0  0  0  3  0  0  0  0  0  0
    7.1590   -3.1080   13.3290 C   0  0  0  0  0  3  0  0  0  0  0  0
    8.3780   -3.4660   12.7570 C   0  0  0  0  0  3  0  0  0  0  0  0
    8.4310   -4.4830   11.8020 C   0  0  0  0  0  3  0  0  0  0  0  0
    9.0470  -10.6780   15.3420 C   0  0  2  0  0  0  0  0  0  0  0  0
    8.5720  -10.2340   16.7450 C   0  0  0  0  0  2  0  0  0  0  0  0
   10.0420   -9.8940   17.1500 C   0  0  1  0  0  0  0  0  0  0  0  0
   10.5090  -10.6170   15.8490 C   0  0  0  0  0  2  0  0  0  0  0  0
    8.6240  -12.0750   15.0690 N   0  0  0  0  0  4  0  0  0  0  0  0
    7.6120  -12.1240   14.8920 H   0  0  0  0  0  0  0  0  0  0  0  0
    8.8320  -12.7050   15.8560 H   0  0  0  0  0  0  0  0  0  0  0  0
    9.0880  -12.4550   14.2350 H   0  0  0  0  0  0  0  0  0  0  0  0
   10.3220   -8.4070   17.3110 C   0  0  0  0  0  3  0  0  0  0  0  0
   11.6050   -7.8570   17.8710 C   0  0  0  0  0  2  0  0  0  0  0  0
   11.2240   -7.5730   16.4430 C   0  0  0  0  0  2  0  0  0  0  0  0
   10.4400  -10.6420   18.3240 O   0  0  0  0  0  0  0  0  0  0  0  0
   11.2800  -10.2390   18.6170 H   0  0  0  0  0  0  0  0  0  0  0  0
  1 26  1  0  0  0  0
  2  1  2  0  0  0  0
  3  2  1  0  0  0  0
  4  3  2  0  0  0  0
  4  5  1  0  0  0  0
  5  6  2  0  0  0  0
  6  1  1  0  0  0  0
  7  4  1  0  0  0  0
  8  7  1  0  0  0  0
  9 10  1  0  0  0  0
  9  8  2  0  0  0  0
 10 11  1  0  0  0  0
 11  7  2  0  0  0  0
 11 20  1  0  0  0  0
 12 10  1  0  0  0  0
 13 12  1  0  0  0  0
 14 13  1  0  0  0  0
 14 19  1  0  0  0  0
 15 14  2  0  0  0  0
 16 17  2  0  0  0  0
 16 15  1  0  0  0  0
 17 18  1  0  0  0  0
 18 19  2  0  0  0  0
 19  9  1  0  0  0  0
 20 25  2  0  0  0  0
 20 21  1  0  0  0  0
 21 22  2  0  0  0  0
 22 23  1  0  0  0  0
 24 23  2  0  0  0  0
 25 24  1  0  0  0  0
 26 30  1  6  0  0  0
 26 29  1  0  0  0  0
 26 27  1  0  0  0  0
 27 28  1  0  0  0  0
 28 34  1  0  0  0  0
 28 37  1  1  0  0  0
 29 28  1  0  0  0  0
 30 32  1  0  0  0  0
 31 30  1  0  0  0  0
 33 30  1  0  0  0  0
 34 35  1  0  0  0  0
 36 34  1  0  0  0  0
 36 35  1  0  0  0  0
 37 38  1  0  0  0  0
M  END
>  <minimizedAffinity>
-11.7602205

$$$$

 OpenBabel11232418563D

 38 44  0  0  1  0  0  0  0  0999 V2000
    8.5640   -9.2980   13.6050 C   0  0  0  0  0  0  0  0  0  0  0  0
    9.5080   -8.6320   12.7970 C   0  0  0  0  0  3  0  0  0  0  0  0
    9.1500   -7.5800   11.9460 C   0  0  0  0  0  3  0  0  0  0  0  0
    7.8320   -7.1280   11.8890 C   0  0  0  0  0  0  0  0  0  0  0  0
    6.8740   -7.7530   12.6870 C   0  0  0  0  0  3  0  0  0  0  0  0
    7.2360   -8.8160   13.5240 C   0  0  0  0  0  3  0  0  0  0  0  0
    7.4810   -6.0640   10.9710 C   0  0  0  0  0  0  0  0  0  0  0  0
    7.4130   -4.7500   11.3830 N   0  0  0  0  0  0  0  0  0  0  0  0
    7.0790   -4.0700   10.3100 C   0  0  0  0  0  0  0  0  0  0  0  0
    6.9100   -4.8970    9.2350 N   0  0  0  0  0  0  0  0  0  0  0  0
    7.1730   -6.1910    9.6230 C   0  0  0  0  0  0  0  0  0  0  0  0
    6.5840   -4.3850    7.9170 C   0  0  0  0  0  2  0  0  0  0  0  0
    5.9370   -3.0940    7.9390 O   0  0  0  0  0  0  0  0  0  0  0  0
    6.3080   -2.2320    8.9330 C   0  0  0  0  0  0  0  0  0  0  0  0
    6.0610   -0.8800    8.7740 C   0  0  0  0  0  3  0  0  0  0  0  0
    6.3610    0.0520    9.7100 N   0  0  0  0  0  0  0  0  0  0  0  0
    6.9120   -0.3900   10.8620 C   0  0  0  0  0  3  0  0  0  0  0  0
    7.1790   -1.7220   11.1250 C   0  0  0  0  0  3  0  0  0  0  0  0
    6.8670   -2.6530   10.1390 C   0  0  0  0  0  0  0  0  0  0  0  0
    7.0580   -7.3490    8.7490 C   0  0  0  0  0  0  0  0  0  0  0  0
    7.6570   -7.3330    7.4840 C   0  0  0  0  0  3  0  0  0  0  0  0
    7.5650   -8.4450    6.6460 C   0  0  0  0  0  3  0  0  0  0  0  0
    6.8680   -9.5770    7.0660 C   0  0  0  0  0  3  0  0  0  0  0  0
    6.2630   -9.5980    8.3210 C   0  0  0  0  0  3  0  0  0  0  0  0
    6.3560   -8.4870    9.1620 C   0  0  0  0  0  3  0  0  0  0  0  0
    8.9460  -10.5110   14.5630 C   0  0  2  0  0  0  0  0  0  0  0  0
    8.4980  -10.5140   16.0430 C   0  0  0  0  0  2  0  0  0  0  0  0
    9.9780  -10.3290   16.5060 C   0  0  1  0  0  0  0  0  0  0  0  0
   10.4150  -10.6230   15.0380 C   0  0  0  0  0  2  0  0  0  0  0  0
    8.4980  -11.7530   13.8840 N   0  0  0  0  0  4  0  0  0  0  0  0
    7.4830  -11.7360   13.7190 H   0  0  0  0  0  0  0  0  0  0  0  0
    8.7070  -12.5960   14.4370 H   0  0  0  0  0  0  0  0  0  0  0  0
    8.9450  -11.8650   12.9650 H   0  0  0  0  0  0  0  0  0  0  0  0
   10.2830   -8.9650   17.1090 C   0  0  0  0  0  3  0  0  0  0  0  0
   11.5470   -8.6510   17.8620 C   0  0  0  0  0  2  0  0  0  0  0  0
   11.2480   -7.9480   16.5650 C   0  0  0  0  0  2  0  0  0  0  0  0
   10.3820  -11.4040   17.3880 O   0  0  0  0  0  0  0  0  0  0  0  0
   11.2320  -11.1180   17.7750 H   0  0  0  0  0  0  0  0  0  0  0  0
  1 26  1  0  0  0  0
  2  1  2  0  0  0  0
  3  2  1  0  0  0  0
  4  3  2  0  0  0  0
  4  5  1  0  0  0  0
  5  6  2  0  0  0  0
  6  1  1  0  0  0  0
  7  8  1  0  0  0  0
  7  4  1  0  0  0  0
  9  8  2  0  0  0  0
 10 11  1  0  0  0  0
 10  9  1  0  0  0  0
 11  7  2  0  0  0  0
 12 13  1  0  0  0  0
 12 10  1  0  0  0  0
 13 14  1  0  0  0  0
 14 19  1  0  0  0  0
 15 14  2  0  0  0  0
 15 16  1  0  0  0  0
 16 17  2  0  0  0  0
 17 18  1  0  0  0  0
 19  9  1  0  0  0  0
 19 18  2  0  0  0  0
 20 25  1  0  0  0  0
 20 11  1  0  0  0  0
 21 20  2  0  0  0  0
 22 23  2  0  0  0  0
 22 21  1  0  0  0  0
 23 24  1  0  0  0  0
 24 25  2  0  0  0  0
 26 30  1  6  0  0  0
 26 29  1  0  0  0  0
 26 27  1  0  0  0  0
 27 28  1  0  0  0  0
 28 34  1  0  0  0  0
 28 37  1  1  0  0  0
 29 28  1  0  0  0  0
 30 32  1  0  0  0  0
 31 30  1  0  0  0  0
 33 30  1  0  0  0  0
 34 35  1  0  0  0  0
 36 34  1  0  0  0  0
 36 35  1  0  0  0  0
 37 38  1  0  0  0  0
M  END
>  <minimizedAffinity>
-11.7218199

$$$$

 OpenBabel11232418563D

 38 44  0  0  1  0  0  0  0  0999 V2000
    7.3690   -5.3570   11.8940 C   0  0  0  0  0  0  0  0  0  0  0  0
    8.4310   -6.2030   11.5130 C   0  0  0  0  0  3  0  0  0  0  0  0
    8.6230   -7.4640   12.0910 C   0  0  0  0  0  3  0  0  0  0  0  0
    7.7410   -7.9440   13.0580 C   0  0  0  0  0  0  0  0  0  0  0  0
    6.6700   -7.1410   13.4480 C   0  0  0  0  0  3  0  0  0  0  0  0
    6.4930   -5.8740   12.8770 C   0  0  0  0  0  3  0  0  0  0  0  0
    7.9850   -9.2350   13.6680 C   0  0  0  0  0  0  0  0  0  0  0  0
    7.4170  -10.3870   13.1690 N   0  0  0  0  0  0  0  0  0  0  0  0
    7.8500  -11.3510   13.9500 C   0  0  0  0  0  0  0  0  0  0  0  0
    8.6530  -10.8590   14.9400 N   0  0  0  0  0  0  0  0  0  0  0  0
    8.7720   -9.4970   14.7830 C   0  0  0  0  0  0  0  0  0  0  0  0
    9.2980  -11.7280   15.9080 C   0  0  0  0  0  2  0  0  0  0  0  0
    8.6260  -12.9930   16.0900 O   0  0  0  0  0  0  0  0  0  0  0  0
    8.0120  -13.5310   14.9940 C   0  0  0  0  0  0  0  0  0  0  0  0
    7.7280  -14.8850   14.9810 C   0  0  0  0  0  3  0  0  0  0  0  0
    7.0960  -15.5100   13.9590 N   0  0  0  0  0  0  0  0  0  0  0  0
    6.7110  -14.7430   12.9150 C   0  0  0  0  0  3  0  0  0  0  0  0
    6.9280  -13.3780   12.8430 C   0  0  0  0  0  3  0  0  0  0  0  0
    7.5890  -12.7690   13.9050 C   0  0  0  0  0  0  0  0  0  0  0  0
    9.5230   -8.6300   15.6780 C   0  0  0  0  0  0  0  0  0  0  0  0
   10.8400   -8.9540   16.0250 C   0  0  0  0  0  3  0  0  0  0  0  0
   11.5720   -8.1200   16.8700 C   0  0  0  0  0  3  0  0  0  0  0  0
   10.9900   -6.9590   17.3780 C   0  0  0  0  0  3  0  0  0  0  0  0
    9.6770   -6.6330   17.0420 C   0  0  0  0  0  3  0  0  0  0  0  0
    8.9440   -7.4650   16.1950 C   0  0  0  0  0  3  0  0  0  0  0  0
    7.1460   -3.9110   11.2650 C   0  0  2  0  0  0  0  0  0  0  0  0
    8.1240   -2.7570   11.5820 C   0  0  0  0  0  2  0  0  0  0  0  0
    7.0180   -2.0260   12.4070 C   0  0  1  0  0  0  0  0  0  0  0  0
    5.9910   -3.0480   11.8280 C   0  0  0  0  0  2  0  0  0  0  0  0
    7.0200   -4.0950    9.7970 N   0  0  0  0  0  4  0  0  0  0  0  0
    7.8690   -4.5260    9.4070 H   0  0  0  0  0  0  0  0  0  0  0  0
    6.8710   -3.2040    9.3040 H   0  0  0  0  0  0  0  0  0  0  0  0
    6.2380   -4.7180    9.5590 H   0  0  0  0  0  0  0  0  0  0  0  0
    7.2670   -1.9990   13.9090 C   0  0  0  0  0  3  0  0  0  0  0  0
    8.0480   -0.9170   14.6040 C   0  0  0  0  0  2  0  0  0  0  0  0
    6.5860   -1.1050   14.9080 C   0  0  0  0  0  2  0  0  0  0  0  0
    6.7740   -0.6990   11.8830 O   0  0  0  0  0  0  0  0  0  0  0  0
    6.2230   -0.2510   12.5540 H   0  0  0  0  0  0  0  0  0  0  0  0
  1  6  1  0  0  0  0
  2  1  2  0  0  0  0
  2  3  1  0  0  0  0
  3  4  2  0  0  0  0
  4  5  1  0  0  0  0
  4  7  1  0  0  0  0
  6  5  2  0  0  0  0
  7 11  2  0  0  0  0
  8  7  1  0  0  0  0
  8  9  2  0  0  0  0
  9 10  1  0  0  0  0
 10 12  1  0  0  0  0
 11 10  1  0  0  0  0
 11 20  1  0  0  0  0
 12 13  1  0  0  0  0
 14 13  1  0  0  0  0
 15 14  1  0  0  0  0
 16 15  2  0  0  0  0
 17 16  1  0  0  0  0
 18 17  2  0  0  0  0
 18 19  1  0  0  0  0
 19  9  1  0  0  0  0
 19 14  2  0  0  0  0
 20 21  2  0  0  0  0
 20 25  1  0  0  0  0
 21 22  1  0  0  0  0
 22 23  2  0  0  0  0
 24 23  1  0  0  0  0
 25 24  2  0  0  0  0
 26 30  1  6  0  0  0
 26 27  1  0  0  0  0
 26 29  1  0  0  0  0
 26  1  1  0  0  0  0
 27 28  1  0  0  0  0
 28 37  1  6  0  0  0
 28 34  1  0  0  0  0
 29 28  1  0  0  0  0
 31 30  1  0  0  0  0
 32 30  1  0  0  0  0
 33 30  1  0  0  0  0
 34 35  1  0  0  0  0
 34 36  1  0  0  0  0
 35 36  1  0  0  0  0
 37 38  1  0  0  0  0
M  END
>  <minimizedAffinity>
-11.3672647

$$$$
