
 OpenBabel11232418563D

 38 44  0  0  1  0  0  0  0  0999 V2000
    7.3690   -5.3570   11.8940 C   0  0  0  0  0  0  0  0  0  0  0  0
    8.4310   -6.2030   11.5130 C   0  0  0  0  0  3  0  0  0  0  0  0
    8.6230   -7.4640   12.0910 C   0  0  0  0  0  3  0  0  0  0  0  0
    7.7410   -7.9440   13.0580 C   0  0  0  0  0  0  0  0  0  0  0  0
    6.6700   -7.1410   13.4480 C   0  0  0  0  0  3  0  0  0  0  0  0
    6.4930   -5.8740   12.8770 C   0  0  0  0  0  3  0  0  0  0  0  0
    7.9850   -9.2350   13.6680 C   0  0  0  0  0  0  0  0  0  0  0  0
    7.4170  -10.3870   13.1690 N   0  0  0  0  0  0  0  0  0  0  0  0
    7.8500  -11.3510   13.9500 C   0  0  0  0  0  0  0  0  0  0  0  0
    8.6530  -10.8590   14.9400 N   0  0  0  0  0  0  0  0  0  0  0  0
    8.7720   -9.4970   14.7830 C   0  0  0  0  0  0  0  0  0  0  0  0
    9.2980  -11.7280   15.9080 C   0  0  0  0  0  2  0  0  0  0  0  0
    8.6260  -12.9930   16.0900 O   0  0  0  0  0  0  0  0  0  0  0  0
    8.0120  -13.5310   14.9940 C   0  0  0  0  0  0  0  0  0  0  0  0
    7.7280  -14.8850   14.9810 C   0  0  0  0  0  3  0  0  0  0  0  0
    7.0960  -15.5100   13.9590 N   0  0  0  0  0  0  0  0  0  0  0  0
    6.7110  -14.7430   12.9150 C   0  0  0  0  0  3  0  0  0  0  0  0
    6.9280  -13.3780   12.8430 C   0  0  0  0  0  3  0  0  0  0  0  0
    7.5890  -12.7690   13.9050 C   0  0  0  0  0  0  0  0  0  0  0  0
    9.5230   -8.6300   15.6780 C   0  0  0  0  0  0  0  0  0  0  0  0
   10.8400   -8.9540   16.0250 C   0  0  0  0  0  3  0  0  0  0  0  0
   11.5720   -8.1200   16.8700 C   0  0  0  0  0  3  0  0  0  0  0  0
   10.9900   -6.9590   17.3780 C   0  0  0  0  0  3  0  0  0  0  0  0
    9.6770   -6.6330   17.0420 C   0  0  0  0  0  3  0  0  0  0  0  0
    8.9440   -7.4650   16.1950 C   0  0  0  0  0  3  0  0  0  0  0  0
    7.1460   -3.9110   11.2650 C   0  0  2  0  0  0  0  0  0  0  0  0
    8.1240   -2.7570   11.5820 C   0  0  0  0  0  2  0  0  0  0  0  0
    7.0180   -2.0260   12.4070 C   0  0  1  0  0  0  0  0  0  0  0  0
    5.9910   -3.0480   11.8280 C   0  0  0  0  0  2  0  0  0  0  0  0
    7.0200   -4.0950    9.7970 N   0  0  0  0  0  4  0  0  0  0  0  0
    7.8690   -4.5260    9.4070 H   0  0  0  0  0  0  0  0  0  0  0  0
    6.8710   -3.2040    9.3040 H   0  0  0  0  0  0  0  0  0  0  0  0
    6.2380   -4.7180    9.5590 H   0  0  0  0  0  0  0  0  0  0  0  0
    7.2670   -1.9990   13.9090 C   0  0  0  0  0  3  0  0  0  0  0  0
    8.0480   -0.9170   14.6040 C   0  0  0  0  0  2  0  0  0  0  0  0
    6.5860   -1.1050   14.9080 C   0  0  0  0  0  2  0  0  0  0  0  0
    6.7740   -0.6990   11.8830 O   0  0  0  0  0  0  0  0  0  0  0  0
    6.2230   -0.2510   12.5540 H   0  0  0  0  0  0  0  0  0  0  0  0
  1  6  1  0  0  0  0
  2  1  2  0  0  0  0
  2  3  1  0  0  0  0
  3  4  2  0  0  0  0
  4  5  1  0  0  0  0
  4  7  1  0  0  0  0
  6  5  2  0  0  0  0
  7 11  2  0  0  0  0
  8  7  1  0  0  0  0
  8  9  2  0  0  0  0
  9 10  1  0  0  0  0
 10 12  1  0  0  0  0
 11 10  1  0  0  0  0
 11 20  1  0  0  0  0
 12 13  1  0  0  0  0
 14 13  1  0  0  0  0
 15 14  1  0  0  0  0
 16 15  2  0  0  0  0
 17 16  1  0  0  0  0
 18 17  2  0  0  0  0
 18 19  1  0  0  0  0
 19  9  1  0  0  0  0
 19 14  2  0  0  0  0
 20 21  2  0  0  0  0
 20 25  1  0  0  0  0
 21 22  1  0  0  0  0
 22 23  2  0  0  0  0
 24 23  1  0  0  0  0
 25 24  2  0  0  0  0
 26 30  1  6  0  0  0
 26 27  1  0  0  0  0
 26 29  1  0  0  0  0
 26  1  1  0  0  0  0
 27 28  1  0  0  0  0
 28 37  1  6  0  0  0
 28 34  1  0  0  0  0
 29 28  1  0  0  0  0
 31 30  1  0  0  0  0
 32 30  1  0  0  0  0
 33 30  1  0  0  0  0
 34 35  1  0  0  0  0
 34 36  1  0  0  0  0
 35 36  1  0  0  0  0
 37 38  1  0  0  0  0
M  END
>  <minimizedAffinity>
-11.3672647

$$$$
