
 OpenBabel11232418563D

 38 44  0  0  1  0  0  0  0  0999 V2000
    8.2860   -7.1680   13.2750 C   0  0  0  0  0  0  0  0  0  0  0  0
    9.3800   -8.0030   12.9720 C   0  0  0  0  0  3  0  0  0  0  0  0
    9.3580   -9.3810   13.2220 C   0  0  0  0  0  3  0  0  0  0  0  0
    8.2240   -9.9870   13.7600 C   0  0  0  0  0  0  0  0  0  0  0  0
    7.1160   -9.1950   14.0570 C   0  0  0  0  0  3  0  0  0  0  0  0
    7.1510   -7.8140   13.8200 C   0  0  0  0  0  3  0  0  0  0  0  0
    8.2410  -11.4080   14.0450 C   0  0  0  0  0  0  0  0  0  0  0  0
    7.4790  -12.2980   13.3200 N   0  0  0  0  0  0  0  0  0  0  0  0
    7.7400  -13.4770   13.8370 C   0  0  0  0  0  0  0  0  0  0  0  0
    8.6210  -13.3740   14.8770 N   0  0  0  0  0  0  0  0  0  0  0  0
    8.9750  -12.0530   15.0320 C   0  0  0  0  0  0  0  0  0  0  0  0
    9.1080  -14.5410   15.5880 C   0  0  0  0  0  2  0  0  0  0  0  0
    8.2270  -15.6820   15.5040 O   0  0  0  0  0  0  0  0  0  0  0  0
    7.5230  -15.8360   14.3410 C   0  0  0  0  0  0  0  0  0  0  0  0
    7.0080  -17.0810   14.0290 C   0  0  0  0  0  3  0  0  0  0  0  0
    6.2710  -17.3330   12.9210 N   0  0  0  0  0  0  0  0  0  0  0  0
    6.0220  -16.2880   12.1000 C   0  0  0  0  0  3  0  0  0  0  0  0
    6.4740  -15.0010   12.3350 C   0  0  0  0  0  3  0  0  0  0  0  0
    7.2360  -14.7790   13.4780 C   0  0  0  0  0  0  0  0  0  0  0  0
    9.8700  -11.5600   16.0680 C   0  0  0  0  0  0  0  0  0  0  0  0
    9.3660  -11.2460   17.3360 C   0  0  0  0  0  3  0  0  0  0  0  0
   10.2200  -10.7860   18.3400 C   0  0  0  0  0  3  0  0  0  0  0  0
   11.5810  -10.6330   18.0800 C   0  0  0  0  0  3  0  0  0  0  0  0
   12.0890  -10.9370   16.8180 C   0  0  0  0  0  3  0  0  0  0  0  0
   11.2370  -11.3990   15.8140 C   0  0  0  0  0  3  0  0  0  0  0  0
    8.2990   -5.5960   13.0200 C   0  0  2  0  0  0  0  0  0  0  0  0
    6.9790   -4.8300   12.7740 C   0  0  0  0  0  2  0  0  0  0  0  0
    7.3850   -4.5750   11.2880 C   0  0  1  0  0  0  0  0  0  0  0  0
    8.8130   -5.0900   11.6500 C   0  0  0  0  0  2  0  0  0  0  0  0
    9.0520   -4.9840   14.1430 N   0  0  0  0  0  4  0  0  0  0  0  0
    8.6030   -5.1940   15.0440 H   0  0  0  0  0  0  0  0  0  0  0  0
    9.1120   -3.9600   14.0590 H   0  0  0  0  0  0  0  0  0  0  0  0
   10.0120   -5.3490   14.1980 H   0  0  0  0  0  0  0  0  0  0  0  0
    6.5580   -5.3460   10.2680 C   0  0  0  0  0  3  0  0  0  0  0  0
    6.6150   -5.0900    8.7870 C   0  0  0  0  0  2  0  0  0  0  0  0
    7.0630   -6.4170    9.3410 C   0  0  0  0  0  2  0  0  0  0  0  0
    7.4090   -3.1580   10.9940 O   0  0  0  0  0  0  0  0  0  0  0  0
    7.4820   -3.0950   10.0220 H   0  0  0  0  0  0  0  0  0  0  0  0
  1  6  1  0  0  0  0
  2  3  1  0  0  0  0
  2  1  2  0  0  0  0
  3  4  2  0  0  0  0
  4  7  1  0  0  0  0
  4  5  1  0  0  0  0
  6  5  2  0  0  0  0
  7 11  2  0  0  0  0
  8  9  2  0  0  0  0
  8  7  1  0  0  0  0
  9 10  1  0  0  0  0
 10 11  1  0  0  0  0
 10 12  1  0  0  0  0
 11 20  1  0  0  0  0
 13 12  1  0  0  0  0
 14 13  1  0  0  0  0
 15 14  1  0  0  0  0
 16 15  2  0  0  0  0
 17 18  2  0  0  0  0
 17 16  1  0  0  0  0
 18 19  1  0  0  0  0
 19  9  1  0  0  0  0
 19 14  2  0  0  0  0
 20 21  1  0  0  0  0
 21 22  2  0  0  0  0
 23 22  1  0  0  0  0
 24 23  2  0  0  0  0
 25 20  2  0  0  0  0
 25 24  1  0  0  0  0
 26  1  1  0  0  0  0
 26 30  1  1  0  0  0
 27 26  1  0  0  0  0
 28 37  1  6  0  0  0
 28 29  1  0  0  0  0
 28 27  1  0  0  0  0
 29 26  1  0  0  0  0
 30 33  1  0  0  0  0
 30 31  1  0  0  0  0
 32 30  1  0  0  0  0
 34 28  1  0  0  0  0
 35 36  1  0  0  0  0
 35 34  1  0  0  0  0
 36 34  1  0  0  0  0
 38 37  1  0  0  0  0
M  END
>  <minimizedAffinity>
-11.7687168

$$$$
