
 OpenBabel11232418563D

 38 44  0  0  1  0  0  0  0  0999 V2000
    8.9800   -9.2260   14.5970 C   0  0  0  0  0  0  0  0  0  0  0  0
    7.6650   -9.3200   14.0950 C   0  0  0  0  0  3  0  0  0  0  0  0
    7.2890   -8.7380   12.8780 C   0  0  0  0  0  3  0  0  0  0  0  0
    8.2230   -8.0620   12.0950 C   0  0  0  0  0  0  0  0  0  0  0  0
    9.5370   -7.9630   12.5520 C   0  0  0  0  0  3  0  0  0  0  0  0
    9.9020   -8.5330   13.7790 C   0  0  0  0  0  3  0  0  0  0  0  0
    7.7990   -7.4360   10.8590 C   0  0  0  0  0  0  0  0  0  0  0  0
    7.7590   -8.1370    9.6730 N   0  0  0  0  0  0  0  0  0  0  0  0
    7.3320   -7.2750    8.7780 C   0  0  0  0  0  0  0  0  0  0  0  0
    7.1180   -6.0480    9.3390 N   0  0  0  0  0  0  0  0  0  0  0  0
    7.3990   -6.1170   10.6840 C   0  0  0  0  0  0  0  0  0  0  0  0
    6.5990   -4.9320    8.5690 C   0  0  0  0  0  2  0  0  0  0  0  0
    6.8460   -5.0410    7.1510 O   0  0  0  0  0  0  0  0  0  0  0  0
    6.8420   -6.2990    6.6160 C   0  0  0  0  0  0  0  0  0  0  0  0
    6.6510   -6.4480    5.2540 C   0  0  0  0  0  3  0  0  0  0  0  0
    6.6600   -7.6460    4.6210 N   0  0  0  0  0  0  0  0  0  0  0  0
    6.8920   -8.7390    5.3810 C   0  0  0  0  0  3  0  0  0  0  0  0
    7.1150   -8.6930    6.7460 C   0  0  0  0  0  3  0  0  0  0  0  0
    7.0900   -7.4480    7.3660 C   0  0  0  0  0  0  0  0  0  0  0  0
    7.3210   -4.9880   11.5990 C   0  0  0  0  0  0  0  0  0  0  0  0
    6.0950   -4.6450   12.1830 C   0  0  0  0  0  3  0  0  0  0  0  0
    6.0140   -3.5730   13.0720 C   0  0  0  0  0  3  0  0  0  0  0  0
    7.1570   -2.8350   13.3790 C   0  0  0  0  0  3  0  0  0  0  0  0
    8.3790   -3.1660   12.7970 C   0  0  0  0  0  3  0  0  0  0  0  0
    8.4620   -4.2390   11.9080 C   0  0  0  0  0  3  0  0  0  0  0  0
    9.4230   -9.8610   15.9890 C   0  0  2  0  0  0  0  0  0  0  0  0
   10.5860  -10.8770   16.0530 C   0  0  0  0  0  2  0  0  0  0  0  0
    9.5860  -12.0210   16.4130 C   0  0  1  0  0  0  0  0  0  0  0  0
    8.4960  -10.9260   16.6250 C   0  0  0  0  0  2  0  0  0  0  0  0
    9.6700   -8.7300   16.9180 N   0  0  0  0  0  4  0  0  0  0  0  0
   10.4090   -8.1130   16.5570 H   0  0  0  0  0  0  0  0  0  0  0  0
    9.9620   -9.0500   17.8520 H   0  0  0  0  0  0  0  0  0  0  0  0
    8.8310   -8.1480   17.0370 H   0  0  0  0  0  0  0  0  0  0  0  0
    9.3910  -13.0550   15.3130 C   0  0  0  0  0  3  0  0  0  0  0  0
    9.4600  -14.5400   15.5440 C   0  0  0  0  0  2  0  0  0  0  0  0
    8.1700  -13.9060   15.0990 C   0  0  0  0  0  2  0  0  0  0  0  0
    9.9430  -12.6420   17.6710 O   0  0  0  0  0  0  0  0  0  0  0  0
    9.3980  -13.4510   17.7270 H   0  0  0  0  0  0  0  0  0  0  0  0
  1 26  1  0  0  0  0
  2  1  1  0  0  0  0
  3  2  2  0  0  0  0
  4  5  2  0  0  0  0
  4  3  1  0  0  0  0
  5  6  1  0  0  0  0
  6  1  2  0  0  0  0
  7  4  1  0  0  0  0
  8  7  1  0  0  0  0
  9 10  1  0  0  0  0
  9  8  2  0  0  0  0
 10 11  1  0  0  0  0
 11  7  2  0  0  0  0
 11 20  1  0  0  0  0
 12 10  1  0  0  0  0
 13 12  1  0  0  0  0
 14 13  1  0  0  0  0
 14 19  1  0  0  0  0
 15 14  2  0  0  0  0
 16 15  1  0  0  0  0
 16 17  2  0  0  0  0
 17 18  1  0  0  0  0
 18 19  2  0  0  0  0
 19  9  1  0  0  0  0
 20 25  2  0  0  0  0
 20 21  1  0  0  0  0
 21 22  2  0  0  0  0
 22 23  1  0  0  0  0
 24 23  2  0  0  0  0
 25 24  1  0  0  0  0
 26 27  1  0  0  0  0
 26 29  1  0  0  0  0
 26 30  1  1  0  0  0
 27 28  1  0  0  0  0
 28 29  1  0  0  0  0
 28 37  1  1  0  0  0
 30 33  1  0  0  0  0
 30 32  1  0  0  0  0
 31 30  1  0  0  0  0
 34 35  1  0  0  0  0
 34 28  1  0  0  0  0
 36 34  1  0  0  0  0
 36 35  1  0  0  0  0
 37 38  1  0  0  0  0
M  END
>  <minimizedAffinity>
-11.9874601

$$$$
