
 OpenBabel10152418323D

 36 39  0  0  0  0  0  0  0  0999 V2000
    4.4130   -9.4140  -26.7380 C   0  0  0  0  0  2  0  0  0  0  0  0
   -0.6410   -9.9230  -23.3180 C   0  0  0  0  0  0  0  0  0  0  0  0
   -0.9190  -11.2850  -23.5200 C   0  0  0  0  0  3  0  0  0  0  0  0
   -0.0900  -12.0350  -24.3350 C   0  0  0  0  0  3  0  0  0  0  0  0
    1.0090  -11.4210  -24.9280 C   0  0  0  0  0  3  0  0  0  0  0  0
    1.3030  -10.0460  -24.7100 C   0  0  0  0  0  0  0  0  0  0  0  0
    2.4190   -9.3780  -25.2610 C   0  0  0  0  0  0  0  0  0  0  0  0
    3.3260  -10.0810  -26.0470 N   0  0  0  0  0  0  0  0  0  0  0  0
    2.6280   -8.0670  -25.0710 N   0  0  0  0  0  0  0  0  0  0  0  0
    1.7580   -7.4270  -24.2880 C   0  0  0  0  0  3  0  0  0  0  0  0
    0.7040   -7.9700  -23.6750 N   0  0  0  0  0  0  0  0  0  0  0  0
    0.4560   -9.2720  -23.8990 C   0  0  0  0  0  0  0  0  0  0  0  0
    3.5360  -11.0150  -25.7190 H   0  0  0  0  0  0  0  0  0  0  0  0
   -1.0020   -8.4560  -21.4480 N   0  0  0  0  0  0  0  0  0  0  0  0
   -1.5780   -9.1680  -22.4640 C   0  0  0  0  0  0  0  0  0  0  0  0
   -2.7900   -9.2250  -22.6130 O   0  0  0  0  0  0  0  0  0  0  0  0
   -1.6180   -7.9300  -20.8410 H   0  0  0  0  0  0  0  0  0  0  0  0
   -0.0050   -8.3770  -21.3200 H   0  0  0  0  0  0  0  0  0  0  0  0
    3.8720   -8.8180  -28.0180 C   0  0  0  0  0  0  0  0  0  0  0  0
    3.8210   -9.5810  -29.1900 C   0  0  0  0  0  3  0  0  0  0  0  0
    3.4140   -8.9950  -30.3850 C   0  0  0  0  0  3  0  0  0  0  0  0
    3.0410   -7.6470  -30.4220 C   0  0  0  0  0  3  0  0  0  0  0  0
    3.0460   -6.8740  -29.2610 C   0  0  0  0  0  0  0  0  0  0  0  0
    3.4880   -7.4680  -28.0680 C   0  0  0  0  0  3  0  0  0  0  0  0
    2.6750   -5.5200  -29.1800 N   0  0  0  0  0  0  0  0  0  0  0  0
    1.6230   -4.8520  -28.6010 C   0  0  0  0  0  0  0  0  0  0  0  0
    1.4720   -3.6470  -28.8040 O   0  0  0  0  0  0  0  0  0  0  0  0
    3.2990   -4.8620  -29.6350 H   0  0  0  0  0  0  0  0  0  0  0  0
    0.6420   -5.5170  -27.7390 C   0  0  0  0  0  0  0  0  0  0  0  0
    0.5450   -6.9130  -27.8360 C   0  0  0  0  0  3  0  0  0  0  0  0
   -0.3770   -7.6000  -27.0470 C   0  0  0  0  0  3  0  0  0  0  0  0
   -1.2090   -6.8910  -26.1810 C   0  0  0  0  0  0  0  0  0  0  0  0
   -2.3340   -7.7430  -25.1980 Cl  0  0  0  0  0  0  0  0  0  0  0  0
   -1.1390   -5.4990  -26.1050 C   0  0  0  0  0  3  0  0  0  0  0  0
   -0.2190   -4.8050  -26.8970 C   0  0  0  0  0  0  0  0  0  0  0  0
   -0.1960   -3.0830  -26.7890 Cl  0  0  0  0  0  0  0  0  0  0  0  0
  1  8  1  0  0  0  0
  2 15  1  0  0  0  0
  3  2  1  0  0  0  0
  4  3  2  0  0  0  0
  5  6  2  0  0  0  0
  5  4  1  0  0  0  0
  6 12  1  0  0  0  0
  7  9  2  0  0  0  0
  7  6  1  0  0  0  0
  8 13  1  0  0  0  0
  8  7  1  0  0  0  0
  9 10  1  0  0  0  0
 10 11  2  0  0  0  0
 12 11  1  0  0  0  0
 12  2  2  0  0  0  0
 14 18  1  0  0  0  0
 14 17  1  0  0  0  0
 15 14  1  0  0  0  0
 16 15  2  0  0  0  0
 19  1  1  0  0  0  0
 20 19  2  0  0  0  0
 21 20  1  0  0  0  0
 22 21  2  0  0  0  0
 22 23  1  0  0  0  0
 23 25  1  0  0  0  0
 23 24  2  0  0  0  0
 24 19  1  0  0  0  0
 25 26  1  0  0  0  0
 26 29  1  0  0  0  0
 27 26  2  0  0  0  0
 28 25  1  0  0  0  0
 29 35  1  0  0  0  0
 30 29  2  0  0  0  0
 30 31  1  0  0  0  0
 31 32  2  0  0  0  0
 32 34  1  0  0  0  0
 32 33  1  0  0  0  0
 35 36  1  0  0  0  0
 35 34  2  0  0  0  0
M  END
>  <minimizedAffinity>
-6.10599327

$$$$
