
 OpenBabel10152418323D

 36 39  0  0  0  0  0  0  0  0999 V2000
    3.0990   -6.7630  -29.8600 C   0  0  0  0  0  2  0  0  0  0  0  0
   -0.6890   -4.1040  -25.8490 C   0  0  0  0  0  0  0  0  0  0  0  0
   -1.0070   -5.2210  -25.0590 C   0  0  0  0  0  3  0  0  0  0  0  0
   -0.4580   -6.4530  -25.3680 C   0  0  0  0  0  3  0  0  0  0  0  0
    0.4080   -6.5520  -26.4530 C   0  0  0  0  0  3  0  0  0  0  0  0
    0.7470   -5.4190  -27.2440 C   0  0  0  0  0  0  0  0  0  0  0  0
    1.6410   -5.4540  -28.3360 C   0  0  0  0  0  0  0  0  0  0  0  0
    2.2740   -6.6460  -28.6730 N   0  0  0  0  0  0  0  0  0  0  0  0
    1.8910   -4.3710  -29.0870 N   0  0  0  0  0  0  0  0  0  0  0  0
    1.2930   -3.2360  -28.7210 C   0  0  0  0  0  3  0  0  0  0  0  0
    0.4750   -3.0780  -27.6770 N   0  0  0  0  0  0  0  0  0  0  0  0
    0.1780   -4.1680  -26.9490 C   0  0  0  0  0  0  0  0  0  0  0  0
    2.5770   -7.2020  -27.8830 H   0  0  0  0  0  0  0  0  0  0  0  0
   -1.3400   -1.8760  -26.4750 N   0  0  0  0  0  0  0  0  0  0  0  0
   -1.3300   -2.8260  -25.4900 C   0  0  0  0  0  0  0  0  0  0  0  0
   -1.7650   -2.6040  -24.3690 O   0  0  0  0  0  0  0  0  0  0  0  0
   -1.7690   -0.9860  -26.2590 H   0  0  0  0  0  0  0  0  0  0  0  0
   -1.0060   -2.0450  -27.4120 H   0  0  0  0  0  0  0  0  0  0  0  0
    3.5480   -8.2010  -29.9910 C   0  0  0  0  0  0  0  0  0  0  0  0
    3.4800   -8.8560  -31.2260 C   0  0  0  0  0  3  0  0  0  0  0  0
    3.8020  -10.2070  -31.3160 C   0  0  0  0  0  3  0  0  0  0  0  0
    4.2070  -10.9160  -30.1800 C   0  0  0  0  0  3  0  0  0  0  0  0
    4.3200  -10.2780  -28.9450 C   0  0  0  0  0  0  0  0  0  0  0  0
    3.9630   -8.9230  -28.8600 C   0  0  0  0  0  3  0  0  0  0  0  0
    4.7340  -10.8870  -27.7460 N   0  0  0  0  0  0  0  0  0  0  0  0
    4.1110  -11.1650  -26.5530 C   0  0  0  0  0  0  0  0  0  0  0  0
    4.7650  -11.5950  -25.6030 O   0  0  0  0  0  0  0  0  0  0  0  0
    5.6970  -11.2050  -27.7210 H   0  0  0  0  0  0  0  0  0  0  0  0
    2.6740  -10.9660  -26.3460 C   0  0  0  0  0  0  0  0  0  0  0  0
    1.8260  -12.0390  -26.6560 C   0  0  0  0  0  3  0  0  0  0  0  0
    0.4480  -11.9030  -26.4890 C   0  0  0  0  0  3  0  0  0  0  0  0
   -0.0760  -10.6950  -26.0320 C   0  0  0  0  0  0  0  0  0  0  0  0
   -1.7750  -10.5360  -25.8110 Cl  0  0  0  0  0  0  0  0  0  0  0  0
    0.7610   -9.6130  -25.7540 C   0  0  0  0  0  3  0  0  0  0  0  0
    2.1420   -9.7420  -25.9230 C   0  0  0  0  0  0  0  0  0  0  0  0
    3.1300   -8.3650  -25.5970 Cl  0  0  0  0  0  0  0  0  0  0  0  0
  1  8  1  0  0  0  0
  2 15  1  0  0  0  0
  2  3  1  0  0  0  0
  4  3  2  0  0  0  0
  5  4  1  0  0  0  0
  6 12  1  0  0  0  0
  6  5  2  0  0  0  0
  7  6  1  0  0  0  0
  8  7  1  0  0  0  0
  8 13  1  0  0  0  0
  9 10  1  0  0  0  0
  9  7  2  0  0  0  0
 10 11  2  0  0  0  0
 11 12  1  0  0  0  0
 12  2  2  0  0  0  0
 14 17  1  0  0  0  0
 14 15  1  0  0  0  0
 15 16  2  0  0  0  0
 18 14  1  0  0  0  0
 19  1  1  0  0  0  0
 19 24  1  0  0  0  0
 20 19  2  0  0  0  0
 21 20  1  0  0  0  0
 21 22  2  0  0  0  0
 22 23  1  0  0  0  0
 23 24  2  0  0  0  0
 23 25  1  0  0  0  0
 25 28  1  0  0  0  0
 25 26  1  0  0  0  0
 26 29  1  0  0  0  0
 26 27  2  0  0  0  0
 29 35  1  0  0  0  0
 30 31  1  0  0  0  0
 30 29  2  0  0  0  0
 31 32  2  0  0  0  0
 32 33  1  0  0  0  0
 32 34  1  0  0  0  0
 35 34  2  0  0  0  0
 35 36  1  0  0  0  0
M  END
>  <minimizedAffinity>
-6.98251152

$$$$
