
 OpenBabel10152418323D

 36 39  0  0  0  0  0  0  0  0999 V2000
   -1.6320   -5.9610  -26.5300 C   0  0  0  0  0  2  0  0  0  0  0  0
   -1.0340  -11.1840  -23.3890 C   0  0  0  0  0  0  0  0  0  0  0  0
   -0.6510  -12.0390  -24.4360 C   0  0  0  0  0  3  0  0  0  0  0  0
   -0.5390  -11.5350  -25.7190 C   0  0  0  0  0  3  0  0  0  0  0  0
   -0.7980  -10.1860  -25.9400 C   0  0  0  0  0  3  0  0  0  0  0  0
   -1.1680   -9.3140  -24.8790 C   0  0  0  0  0  0  0  0  0  0  0  0
   -1.4130   -7.9330  -25.0380 C   0  0  0  0  0  0  0  0  0  0  0  0
   -1.2680   -7.3450  -26.2900 N   0  0  0  0  0  0  0  0  0  0  0  0
   -1.8110   -7.1580  -24.0170 N   0  0  0  0  0  0  0  0  0  0  0  0
   -1.9120   -7.7440  -22.8220 C   0  0  0  0  0  3  0  0  0  0  0  0
   -1.6520   -9.0250  -22.5500 N   0  0  0  0  0  0  0  0  0  0  0  0
   -1.3030   -9.8210  -23.5750 C   0  0  0  0  0  0  0  0  0  0  0  0
   -0.4760   -7.6790  -26.8250 H   0  0  0  0  0  0  0  0  0  0  0  0
   -2.4510  -11.9720  -21.6140 N   0  0  0  0  0  0  0  0  0  0  0  0
   -1.1670  -11.7850  -22.0480 C   0  0  0  0  0  0  0  0  0  0  0  0
   -0.1990  -12.0390  -21.3460 O   0  0  0  0  0  0  0  0  0  0  0  0
   -2.5760  -12.3790  -20.6960 H   0  0  0  0  0  0  0  0  0  0  0  0
   -3.2620  -11.7900  -22.1850 H   0  0  0  0  0  0  0  0  0  0  0  0
   -0.4300   -5.2440  -27.1040 C   0  0  0  0  0  0  0  0  0  0  0  0
   -0.2870   -3.8600  -26.9460 C   0  0  0  0  0  3  0  0  0  0  0  0
    0.7690   -3.1950  -27.5610 C   0  0  0  0  0  3  0  0  0  0  0  0
    1.7010   -3.9030  -28.3270 C   0  0  0  0  0  3  0  0  0  0  0  0
    1.6050   -5.2860  -28.4690 C   0  0  0  0  0  0  0  0  0  0  0  0
    0.5180   -5.9430  -27.8700 C   0  0  0  0  0  3  0  0  0  0  0  0
    2.4930   -6.0980  -29.1980 N   0  0  0  0  0  0  0  0  0  0  0  0
    3.1720   -7.2600  -28.9200 C   0  0  0  0  0  0  0  0  0  0  0  0
    4.0070   -7.6900  -29.7150 O   0  0  0  0  0  0  0  0  0  0  0  0
    2.7000   -5.7890  -30.1430 H   0  0  0  0  0  0  0  0  0  0  0  0
    2.9530   -8.0280  -27.6910 C   0  0  0  0  0  0  0  0  0  0  0  0
    2.5110   -7.3210  -26.5630 C   0  0  0  0  0  3  0  0  0  0  0  0
    2.2950   -7.9990  -25.3630 C   0  0  0  0  0  3  0  0  0  0  0  0
    2.5390   -9.3700  -25.2900 C   0  0  0  0  0  0  0  0  0  0  0  0
    2.2560  -10.2040  -23.8120 Cl  0  0  0  0  0  0  0  0  0  0  0  0
    3.0100  -10.0710  -26.4010 C   0  0  0  0  0  3  0  0  0  0  0  0
    3.2320   -9.3970  -27.6050 C   0  0  0  0  0  0  0  0  0  0  0  0
    3.8460  -10.3030  -28.9390 Cl  0  0  0  0  0  0  0  0  0  0  0  0
  1  8  1  0  0  0  0
  2 15  1  0  0  0  0
  3  2  2  0  0  0  0
  4  3  1  0  0  0  0
  5  4  2  0  0  0  0
  5  6  1  0  0  0  0
  6 12  1  0  0  0  0
  7  6  2  0  0  0  0
  7  9  1  0  0  0  0
  8  7  1  0  0  0  0
  9 10  2  0  0  0  0
 10 11  1  0  0  0  0
 12  2  1  0  0  0  0
 12 11  2  0  0  0  0
 13  8  1  0  0  0  0
 14 17  1  0  0  0  0
 15 14  1  0  0  0  0
 15 16  2  0  0  0  0
 18 14  1  0  0  0  0
 19 20  1  0  0  0  0
 19  1  1  0  0  0  0
 21 20  2  0  0  0  0
 22 21  1  0  0  0  0
 23 22  2  0  0  0  0
 23 24  1  0  0  0  0
 24 19  2  0  0  0  0
 25 26  1  0  0  0  0
 25 23  1  0  0  0  0
 26 29  1  0  0  0  0
 27 26  2  0  0  0  0
 28 25  1  0  0  0  0
 29 35  2  0  0  0  0
 29 30  1  0  0  0  0
 30 31  2  0  0  0  0
 31 32  1  0  0  0  0
 32 33  1  0  0  0  0
 34 32  2  0  0  0  0
 35 34  1  0  0  0  0
 36 35  1  0  0  0  0
M  END
>  <minimizedAffinity>
-7.48036432

$$$$
