
 OpenBabel10152418323D

 36 39  0  0  0  0  0  0  0  0999 V2000
   -0.7510   -5.9450  -24.7860 C   0  0  0  0  0  2  0  0  0  0  0  0
   -1.5740  -11.0960  -21.5790 C   0  0  0  0  0  0  0  0  0  0  0  0
   -1.3180  -12.0390  -22.5890 C   0  0  0  0  0  3  0  0  0  0  0  0
   -1.0020  -11.6020  -23.8620 C   0  0  0  0  0  3  0  0  0  0  0  0
   -0.9350  -10.2350  -24.1100 C   0  0  0  0  0  3  0  0  0  0  0  0
   -1.1750   -9.2780  -23.0850 C   0  0  0  0  0  0  0  0  0  0  0  0
   -1.0920   -7.8810  -23.2700 C   0  0  0  0  0  0  0  0  0  0  0  0
   -0.7260   -7.3690  -24.5110 N   0  0  0  0  0  0  0  0  0  0  0  0
   -1.3780   -7.0140  -22.2870 N   0  0  0  0  0  0  0  0  0  0  0  0
   -1.6960   -7.5350  -21.1010 C   0  0  0  0  0  3  0  0  0  0  0  0
   -1.7510   -8.8350  -20.8020 N   0  0  0  0  0  0  0  0  0  0  0  0
   -1.5160   -9.7130  -21.7920 C   0  0  0  0  0  0  0  0  0  0  0  0
    0.0070   -7.8840  -24.9820 H   0  0  0  0  0  0  0  0  0  0  0  0
   -0.8830  -11.9710  -19.4490 N   0  0  0  0  0  0  0  0  0  0  0  0
   -1.9360  -11.6220  -20.2490 C   0  0  0  0  0  0  0  0  0  0  0  0
   -3.0970  -11.7960  -19.9080 O   0  0  0  0  0  0  0  0  0  0  0  0
   -1.0980  -12.3390  -18.5310 H   0  0  0  0  0  0  0  0  0  0  0  0
    0.0810  -11.8160  -19.7010 H   0  0  0  0  0  0  0  0  0  0  0  0
   -0.2810   -5.7240  -26.2060 C   0  0  0  0  0  0  0  0  0  0  0  0
   -1.1950   -5.3980  -27.2140 C   0  0  0  0  0  3  0  0  0  0  0  0
   -0.7670   -5.2940  -28.5340 C   0  0  0  0  0  3  0  0  0  0  0  0
    0.5770   -5.4990  -28.8620 C   0  0  0  0  0  3  0  0  0  0  0  0
    1.5160   -5.7860  -27.8710 C   0  0  0  0  0  0  0  0  0  0  0  0
    1.0680   -5.9200  -26.5480 C   0  0  0  0  0  3  0  0  0  0  0  0
    2.8920   -5.9930  -28.0840 N   0  0  0  0  0  0  0  0  0  0  0  0
    3.7680   -6.9970  -27.7520 C   0  0  0  0  0  0  0  0  0  0  0  0
    4.9740   -6.8520  -27.9510 O   0  0  0  0  0  0  0  0  0  0  0  0
    3.3750   -5.2600  -28.5930 H   0  0  0  0  0  0  0  0  0  0  0  0
    3.3320   -8.2600  -27.1510 C   0  0  0  0  0  0  0  0  0  0  0  0
    2.7940   -8.2030  -25.8560 C   0  0  0  0  0  3  0  0  0  0  0  0
    2.3710   -9.3750  -25.2300 C   0  0  0  0  0  3  0  0  0  0  0  0
    2.5040  -10.5970  -25.8880 C   0  0  0  0  0  0  0  0  0  0  0  0
    1.9660  -12.0380  -25.1190 Cl  0  0  0  0  0  0  0  0  0  0  0  0
    3.0690  -10.6630  -27.1630 C   0  0  0  0  0  3  0  0  0  0  0  0
    3.4980   -9.4920  -27.7940 C   0  0  0  0  0  0  0  0  0  0  0  0
    4.2190   -9.6320  -29.3550 Cl  0  0  0  0  0  0  0  0  0  0  0  0
  1  8  1  0  0  0  0
  2 15  1  0  0  0  0
  3  2  2  0  0  0  0
  4  3  1  0  0  0  0
  5  4  2  0  0  0  0
  5  6  1  0  0  0  0
  6 12  1  0  0  0  0
  7  6  2  0  0  0  0
  7  9  1  0  0  0  0
  8  7  1  0  0  0  0
  9 10  2  0  0  0  0
 10 11  1  0  0  0  0
 12  2  1  0  0  0  0
 12 11  2  0  0  0  0
 13  8  1  0  0  0  0
 14 17  1  0  0  0  0
 15 16  2  0  0  0  0
 15 14  1  0  0  0  0
 18 14  1  0  0  0  0
 19  1  1  0  0  0  0
 20 19  2  0  0  0  0
 21 20  1  0  0  0  0
 22 21  2  0  0  0  0
 22 23  1  0  0  0  0
 23 24  2  0  0  0  0
 24 19  1  0  0  0  0
 25 23  1  0  0  0  0
 25 26  1  0  0  0  0
 26 29  1  0  0  0  0
 27 26  2  0  0  0  0
 28 25  1  0  0  0  0
 29 30  1  0  0  0  0
 30 31  2  0  0  0  0
 32 31  1  0  0  0  0
 32 33  1  0  0  0  0
 34 32  2  0  0  0  0
 35 34  1  0  0  0  0
 35 29  2  0  0  0  0
 36 35  1  0  0  0  0
M  END
>  <minimizedAffinity>
-8.52664375

$$$$
