
 OpenBabel10152418323D

 36 39  0  0  0  0  0  0  0  0999 V2000
   -0.8510   -6.8130  -27.4090 C   0  0  0  0  0  2  0  0  0  0  0  0
   -1.5340  -10.0760  -22.2720 C   0  0  0  0  0  0  0  0  0  0  0  0
   -1.3060  -11.3640  -22.7860 C   0  0  0  0  0  3  0  0  0  0  0  0
   -1.0360  -11.5200  -24.1340 C   0  0  0  0  0  3  0  0  0  0  0  0
   -0.9860  -10.3930  -24.9480 C   0  0  0  0  0  3  0  0  0  0  0  0
   -1.1970   -9.0860  -24.4270 C   0  0  0  0  0  0  0  0  0  0  0  0
   -1.1280   -7.9060  -25.1980 C   0  0  0  0  0  0  0  0  0  0  0  0
   -0.8080   -7.9810  -26.5490 N   0  0  0  0  0  0  0  0  0  0  0  0
   -1.3870   -6.6980  -24.6740 N   0  0  0  0  0  0  0  0  0  0  0  0
   -1.6610   -6.6540  -23.3700 C   0  0  0  0  0  3  0  0  0  0  0  0
   -1.6980   -7.6990  -22.5390 N   0  0  0  0  0  0  0  0  0  0  0  0
   -1.4910   -8.9190  -23.0630 C   0  0  0  0  0  0  0  0  0  0  0  0
   -0.0880   -8.6550  -26.7770 H   0  0  0  0  0  0  0  0  0  0  0  0
   -1.2140   -8.9640  -20.1650 N   0  0  0  0  0  0  0  0  0  0  0  0
   -1.8480   -9.9750  -20.8350 C   0  0  0  0  0  0  0  0  0  0  0  0
   -2.5730  -10.7780  -20.2650 O   0  0  0  0  0  0  0  0  0  0  0  0
   -1.4050   -8.8700  -19.1760 H   0  0  0  0  0  0  0  0  0  0  0  0
   -0.6300   -8.2780  -20.6190 H   0  0  0  0  0  0  0  0  0  0  0  0
    0.5680   -6.4400  -27.7790 C   0  0  0  0  0  0  0  0  0  0  0  0
    1.0570   -5.1560  -27.5090 C   0  0  0  0  0  3  0  0  0  0  0  0
    2.3280   -4.7910  -27.9410 C   0  0  0  0  0  3  0  0  0  0  0  0
    3.1300   -5.7050  -28.6330 C   0  0  0  0  0  3  0  0  0  0  0  0
    2.6830   -7.0020  -28.8800 C   0  0  0  0  0  0  0  0  0  0  0  0
    1.3870   -7.3490  -28.4680 C   0  0  0  0  0  3  0  0  0  0  0  0
    3.4100   -8.0040  -29.5490 N   0  0  0  0  0  0  0  0  0  0  0  0
    3.8510   -9.2570  -29.1990 C   0  0  0  0  0  0  0  0  0  0  0  0
    4.5990   -9.8790  -29.9520 O   0  0  0  0  0  0  0  0  0  0  0  0
    3.6850   -7.7900  -30.5020 H   0  0  0  0  0  0  0  0  0  0  0  0
    3.4720   -9.9050  -27.9400 C   0  0  0  0  0  0  0  0  0  0  0  0
    2.8130  -11.1410  -28.0280 C   0  0  0  0  0  3  0  0  0  0  0  0
    2.4200  -11.7990  -26.8630 C   0  0  0  0  0  3  0  0  0  0  0  0
    2.6670  -11.2150  -25.6220 C   0  0  0  0  0  0  0  0  0  0  0  0
    2.1940  -12.0380  -24.1860 Cl  0  0  0  0  0  0  0  0  0  0  0  0
    3.2920   -9.9700  -25.5310 C   0  0  0  0  0  3  0  0  0  0  0  0
    3.6850   -9.3040  -26.6950 C   0  0  0  0  0  0  0  0  0  0  0  0
    4.4240   -7.7530  -26.5290 Cl  0  0  0  0  0  0  0  0  0  0  0  0
  1  8  1  0  0  0  0
  2 15  1  0  0  0  0
  3  2  1  0  0  0  0
  4  3  2  0  0  0  0
  5  6  2  0  0  0  0
  5  4  1  0  0  0  0
  6 12  1  0  0  0  0
  7  9  2  0  0  0  0
  7  6  1  0  0  0  0
  8  7  1  0  0  0  0
  9 10  1  0  0  0  0
 10 11  2  0  0  0  0
 12 11  1  0  0  0  0
 12  2  2  0  0  0  0
 13  8  1  0  0  0  0
 14 17  1  0  0  0  0
 15 16  2  0  0  0  0
 15 14  1  0  0  0  0
 18 14  1  0  0  0  0
 19 20  1  0  0  0  0
 19  1  1  0  0  0  0
 21 20  2  0  0  0  0
 22 21  1  0  0  0  0
 23 22  2  0  0  0  0
 23 24  1  0  0  0  0
 24 19  2  0  0  0  0
 25 26  1  0  0  0  0
 25 23  1  0  0  0  0
 26 29  1  0  0  0  0
 27 26  2  0  0  0  0
 28 25  1  0  0  0  0
 29 35  1  0  0  0  0
 30 29  2  0  0  0  0
 30 31  1  0  0  0  0
 31 32  2  0  0  0  0
 32 34  1  0  0  0  0
 32 33  1  0  0  0  0
 35 36  1  0  0  0  0
 35 34  2  0  0  0  0
M  END
>  <minimizedAffinity>
-5.69833899

$$$$
